          AutoDock 4.2 Release 4.2.6   
         (C) 1989-2012 The Scripps Research Institute
        AutoDock comes with ABSOLUTELY NO WARRANTY.
        AutoDock is free software, and you are welcome
        to redistribute it under certain conditions;
        for details type 'autodock4 -C'

                     main.cc  $Revision: 1.213 $

                   Compiled on Feb 20 2022 at 09:48:33


This file was created at:			6:39 07" p.m., 11/08/2024
                   on host:		"ThinkStation-P620"
Current Working Directory = "/home/antonio/Documenti/buccheri/IDROSSAMICO HDAC/HDAC 8/P (copia)/Ligand_1"

      ________________________________________________________________

                   SETTING UP DEFAULT PARAMETER LIBRARY
      ________________________________________________________________


Random number generator was seeded with values 358143, 1731087547.
Docking parameter file (DPF) used for this docking:		ligand_dock.biased.dpf
DPF> parameter_file ad4_arom_params.dat

Using read_parameter_library() to try to open and read "ad4_arom_params.dat".

DPF> autodock_parameter_version 4.2       # used by autodock to validate parameter set

	Autodock parameter version 4.2.
DPF> outlev 1                             # diagnostic output level

Output Level = 1  ADT-COMPATIBLE OUTPUT DURING DOCKING.
DPF> intelec                              # calculate internal electrostatics

Electrostatic energies will be calculated for all non-bonds between moving atoms.
DPF> seed pid time                        # seeds for random generator

Random number generator was seeded with values 358143, 1731087547.
DPF> ligand_types A C OA N S HD AC

WARNING: pairwise distance, Rij, 0.00, is not a very reasonable value for the equilibrium separation of two atoms! (0.90 Angstroms <= Rij <= 6.00 Angstroms)

Perhaps you meant to use "intnbp_coeffs" instead of "intnbp_r_eps"?

DPF> fld receptor.maps.fld                # grid_data_file

Opening Grid Map Dimensions file:		receptor.maps.fld
Grid Point Spacing =				0.375 Angstroms

Even Number of User-specified Grid Points =	70 x-points
						70 y-points
						70 z-points

Coordinates of Central Grid Point of Maps =	(36.691, 12.592, 124.207)
Macromolecule file used to create Grid Maps =	receptor.pdbqt
Grid Parameter file used to create Grid Maps =	receptor.gpf
Minimum coordinates in grid = (23.566, -0.533, 111.082)
Maximum coordinates in grid = (49.816, 25.717, 137.332)

DPF> map receptor.A.map                   # atom-specific affinity map

DPF> map receptor.C.map                   # atom-specific affinity map

DPF> map receptor.OA.biased.map

DPF> map receptor.N.map                   # atom-specific affinity map

DPF> map receptor.S.map                   # atom-specific affinity map

DPF> map receptor.HD.map                  # atom-specific affinity map

DPF> map receptor.AC.biased.map

DPF> elecmap receptor.e.map               # electrostatics map

DPF> desolvmap receptor.d.map             # desolvation map

DPF> move ligand.dum.pdbqt

1,4-interactions will be _ignored_ in the non-bonded internal energy calculation.

Ligand PDBQT file = "ligand.dum.pdbqt"

INPUT LIGAND PDBQT FILE:
________________________

INPUT-LIGAND-PDBQT: REMARK  Name = 
INPUT-LIGAND-PDBQT: REMARK  6 active torsions:
INPUT-LIGAND-PDBQT: REMARK  status: ('A' for Active; 'I' for Inactive)
INPUT-LIGAND-PDBQT: REMARK    1  A    between atoms: S_2  and  N_3
INPUT-LIGAND-PDBQT: REMARK    2  A    between atoms: S_2  and  C_10
INPUT-LIGAND-PDBQT: REMARK    3  A    between atoms: N_3  and  C_4
INPUT-LIGAND-PDBQT: REMARK    4  A    between atoms: C_12  and  C_13
INPUT-LIGAND-PDBQT: REMARK    5  A    between atoms: C_14  and  C_15
INPUT-LIGAND-PDBQT: REMARK    6  A    between atoms: N_16  and  O_17
INPUT-LIGAND-PDBQT: REMARK                            x       y       z     vdW  Elec       q    Type
INPUT-LIGAND-PDBQT: REMARK                         _______ _______ _______ _____ _____    ______ ____
INPUT-LIGAND-PDBQT: ROOT
INPUT-LIGAND-PDBQT: ATOM      1  C   UNL     1      -0.136   0.637  -1.957  0.00  0.00     0.000 A 
INPUT-LIGAND-PDBQT: ATOM      2  C   UNL     1       0.591   0.543  -0.763  0.00  0.00     0.000 A 
INPUT-LIGAND-PDBQT: ATOM      3  C   UNL     1       1.565  -0.456  -0.592  0.00  0.00     0.000 A 
INPUT-LIGAND-PDBQT: ATOM      4  C   UNL     1       1.787  -1.375  -1.638  0.00  0.00     0.000 A 
INPUT-LIGAND-PDBQT: ATOM      5  C   UNL     1       1.066  -1.275  -2.831  0.00  0.00     0.000 A 
INPUT-LIGAND-PDBQT: ATOM      6  C   UNL     1       0.111  -0.270  -2.994  0.00  0.00     0.000 A 
INPUT-LIGAND-PDBQT: ATOM     26  CM  UNL     1       0.831  -0.366  -1.796  1.00  0.00     0.000 AC
INPUT-LIGAND-PDBQT: ENDROOT
INPUT-LIGAND-PDBQT: BRANCH   1   8
INPUT-LIGAND-PDBQT: ATOM      7  O   UNL     1      -2.391   1.478  -3.158  0.00  0.00     0.000 OA
INPUT-LIGAND-PDBQT: ATOM      8  S   UNL     1      -1.359   1.891  -2.146  0.00  0.00     0.000 S 
INPUT-LIGAND-PDBQT: ATOM      9  O   UNL     1      -0.690   3.151  -2.614  0.00  0.00     0.000 OA
INPUT-LIGAND-PDBQT: BRANCH   8  10
INPUT-LIGAND-PDBQT: ATOM     10  N   UNL     1      -2.146   2.192  -0.627  0.00  0.00     0.000 N 
INPUT-LIGAND-PDBQT: ATOM     11  H   UNL     1      -2.181   3.120  -0.301  0.00  0.00     0.000 HD
INPUT-LIGAND-PDBQT: BRANCH  10  12
INPUT-LIGAND-PDBQT: ATOM     12  C   UNL     1      -2.749   1.166   0.182  0.00  0.00     0.000 A 
INPUT-LIGAND-PDBQT: ATOM     13  C   UNL     1      -2.956  -0.141  -0.301  0.00  0.00     0.000 A 
INPUT-LIGAND-PDBQT: ATOM     14  C   UNL     1      -3.537  -1.114   0.518  0.00  0.00     0.000 A 
INPUT-LIGAND-PDBQT: ATOM     15  C   UNL     1      -3.921  -0.794   1.822  0.00  0.00     0.000 A 
INPUT-LIGAND-PDBQT: ATOM     16  C   UNL     1      -3.728   0.500   2.309  0.00  0.00     0.000 A 
INPUT-LIGAND-PDBQT: ATOM     17  C   UNL     1      -3.146   1.476   1.494  0.00  0.00     0.000 A 
INPUT-LIGAND-PDBQT: ATOM     27  CM  UNL     1      -3.339   0.182   1.004  1.00  0.00     0.000 AC
INPUT-LIGAND-PDBQT: ENDBRANCH  10  12
INPUT-LIGAND-PDBQT: ENDBRANCH   8  10
INPUT-LIGAND-PDBQT: ENDBRANCH   1   8
INPUT-LIGAND-PDBQT: BRANCH   3  18
INPUT-LIGAND-PDBQT: ATOM     18  C   UNL     1       2.290  -0.524   0.701  0.00  0.00     0.000 C 
INPUT-LIGAND-PDBQT: ATOM     19  C   UNL     1       3.479  -1.126   0.856  0.00  0.00     0.000 C 
INPUT-LIGAND-PDBQT: BRANCH  19  20
INPUT-LIGAND-PDBQT: ATOM     20  C   UNL     1       4.197  -1.191   2.146  0.00  0.00     0.000 C 
INPUT-LIGAND-PDBQT: ATOM     21  N   UNL     1       3.894  -0.314   3.239  0.00  0.00     0.000 N 
INPUT-LIGAND-PDBQT: ATOM     22  O   UNL     1       5.127  -2.032   2.273  0.00  0.00     0.000 OA
INPUT-LIGAND-PDBQT: ATOM     23  H   UNL     1       3.251   0.421   3.115  0.00  0.00     0.000 HD
INPUT-LIGAND-PDBQT: BRANCH  21  24
INPUT-LIGAND-PDBQT: ATOM     24  O   UNL     1       4.489  -0.495   4.443  0.00  0.00     0.000 OA
INPUT-LIGAND-PDBQT: ATOM     25  H   UNL     1       5.088  -1.256   4.396  0.00  0.00     0.000 HD
INPUT-LIGAND-PDBQT: ENDBRANCH  21  24
INPUT-LIGAND-PDBQT: ENDBRANCH  19  20
INPUT-LIGAND-PDBQT: ENDBRANCH   3  18
INPUT-LIGAND-PDBQT: TORSDOF 6________________________________________________________________________________

Total charge on ligand                               =	+0.000 e
REMARK  Name = 
REMARK  6 active torsions:
REMARK  status: ('A' for Active; 'I' for Inactive)
REMARK    1  A    between atoms: S_2  and  N_3
REMARK    2  A    between atoms: S_2  and  C_10
REMARK    3  A    between atoms: N_3  and  C_4
REMARK    4  A    between atoms: C_12  and  C_13
REMARK    5  A    between atoms: C_14  and  C_15
REMARK    6  A    between atoms: N_16  and  O_17
REMARK                            x       y       z     vdW  Elec       q    Type
REMARK                         _______ _______ _______ _____ _____    ______ ____


Number of Rotatable Bonds in Small Molecule =	6 torsions
Number of atoms in ligand:  27

Number of non-hydrogen atoms in ligand:  24

Number of vibrational degrees of freedom of ligand:  75


Number of torsional degrees of freedom = 6
Estimated loss of torsional free energy upon binding = +1.7898 kcal/mol


DPF> about 0.320 0.169 0.303            # small molecule center

Small molecule center of rotation =	(+0.320, +0.169, +0.303)

DPF> tran0 random                         # initial coordinates/A or random

Initial translation =			(45.346, 19.332, 129.674) Angstroms
DPF> quaternion0 random                   # initial orientation

Each run will begin with a new, random initial orientation.
Initial quaternion,  (x,y,z,w) =	( -0.386, -0.851, 0.350, 0.063 ),
DPF> dihe0 random                         # initial dihedrals (relative) or random

DPF> torsdof 6                            # torsional degrees of freedom

Number of torsional degrees of freedom = 6
Free energy coefficient for torsional degrees of freedom = 0.2983 as specified in parameter library "ad4_arom_params.dat".

Estimated loss of torsional free energy upon binding = +1.7898 kcal/mol

DPF> rmstol 2.0                           # cluster_tolerance/A

Maximum RMS tolerance for conformational cluster analysis = 2.00 Angstroms
DPF> extnrg 1000.0                        # external grid energy

External grid energy (beyond grid map walls) = 1000.00

DPF> e0max 0.0 10000                      # max initial energy; max number of retries

Using user-specified maximum number of retries for simanneal initialization, 10000 retries.
If the simanneal initial energy is greater than e0max, 0.000,
then a new, random initial state will be created.

DPF> ga_pop_size 150                      # number of individuals in population

A population of 150 individuals will be used
DPF> ga_num_evals 2500000                 # maximum number of energy evaluations

There will be at most 2500000 function evaluations used.
DPF> ga_num_generations 27000             # maximum number of generations

The GA will run for at most 27000 generations.
DPF> ga_elitism 1                         # number of top individuals to survive to next generation

The 1 best will be preserved each GA generation.
DPF> ga_mutation_rate 0.02                # rate of gene mutation

The mutation rate is 0.020000.
DPF> ga_crossover_rate 0.8                # rate of crossover

The crossover rate is 0.800000.
DPF> ga_window_size 10                    # 

The GA's selection window is 10 generations.
DPF> ga_cauchy_alpha 0.0                  # Alpha parameter of Cauchy distribution

The alpha parameter (for the Cauchy distribution) is being set to 0.000000.
DPF> ga_cauchy_beta 1.0                   # Beta parameter Cauchy distribution

The beta parameter (for the Cauchy distribution) is being set to 1.000000.
DPF> set_ga                               # set the above parameters for GA or LGA

DPF> sw_max_its 300                       # iterations of Solis & Wets local search

Solis & Wets algorithms will perform at most 300 iterations.
DPF> sw_max_succ 4                        # consecutive successes before changing rho

Solis & Wets algorithms expand rho every 4 in a row successes.
DPF> sw_max_fail 4                        # consecutive failures before changing rho

Solis & Wets algorithms contract rho every 4 in a row failures.
DPF> sw_rho 1.0                           # size of local search space to sample

rho is set to 1.000000.
DPF> sw_lb_rho 0.01                       # lower bound on rho

rho will never get smaller than 0.010000.
DPF> ls_search_freq 0.06                  # probability of performing local search on individual

Local search will be performed with frequency 0.060000.
DPF> set_psw1                             # set the above pseudo-Solis & Wets parameters

Creating a new Local Search object using the pseudo-Solis-Wets algorithm (pSW1) with the current settings.

DPF> unbound_model bound                  # state of unbound ligand

DPF> ga_run 100                           # do this many hybrid GA-LS runs

centering ligand on specified point: 0.320 0.169 0.303
Furthest true ligand atom from "about" center is 6.443 Angstroms (maxrad).
Number of requested GA dockings = 100 runs
Unbound model to be used is 'same as bound' [AutoDock 4.2 default].

	BEGINNING GENETIC ALGORITHM DOCKING 1 of 100
Run: 1 Seed: 544453026 248978459 [ Run 1 of 100 GA/GALS ]
Beginning LAMARCKIAN GENETIC ALGORITHM (LGA), with a maximum of 2500000 energy evaluations.

Final-Value: -15.547


	FINAL GENETIC ALGORITHM DOCKED STATE
	_______________________________________________


Detailed state:  trans 35.748 13.217 122.244 quatxyzw 0.781966 -0.385153 0.014519 -0.489873 center 0.320 0.169 0.303 ntor 6 7.7308 146.9623 105.1942 123.0951 102.4622 -108.6267
State:	 35.748  13.217 122.244   0.897 -0.442  0.017 -121.335      7.73  146.96  105.19  123.10  102.46 -108.63

DOCKED: MODEL        1
DOCKED: USER    Run = 1
DOCKED: USER    DPF = ligand_dock.biased.dpf
DOCKED: USER  
DOCKED: USER    Estimated Free Energy of Binding    =  -12.08 kcal/mol  [=(1)+(2)+(3)-(4)]
DOCKED: USER    Estimated Inhibition Constant, Ki   =    1.40 nM (nanomolar)  [Temperature = 298.15 K]
DOCKED: USER    
DOCKED: USER    (1) Final Intermolecular Energy     =  -13.87 kcal/mol
DOCKED: USER        vdW + Hbond + desolv Energy     =  -13.87 kcal/mol
DOCKED: USER        Electrostatic Energy            =   +0.00 kcal/mol
DOCKED: USER    (2) Final Total Internal Energy     =   -1.68 kcal/mol
DOCKED: USER    (3) Torsional Free Energy           =   +1.79 kcal/mol
DOCKED: USER    (4) Unbound System's Energy  [=(2)] =   -1.68 kcal/mol
DOCKED: USER    
DOCKED: USER    
DOCKED: USER    NEWDPF move ligand.dum.pdbqt
DOCKED: USER    NEWDPF about 0.320000 0.169000 0.303000
DOCKED: USER    NEWDPF tran0 35.747764 13.217183 122.243755
DOCKED: USER    NEWDPF quaternion0 0.781966 -0.385153 0.014519 -0.489873
DOCKED: USER    NEWDPF axisangle0 0.896962 -0.441794 0.016654 -121.335477
DOCKED: USER    NEWDPF quat0 0.896962 -0.441794 0.016654 -121.335477
DOCKED: USER    NEWDPF dihe0 7.73 146.96 105.19 123.10 102.46 -108.63 
DOCKED: USER  keepresnum = 1 
DOCKED: USER  
DOCKED: REMARK  Name = 
DOCKED: REMARK  6 active torsions:
DOCKED: REMARK  status: ('A' for Active; 'I' for Inactive)
DOCKED: REMARK    1  A    between atoms: S_2  and  N_3
DOCKED: REMARK    2  A    between atoms: S_2  and  C_10
DOCKED: REMARK    3  A    between atoms: N_3  and  C_4
DOCKED: REMARK    4  A    between atoms: C_12  and  C_13
DOCKED: REMARK    5  A    between atoms: C_14  and  C_15
DOCKED: REMARK    6  A    between atoms: N_16  and  O_17
DOCKED: REMARK                            x       y       z     vdW  Elec       q    Type
DOCKED: REMARK                         _______ _______ _______ _____ _____    ______ ____
DOCKED: USER                              x       y       z     vdW  Elec       q    Type
DOCKED: USER                           _______ _______ _______ _____ _____    ______ ____
DOCKED: ROOT
DOCKED: ATOM      1  C   UNL     1      35.940  15.138 123.589 -0.43 -0.00    +0.000 A 
DOCKED: ATOM      2  C   UNL     1      36.086  13.803 123.188 -0.44 -0.00    +0.000 A 
DOCKED: ATOM      3  C   UNL     1      37.326  13.320 122.735 -0.49 -0.00    +0.000 A 
DOCKED: ATOM      4  C   UNL     1      38.419  14.208 122.674 -0.41 -0.00    +0.000 A 
DOCKED: ATOM      5  C   UNL     1      38.274  15.537 123.081 -0.29 -0.00    +0.000 A 
DOCKED: ATOM      6  C   UNL     1      37.041  16.001 123.542 -0.29 -0.00    +0.000 A 
DOCKED: ATOM      7  CM  UNL     1      37.181  14.668 123.135 +0.00 -0.00    +0.000 AC
DOCKED: ENDROOT
DOCKED: BRANCH   1   8
DOCKED: ATOM      8  O   UNL     1      34.294  15.683 125.645 -0.67 -0.00    +0.000 OA
DOCKED: ATOM      9  S   UNL     1      34.374  15.724 124.145 -0.73 -0.00    +0.000 S 
DOCKED: ATOM     10  O   UNL     1      33.299  14.846 123.572 -0.57 -0.00    +0.000 OA
DOCKED: BRANCH   8  10
DOCKED: ATOM     11  N   UNL     1      34.123  17.357 123.609 -0.41 -0.00    +0.000 N 
DOCKED: ATOM     12  H   UNL     1      33.832  18.021 124.275 -0.02 -0.00    +0.000 HD
DOCKED: BRANCH  10  12
DOCKED: ATOM     13  C   UNL     1      34.316  17.796 122.252 -0.34 -0.00    +0.000 A 
DOCKED: ATOM     14  C   UNL     1      33.256  17.844 121.326 -0.24 -0.00    +0.000 A 
DOCKED: ATOM     15  C   UNL     1      33.479  18.285 120.018 -0.29 -0.00    +0.000 A 
DOCKED: ATOM     16  C   UNL     1      34.759  18.676 119.620 -0.21 -0.00    +0.000 A 
DOCKED: ATOM     17  C   UNL     1      35.819  18.625 120.527 -0.18 -0.00    +0.000 A 
DOCKED: ATOM     18  C   UNL     1      35.600  18.187 121.836 -0.24 -0.00    +0.000 A 
DOCKED: ATOM     19  CM  UNL     1      34.538  18.236 120.930 +0.00 -0.00    +0.000 AC
DOCKED: ENDBRANCH  10  12
DOCKED: ENDBRANCH   8  10
DOCKED: ENDBRANCH   1   8
DOCKED: BRANCH   3  18
DOCKED: ATOM     20  C   UNL     1      37.419  11.904 122.302 -0.43 -0.00    +0.000 C 
DOCKED: ATOM     21  C   UNL     1      36.741  10.902 122.884 -0.67 -0.00    +0.000 C 
DOCKED: BRANCH  19  20
DOCKED: ATOM     22  C   UNL     1      36.838   9.494 122.449 -0.68 -0.00    +0.000 C 
DOCKED: ATOM     23  N   UNL     1      37.114   8.424 123.363 -0.69 -0.00    +0.000 N 
DOCKED: ATOM     24  O   UNL     1      36.698   9.233 121.223 -2.61 -0.00    +0.000 OA
DOCKED: ATOM     25  H   UNL     1      37.339   8.625 124.300 -0.53 -0.00    +0.000 HD
DOCKED: BRANCH  21  24
DOCKED: ATOM     26  O   UNL     1      37.066   7.137 122.941 -1.89 -0.00    +0.000 OA
DOCKED: ATOM     27  H   UNL     1      36.953   7.117 121.978 -0.10 -0.00    +0.000 HD
DOCKED: ENDBRANCH  21  24
DOCKED: ENDBRANCH  19  20
DOCKED: ENDBRANCH   3  18
DOCKED: TORSDOF 6DOCKED: TER
DOCKED: ENDMDL
________________________________________________________________________________


	BEGINNING GENETIC ALGORITHM DOCKING 2 of 100
Run: 2 Seed: 1781824261 1625171653 [ Run 2 of 100 GA/GALS ]
Beginning LAMARCKIAN GENETIC ALGORITHM (LGA), with a maximum of 2500000 energy evaluations.

Final-Value: -14.736


	FINAL GENETIC ALGORITHM DOCKED STATE
	_______________________________________________


Detailed state:  trans 37.725 13.193 122.029 quatxyzw -0.315747 0.698804 -0.632184 -0.110999 center 0.320 0.169 0.303 ntor 6 15.1156 15.1124 -76.0538 141.5446 9.9157 -26.8526
State:	 37.725  13.193 122.029  -0.318  0.703 -0.636 -167.254     15.12   15.11  -76.05  141.54    9.92  -26.85

DOCKED: MODEL        2
DOCKED: USER    Run = 2
DOCKED: USER    DPF = ligand_dock.biased.dpf
DOCKED: USER  
DOCKED: USER    Estimated Free Energy of Binding    =  -11.07 kcal/mol  [=(1)+(2)+(3)-(4)]
DOCKED: USER    Estimated Inhibition Constant, Ki   =    7.73 nM (nanomolar)  [Temperature = 298.15 K]
DOCKED: USER    
DOCKED: USER    (1) Final Intermolecular Energy     =  -12.86 kcal/mol
DOCKED: USER        vdW + Hbond + desolv Energy     =  -12.86 kcal/mol
DOCKED: USER        Electrostatic Energy            =   +0.00 kcal/mol
DOCKED: USER    (2) Final Total Internal Energy     =   -1.88 kcal/mol
DOCKED: USER    (3) Torsional Free Energy           =   +1.79 kcal/mol
DOCKED: USER    (4) Unbound System's Energy  [=(2)] =   -1.88 kcal/mol
DOCKED: USER    
DOCKED: USER    
DOCKED: USER    NEWDPF move ligand.dum.pdbqt
DOCKED: USER    NEWDPF about 0.320000 0.169000 0.303000
DOCKED: USER    NEWDPF tran0 37.725330 13.192995 122.028985
DOCKED: USER    NEWDPF quaternion0 -0.315747 0.698804 -0.632184 -0.110999
DOCKED: USER    NEWDPF axisangle0 -0.317711 0.703149 -0.636115 -167.254203
DOCKED: USER    NEWDPF quat0 -0.317711 0.703149 -0.636115 -167.254203
DOCKED: USER    NEWDPF dihe0 15.12 15.11 -76.05 141.54 9.92 -26.85 
DOCKED: USER  keepresnum = 1 
DOCKED: USER  
DOCKED: REMARK  Name = 
DOCKED: REMARK  6 active torsions:
DOCKED: REMARK  status: ('A' for Active; 'I' for Inactive)
DOCKED: REMARK    1  A    between atoms: S_2  and  N_3
DOCKED: REMARK    2  A    between atoms: S_2  and  C_10
DOCKED: REMARK    3  A    between atoms: N_3  and  C_4
DOCKED: REMARK    4  A    between atoms: C_12  and  C_13
DOCKED: REMARK    5  A    between atoms: C_14  and  C_15
DOCKED: REMARK    6  A    between atoms: N_16  and  O_17
DOCKED: REMARK                            x       y       z     vdW  Elec       q    Type
DOCKED: REMARK                         _______ _______ _______ _____ _____    ______ ____
DOCKED: USER                              x       y       z     vdW  Elec       q    Type
DOCKED: USER                           _______ _______ _______ _____ _____    ______ ____
DOCKED: ROOT
DOCKED: ATOM      1  C   UNL     1      36.685  15.297 121.869 -0.22 -0.00    +0.000 A 
DOCKED: ATOM      2  C   UNL     1      36.812  13.903 121.926 -0.30 -0.00    +0.000 A 
DOCKED: ATOM      3  C   UNL     1      36.451  13.196 123.086 -0.53 -0.00    +0.000 A 
DOCKED: ATOM      4  C   UNL     1      35.976  13.917 124.201 -0.38 -0.00    +0.000 A 
DOCKED: ATOM      5  C   UNL     1      35.844  15.307 124.140 -0.40 -0.00    +0.000 A 
DOCKED: ATOM      6  C   UNL     1      36.192  15.996 122.977 -0.32 -0.00    +0.000 A 
DOCKED: ATOM      7  CM  UNL     1      36.326  14.603 123.033 +0.00 -0.00    +0.000 AC
DOCKED: ENDROOT
DOCKED: BRANCH   1   8
DOCKED: ATOM      8  O   UNL     1      36.888  17.636 120.557 -0.13 -0.00    +0.000 OA
DOCKED: ATOM      9  S   UNL     1      37.152  16.164 120.408 -0.24 -0.00    +0.000 S 
DOCKED: ATOM     10  O   UNL     1      36.348  15.635 119.256 -0.22 -0.00    +0.000 OA
DOCKED: BRANCH   8  10
DOCKED: ATOM     11  N   UNL     1      38.842  15.923 120.084 -0.15 -0.00    +0.000 N 
DOCKED: ATOM     12  H   UNL     1      39.113  15.745 119.155 -0.01 -0.00    +0.000 HD
DOCKED: BRANCH  10  12
DOCKED: ATOM     13  C   UNL     1      39.867  15.968 121.093 -0.20 -0.00    +0.000 A 
DOCKED: ATOM     14  C   UNL     1      40.493  17.173 121.469 -0.13 -0.00    +0.000 A 
DOCKED: ATOM     15  C   UNL     1      41.479  17.179 122.460 -0.24 -0.00    +0.000 A 
DOCKED: ATOM     16  C   UNL     1      41.854  15.986 123.082 -0.39 -0.00    +0.000 A 
DOCKED: ATOM     17  C   UNL     1      41.247  14.785 122.712 -0.50 -0.00    +0.000 A 
DOCKED: ATOM     18  C   UNL     1      40.259  14.774 121.723 -0.29 -0.00    +0.000 A 
DOCKED: ATOM     19  CM  UNL     1      40.866  15.978 122.090 +0.00 -0.00    +0.000 AC
DOCKED: ENDBRANCH  10  12
DOCKED: ENDBRANCH   8  10
DOCKED: ENDBRANCH   1   8
DOCKED: BRANCH   3  18
DOCKED: ATOM     20  C   UNL     1      36.626  11.723 123.101 -0.69 -0.00    +0.000 C 
DOCKED: ATOM     21  C   UNL     1      36.783  10.982 121.993 -0.61 -0.00    +0.000 C 
DOCKED: BRANCH  19  20
DOCKED: ATOM     22  C   UNL     1      36.957   9.514 122.013 -0.64 -0.00    +0.000 C 
DOCKED: ATOM     23  N   UNL     1      37.037   8.766 123.233 -0.67 -0.00    +0.000 N 
DOCKED: ATOM     24  O   UNL     1      37.066   8.909 120.913 -2.72 -0.00    +0.000 OA
DOCKED: ATOM     25  H   UNL     1      37.069   9.238 124.097 -0.55 -0.00    +0.000 HD
DOCKED: BRANCH  21  24
DOCKED: ATOM     26  O   UNL     1      37.067   7.412 123.201 -2.18 -0.00    +0.000 OA
DOCKED: ATOM     27  H   UNL     1      37.267   7.114 122.300 -0.16 -0.00    +0.000 HD
DOCKED: ENDBRANCH  21  24
DOCKED: ENDBRANCH  19  20
DOCKED: ENDBRANCH   3  18
DOCKED: TORSDOF 6DOCKED: TER
DOCKED: ENDMDL
________________________________________________________________________________


	BEGINNING GENETIC ALGORITHM DOCKING 3 of 100
Run: 3 Seed: 1520957146 1219292498 [ Run 3 of 100 GA/GALS ]
Beginning LAMARCKIAN GENETIC ALGORITHM (LGA), with a maximum of 2500000 energy evaluations.

Final-Value: -14.787


	FINAL GENETIC ALGORITHM DOCKED STATE
	_______________________________________________


Detailed state:  trans 38.268 12.719 123.204 quatxyzw -0.024568 -0.654275 0.706987 0.267376 center 0.320 0.169 0.303 ntor 6 9.2591 -41.1104 142.2580 140.4986 -143.9927 -105.2831
State:	 38.268  12.719 123.204  -0.025 -0.679  0.734 148.984      9.26  -41.11  142.26  140.50 -143.99 -105.28

DOCKED: MODEL        3
DOCKED: USER    Run = 3
DOCKED: USER    DPF = ligand_dock.biased.dpf
DOCKED: USER  
DOCKED: USER    Estimated Free Energy of Binding    =  -11.52 kcal/mol  [=(1)+(2)+(3)-(4)]
DOCKED: USER    Estimated Inhibition Constant, Ki   =    3.62 nM (nanomolar)  [Temperature = 298.15 K]
DOCKED: USER    
DOCKED: USER    (1) Final Intermolecular Energy     =  -13.31 kcal/mol
DOCKED: USER        vdW + Hbond + desolv Energy     =  -13.31 kcal/mol
DOCKED: USER        Electrostatic Energy            =   +0.00 kcal/mol
DOCKED: USER    (2) Final Total Internal Energy     =   -1.48 kcal/mol
DOCKED: USER    (3) Torsional Free Energy           =   +1.79 kcal/mol
DOCKED: USER    (4) Unbound System's Energy  [=(2)] =   -1.48 kcal/mol
DOCKED: USER    
DOCKED: USER    
DOCKED: USER    NEWDPF move ligand.dum.pdbqt
DOCKED: USER    NEWDPF about 0.320000 0.169000 0.303000
DOCKED: USER    NEWDPF tran0 38.267822 12.718947 123.203538
DOCKED: USER    NEWDPF quaternion0 -0.024568 -0.654275 0.706987 0.267376
DOCKED: USER    NEWDPF axisangle0 -0.025496 -0.678996 0.733699 148.983626
DOCKED: USER    NEWDPF quat0 -0.025496 -0.678996 0.733699 148.983626
DOCKED: USER    NEWDPF dihe0 9.26 -41.11 142.26 140.50 -143.99 -105.28 
DOCKED: USER  keepresnum = 1 
DOCKED: USER  
DOCKED: REMARK  Name = 
DOCKED: REMARK  6 active torsions:
DOCKED: REMARK  status: ('A' for Active; 'I' for Inactive)
DOCKED: REMARK    1  A    between atoms: S_2  and  N_3
DOCKED: REMARK    2  A    between atoms: S_2  and  C_10
DOCKED: REMARK    3  A    between atoms: N_3  and  C_4
DOCKED: REMARK    4  A    between atoms: C_12  and  C_13
DOCKED: REMARK    5  A    between atoms: C_14  and  C_15
DOCKED: REMARK    6  A    between atoms: N_16  and  O_17
DOCKED: REMARK                            x       y       z     vdW  Elec       q    Type
DOCKED: REMARK                         _______ _______ _______ _____ _____    ______ ____
DOCKED: USER                              x       y       z     vdW  Elec       q    Type
DOCKED: USER                           _______ _______ _______ _____ _____    ______ ____
DOCKED: ROOT
DOCKED: ATOM      1  C   UNL     1      38.138  14.997 122.630 -0.35 -0.00    +0.000 A 
DOCKED: ATOM      2  C   UNL     1      37.853  13.625 122.606 -0.44 -0.00    +0.000 A 
DOCKED: ATOM      3  C   UNL     1      36.664  13.129 123.167 -0.54 -0.00    +0.000 A 
DOCKED: ATOM      4  C   UNL     1      35.767  14.034 123.771 -0.49 -0.00    +0.000 A 
DOCKED: ATOM      5  C   UNL     1      36.049  15.403 123.786 -0.41 -0.00    +0.000 A 
DOCKED: ATOM      6  C   UNL     1      37.228  15.885 123.214 -0.30 -0.00    +0.000 A 
DOCKED: ATOM      7  CM  UNL     1      36.950  14.512 123.196 +0.00 -0.00    +0.000 AC
DOCKED: ENDROOT
DOCKED: BRANCH   1   8
DOCKED: ATOM      8  O   UNL     1      39.400  16.148 120.552 -0.17 -0.00    +0.000 OA
DOCKED: ATOM      9  S   UNL     1      39.639  15.596 121.930 -0.40 -0.00    +0.000 S 
DOCKED: ATOM     10  O   UNL     1      40.617  14.460 121.839 -1.03 -0.00    +0.000 OA
DOCKED: BRANCH   8  10
DOCKED: ATOM     11  N   UNL     1      40.308  16.847 122.932 -0.25 -0.00    +0.000 N 
DOCKED: ATOM     12  H   UNL     1      39.719  17.273 123.595 -0.01 -0.00    +0.000 HD
DOCKED: BRANCH  10  12
DOCKED: ATOM     13  C   UNL     1      41.673  17.298 122.850 -0.28 -0.00    +0.000 A 
DOCKED: ATOM     14  C   UNL     1      42.004  18.665 122.770 -0.15 -0.00    +0.000 A 
DOCKED: ATOM     15  C   UNL     1      43.342  19.065 122.701 -0.14 -0.00    +0.000 A 
DOCKED: ATOM     16  C   UNL     1      44.360  18.110 122.705 -0.22 -0.00    +0.000 A 
DOCKED: ATOM     17  C   UNL     1      44.044  16.752 122.775 -0.28 -0.00    +0.000 A 
DOCKED: ATOM     18  C   UNL     1      42.707  16.347 122.847 -0.40 -0.00    +0.000 A 
DOCKED: ATOM     19  CM  UNL     1      43.022  17.706 122.775 +0.00 -0.00    +0.000 AC
DOCKED: ENDBRANCH  10  12
DOCKED: ENDBRANCH   8  10
DOCKED: ENDBRANCH   1   8
DOCKED: BRANCH   3  18
DOCKED: ATOM     20  C   UNL     1      36.423  11.665 123.135 -0.70 -0.00    +0.000 C 
DOCKED: ATOM     21  C   UNL     1      37.068  10.823 122.313 -0.55 -0.00    +0.000 C 
DOCKED: BRANCH  19  20
DOCKED: ATOM     22  C   UNL     1      36.824   9.366 122.284 -0.69 -0.00    +0.000 C 
DOCKED: ATOM     23  N   UNL     1      37.014   8.532 123.435 -0.67 -0.00    +0.000 N 
DOCKED: ATOM     24  O   UNL     1      36.464   8.839 121.198 -2.35 -0.00    +0.000 OA
DOCKED: ATOM     25  H   UNL     1      37.405   8.910 124.256 -0.59 -0.00    +0.000 HD
DOCKED: BRANCH  21  24
DOCKED: ATOM     26  O   UNL     1      36.656   7.226 123.397 -1.84 -0.00    +0.000 OA
DOCKED: ATOM     27  H   UNL     1      36.429   6.980 122.488 -0.04 -0.00    +0.000 HD
DOCKED: ENDBRANCH  21  24
DOCKED: ENDBRANCH  19  20
DOCKED: ENDBRANCH   3  18
DOCKED: TORSDOF 6DOCKED: TER
DOCKED: ENDMDL
________________________________________________________________________________


	BEGINNING GENETIC ALGORITHM DOCKING 4 of 100
Run: 4 Seed: 271064551 475581896 [ Run 4 of 100 GA/GALS ]
Beginning LAMARCKIAN GENETIC ALGORITHM (LGA), with a maximum of 2500000 energy evaluations.

Final-Value: -15.238


	FINAL GENETIC ALGORITHM DOCKED STATE
	_______________________________________________


Detailed state:  trans 38.347 13.037 123.670 quatxyzw -0.007696 -0.628834 0.672585 0.390050 center 0.320 0.169 0.303 ntor 6 25.3498 10.1835 125.8241 88.3875 48.5480 116.6626
State:	 38.347  13.037 123.670  -0.008 -0.683  0.730 134.085     25.35   10.18  125.82   88.39   48.55  116.66

DOCKED: MODEL        4
DOCKED: USER    Run = 4
DOCKED: USER    DPF = ligand_dock.biased.dpf
DOCKED: USER  
DOCKED: USER    Estimated Free Energy of Binding    =  -11.48 kcal/mol  [=(1)+(2)+(3)-(4)]
DOCKED: USER    Estimated Inhibition Constant, Ki   =    3.88 nM (nanomolar)  [Temperature = 298.15 K]
DOCKED: USER    
DOCKED: USER    (1) Final Intermolecular Energy     =  -13.27 kcal/mol
DOCKED: USER        vdW + Hbond + desolv Energy     =  -13.27 kcal/mol
DOCKED: USER        Electrostatic Energy            =   +0.00 kcal/mol
DOCKED: USER    (2) Final Total Internal Energy     =   -1.97 kcal/mol
DOCKED: USER    (3) Torsional Free Energy           =   +1.79 kcal/mol
DOCKED: USER    (4) Unbound System's Energy  [=(2)] =   -1.97 kcal/mol
DOCKED: USER    
DOCKED: USER    
DOCKED: USER    NEWDPF move ligand.dum.pdbqt
DOCKED: USER    NEWDPF about 0.320000 0.169000 0.303000
DOCKED: USER    NEWDPF tran0 38.347339 13.037286 123.670166
DOCKED: USER    NEWDPF quaternion0 -0.007696 -0.628834 0.672585 0.390050
DOCKED: USER    NEWDPF axisangle0 -0.008358 -0.682926 0.730440 134.084752
DOCKED: USER    NEWDPF quat0 -0.008358 -0.682926 0.730440 134.084752
DOCKED: USER    NEWDPF dihe0 25.35 10.18 125.82 88.39 48.55 116.66 
DOCKED: USER  keepresnum = 1 
DOCKED: USER  
DOCKED: REMARK  Name = 
DOCKED: REMARK  6 active torsions:
DOCKED: REMARK  status: ('A' for Active; 'I' for Inactive)
DOCKED: REMARK    1  A    between atoms: S_2  and  N_3
DOCKED: REMARK    2  A    between atoms: S_2  and  C_10
DOCKED: REMARK    3  A    between atoms: N_3  and  C_4
DOCKED: REMARK    4  A    between atoms: C_12  and  C_13
DOCKED: REMARK    5  A    between atoms: C_14  and  C_15
DOCKED: REMARK    6  A    between atoms: N_16  and  O_17
DOCKED: REMARK                            x       y       z     vdW  Elec       q    Type
DOCKED: REMARK                         _______ _______ _______ _____ _____    ______ ____
DOCKED: USER                              x       y       z     vdW  Elec       q    Type
DOCKED: USER                           _______ _______ _______ _____ _____    ______ ____
DOCKED: ROOT
DOCKED: ATOM      1  C   UNL     1      37.829  15.242 123.033 -0.34 -0.00    +0.000 A 
DOCKED: ATOM      2  C   UNL     1      37.847  13.841 122.997 -0.46 -0.00    +0.000 A 
DOCKED: ATOM      3  C   UNL     1      36.718  13.099 123.384 -0.55 -0.00    +0.000 A 
DOCKED: ATOM      4  C   UNL     1      35.570  13.788 123.826 -0.46 -0.00    +0.000 A 
DOCKED: ATOM      5  C   UNL     1      35.552  15.186 123.854 -0.47 -0.00    +0.000 A 
DOCKED: ATOM      6  C   UNL     1      36.675  15.912 123.454 -0.33 -0.00    +0.000 A 
DOCKED: ATOM      7  CM  UNL     1      36.698  14.511 123.425 +0.00 -0.00    +0.000 AC
DOCKED: ENDROOT
DOCKED: BRANCH   1   8
DOCKED: ATOM      8  O   UNL     1      40.510  15.466 123.028 -0.50 -0.00    +0.000 OA
DOCKED: ATOM      9  S   UNL     1      39.259  16.152 122.553 -0.36 -0.00    +0.000 S 
DOCKED: ATOM     10  O   UNL     1      39.188  17.521 123.166 -0.21 -0.00    +0.000 OA
DOCKED: BRANCH   8  10
DOCKED: ATOM     11  N   UNL     1      39.319  16.302 120.824 -0.15 -0.00    +0.000 N 
DOCKED: ATOM     12  H   UNL     1      40.038  16.849 120.432 +0.00 -0.00    +0.000 HD
DOCKED: BRANCH  10  12
DOCKED: ATOM     13  C   UNL     1      38.382  15.675 119.930 -0.17 -0.00    +0.000 A 
DOCKED: ATOM     14  C   UNL     1      37.494  16.424 119.133 -0.12 -0.00    +0.000 A 
DOCKED: ATOM     15  C   UNL     1      36.603  15.780 118.270 -0.17 -0.00    +0.000 A 
DOCKED: ATOM     16  C   UNL     1      36.584  14.385 118.196 -0.31 -0.00    +0.000 A 
DOCKED: ATOM     17  C   UNL     1      37.453  13.632 118.987 -0.36 -0.00    +0.000 A 
DOCKED: ATOM     18  C   UNL     1      38.347  14.273 119.851 -0.22 -0.00    +0.000 A 
DOCKED: ATOM     19  CM  UNL     1      37.477  15.028 119.061 +0.00 -0.00    +0.000 AC
DOCKED: ENDBRANCH  10  12
DOCKED: ENDBRANCH   8  10
DOCKED: ENDBRANCH   1   8
DOCKED: BRANCH   3  18
DOCKED: ATOM     20  C   UNL     1      36.798  11.618 123.349 -0.69 -0.00    +0.000 C 
DOCKED: ATOM     21  C   UNL     1      36.845  10.903 122.214 -0.61 -0.00    +0.000 C 
DOCKED: BRANCH  19  20
DOCKED: ATOM     22  C   UNL     1      36.925   9.428 122.184 -0.66 -0.00    +0.000 C 
DOCKED: ATOM     23  N   UNL     1      37.128   8.645 123.368 -0.65 -0.00    +0.000 N 
DOCKED: ATOM     24  O   UNL     1      36.837   8.845 121.070 -2.65 -0.00    +0.000 OA
DOCKED: ATOM     25  H   UNL     1      37.313   9.091 124.226 -0.60 -0.00    +0.000 HD
DOCKED: BRANCH  21  24
DOCKED: ATOM     26  O   UNL     1      37.067   7.292 123.309 -2.08 -0.00    +0.000 OA
DOCKED: ATOM     27  H   UNL     1      37.278   6.998 122.410 -0.18 -0.00    +0.000 HD
DOCKED: ENDBRANCH  21  24
DOCKED: ENDBRANCH  19  20
DOCKED: ENDBRANCH   3  18
DOCKED: TORSDOF 6DOCKED: TER
DOCKED: ENDMDL
________________________________________________________________________________


	BEGINNING GENETIC ALGORITHM DOCKING 5 of 100
Run: 5 Seed: 592103710 455993908 [ Run 5 of 100 GA/GALS ]
Beginning LAMARCKIAN GENETIC ALGORITHM (LGA), with a maximum of 2500000 energy evaluations.

Final-Value: -15.272


	FINAL GENETIC ALGORITHM DOCKED STATE
	_______________________________________________


Detailed state:  trans 38.218 12.835 123.424 quatxyzw 0.005486 0.656410 -0.683171 -0.319959 center 0.320 0.169 0.303 ntor 6 17.1132 -23.7973 112.3716 126.1632 67.6938 94.5163
State:	 38.218  12.835 123.424   0.006  0.693 -0.721 -142.679     17.11  -23.80  112.37  126.16   67.69   94.52

DOCKED: MODEL        5
DOCKED: USER    Run = 5
DOCKED: USER    DPF = ligand_dock.biased.dpf
DOCKED: USER  
DOCKED: USER    Estimated Free Energy of Binding    =  -11.47 kcal/mol  [=(1)+(2)+(3)-(4)]
DOCKED: USER    Estimated Inhibition Constant, Ki   =    3.90 nM (nanomolar)  [Temperature = 298.15 K]
DOCKED: USER    
DOCKED: USER    (1) Final Intermolecular Energy     =  -13.26 kcal/mol
DOCKED: USER        vdW + Hbond + desolv Energy     =  -13.26 kcal/mol
DOCKED: USER        Electrostatic Energy            =   +0.00 kcal/mol
DOCKED: USER    (2) Final Total Internal Energy     =   -2.01 kcal/mol
DOCKED: USER    (3) Torsional Free Energy           =   +1.79 kcal/mol
DOCKED: USER    (4) Unbound System's Energy  [=(2)] =   -2.01 kcal/mol
DOCKED: USER    
DOCKED: USER    
DOCKED: USER    NEWDPF move ligand.dum.pdbqt
DOCKED: USER    NEWDPF about 0.320000 0.169000 0.303000
DOCKED: USER    NEWDPF tran0 38.218367 12.834824 123.424000
DOCKED: USER    NEWDPF quaternion0 0.005486 0.656410 -0.683171 -0.319959
DOCKED: USER    NEWDPF axisangle0 0.005791 0.692831 -0.721076 -142.679132
DOCKED: USER    NEWDPF quat0 0.005791 0.692831 -0.721076 -142.679132
DOCKED: USER    NEWDPF dihe0 17.11 -23.80 112.37 126.16 67.69 94.52 
DOCKED: USER  keepresnum = 1 
DOCKED: USER  
DOCKED: REMARK  Name = 
DOCKED: REMARK  6 active torsions:
DOCKED: REMARK  status: ('A' for Active; 'I' for Inactive)
DOCKED: REMARK    1  A    between atoms: S_2  and  N_3
DOCKED: REMARK    2  A    between atoms: S_2  and  C_10
DOCKED: REMARK    3  A    between atoms: N_3  and  C_4
DOCKED: REMARK    4  A    between atoms: C_12  and  C_13
DOCKED: REMARK    5  A    between atoms: C_14  and  C_15
DOCKED: REMARK    6  A    between atoms: N_16  and  O_17
DOCKED: REMARK                            x       y       z     vdW  Elec       q    Type
DOCKED: REMARK                         _______ _______ _______ _____ _____    ______ ____
DOCKED: USER                              x       y       z     vdW  Elec       q    Type
DOCKED: USER                           _______ _______ _______ _____ _____    ______ ____
DOCKED: ROOT
DOCKED: ATOM      1  C   UNL     1      37.857  15.097 122.889 -0.35 -0.00    +0.000 A 
DOCKED: ATOM      2  C   UNL     1      37.729  13.703 122.827 -0.46 -0.00    +0.000 A 
DOCKED: ATOM      3  C   UNL     1      36.581  13.064 123.326 -0.55 -0.00    +0.000 A 
DOCKED: ATOM      4  C   UNL     1      35.565  13.849 123.908 -0.44 -0.00    +0.000 A 
DOCKED: ATOM      5  C   UNL     1      35.691  15.240 123.962 -0.44 -0.00    +0.000 A 
DOCKED: ATOM      6  C   UNL     1      36.829  15.864 123.450 -0.32 -0.00    +0.000 A 
DOCKED: ATOM      7  CM  UNL     1      36.708  14.469 123.393 +0.00 -0.00    +0.000 AC
DOCKED: ENDROOT
DOCKED: BRANCH   1   8
DOCKED: ATOM      8  O   UNL     1      40.527  15.397 123.003 -0.52 -0.00    +0.000 OA
DOCKED: ATOM      9  S   UNL     1      39.308  15.876 122.265 -0.38 -0.00    +0.000 S 
DOCKED: ATOM     10  O   UNL     1      39.176  17.361 122.449 -0.16 -0.00    +0.000 OA
DOCKED: BRANCH   8  10
DOCKED: ATOM     11  N   UNL     1      39.497  15.524 120.575 -0.21 -0.00    +0.000 N 
DOCKED: ATOM     12  H   UNL     1      40.369  15.710 120.159 -0.01 -0.00    +0.000 HD
DOCKED: BRANCH  10  12
DOCKED: ATOM     13  C   UNL     1      38.454  14.977 119.747 -0.20 -0.00    +0.000 A 
DOCKED: ATOM     14  C   UNL     1      37.697  15.780 118.872 -0.15 -0.00    +0.000 A 
DOCKED: ATOM     15  C   UNL     1      36.697  15.211 118.077 -0.21 -0.00    +0.000 A 
DOCKED: ATOM     16  C   UNL     1      36.439  13.840 118.149 -0.36 -0.00    +0.000 A 
DOCKED: ATOM     17  C   UNL     1      37.178  13.036 119.019 -0.38 -0.00    +0.000 A 
DOCKED: ATOM     18  C   UNL     1      38.180  13.600 119.815 -0.23 -0.00    +0.000 A 
DOCKED: ATOM     19  CM  UNL     1      37.441  14.407 118.946 +0.00 -0.00    +0.000 AC
DOCKED: ENDBRANCH  10  12
DOCKED: ENDBRANCH   8  10
DOCKED: ENDBRANCH   1   8
DOCKED: BRANCH   3  18
DOCKED: ATOM     20  C   UNL     1      36.508  11.583 123.256 -0.70 -0.00    +0.000 C 
DOCKED: ATOM     21  C   UNL     1      37.060  10.858 122.272 -0.56 -0.00    +0.000 C 
DOCKED: BRANCH  19  20
DOCKED: ATOM     22  C   UNL     1      36.984   9.383 122.206 -0.65 -0.00    +0.000 C 
DOCKED: ATOM     23  N   UNL     1      37.159   8.553 123.362 -0.66 -0.00    +0.000 N 
DOCKED: ATOM     24  O   UNL     1      36.786   8.842 121.085 -2.64 -0.00    +0.000 OA
DOCKED: ATOM     25  H   UNL     1      37.427   8.955 124.219 -0.60 -0.00    +0.000 HD
DOCKED: BRANCH  21  24
DOCKED: ATOM     26  O   UNL     1      36.954   7.216 123.277 -1.97 -0.00    +0.000 OA
DOCKED: ATOM     27  H   UNL     1      36.964   6.946 122.346 -0.11 -0.00    +0.000 HD
DOCKED: ENDBRANCH  21  24
DOCKED: ENDBRANCH  19  20
DOCKED: ENDBRANCH   3  18
DOCKED: TORSDOF 6DOCKED: TER
DOCKED: ENDMDL
________________________________________________________________________________


	BEGINNING GENETIC ALGORITHM DOCKING 6 of 100
Run: 6 Seed: 1391327047 1945996927 [ Run 6 of 100 GA/GALS ]
Beginning LAMARCKIAN GENETIC ALGORITHM (LGA), with a maximum of 2500000 energy evaluations.

Final-Value: -14.517


	FINAL GENETIC ALGORITHM DOCKED STATE
	_______________________________________________


Detailed state:  trans 36.463 13.139 122.039 quatxyzw 0.500376 0.089448 -0.381486 -0.772070 center 0.320 0.169 0.303 ntor 6 25.1073 171.7776 -158.4477 -169.5730 -5.0482 144.9101
State:	 36.463  13.139 122.039   0.787  0.141 -0.600 -78.920     25.11  171.78 -158.45 -169.57   -5.05  144.91

DOCKED: MODEL        6
DOCKED: USER    Run = 6
DOCKED: USER    DPF = ligand_dock.biased.dpf
DOCKED: USER  
DOCKED: USER    Estimated Free Energy of Binding    =  -11.05 kcal/mol  [=(1)+(2)+(3)-(4)]
DOCKED: USER    Estimated Inhibition Constant, Ki   =    7.92 nM (nanomolar)  [Temperature = 298.15 K]
DOCKED: USER    
DOCKED: USER    (1) Final Intermolecular Energy     =  -12.84 kcal/mol
DOCKED: USER        vdW + Hbond + desolv Energy     =  -12.84 kcal/mol
DOCKED: USER        Electrostatic Energy            =   +0.00 kcal/mol
DOCKED: USER    (2) Final Total Internal Energy     =   -1.68 kcal/mol
DOCKED: USER    (3) Torsional Free Energy           =   +1.79 kcal/mol
DOCKED: USER    (4) Unbound System's Energy  [=(2)] =   -1.68 kcal/mol
DOCKED: USER    
DOCKED: USER    
DOCKED: USER    NEWDPF move ligand.dum.pdbqt
DOCKED: USER    NEWDPF about 0.320000 0.169000 0.303000
DOCKED: USER    NEWDPF tran0 36.462732 13.138648 122.038585
DOCKED: USER    NEWDPF quaternion0 0.500376 0.089448 -0.381486 -0.772070
DOCKED: USER    NEWDPF axisangle0 0.787327 0.140744 -0.600256 -78.919810
DOCKED: USER    NEWDPF quat0 0.787327 0.140744 -0.600256 -78.919810
DOCKED: USER    NEWDPF dihe0 25.11 171.78 -158.45 -169.57 -5.05 144.91 
DOCKED: USER  keepresnum = 1 
DOCKED: USER  
DOCKED: REMARK  Name = 
DOCKED: REMARK  6 active torsions:
DOCKED: REMARK  status: ('A' for Active; 'I' for Inactive)
DOCKED: REMARK    1  A    between atoms: S_2  and  N_3
DOCKED: REMARK    2  A    between atoms: S_2  and  C_10
DOCKED: REMARK    3  A    between atoms: N_3  and  C_4
DOCKED: REMARK    4  A    between atoms: C_12  and  C_13
DOCKED: REMARK    5  A    between atoms: C_14  and  C_15
DOCKED: REMARK    6  A    between atoms: N_16  and  O_17
DOCKED: REMARK                            x       y       z     vdW  Elec       q    Type
DOCKED: REMARK                         _______ _______ _______ _____ _____    ______ ____
DOCKED: USER                              x       y       z     vdW  Elec       q    Type
DOCKED: USER                           _______ _______ _______ _____ _____    ______ ____
DOCKED: ROOT
DOCKED: ATOM      1  C   UNL     1      37.015  15.364 121.513 -0.23 -0.00    +0.000 A 
DOCKED: ATOM      2  C   UNL     1      37.164  13.978 121.646 -0.35 -0.00    +0.000 A 
DOCKED: ATOM      3  C   UNL     1      37.119  13.139 120.519 -0.40 -0.00    +0.000 A 
DOCKED: ATOM      4  C   UNL     1      36.904  13.717 119.250 -0.34 -0.00    +0.000 A 
DOCKED: ATOM      5  C   UNL     1      36.763  15.101 119.119 -0.21 -0.00    +0.000 A 
DOCKED: ATOM      6  C   UNL     1      36.823  15.924 120.245 -0.16 -0.00    +0.000 A 
DOCKED: ATOM      7  CM  UNL     1      36.965  14.537 120.382 +0.00 -0.00    +0.000 AC
DOCKED: ENDROOT
DOCKED: BRANCH   1   8
DOCKED: ATOM      8  O   UNL     1      37.026  15.567 124.195 -0.31 -0.00    +0.000 OA
DOCKED: ATOM      9  S   UNL     1      37.065  16.395 122.941 -0.36 -0.00    +0.000 S 
DOCKED: ATOM     10  O   UNL     1      35.873  17.308 122.919 -0.27 -0.00    +0.000 OA
DOCKED: BRANCH   8  10
DOCKED: ATOM     11  N   UNL     1      38.516  17.350 122.939 -0.18 -0.00    +0.000 N 
DOCKED: ATOM     12  H   UNL     1      38.424  18.330 122.963 +0.00 -0.00    +0.000 HD
DOCKED: BRANCH  10  12
DOCKED: ATOM     13  C   UNL     1      39.842  16.794 122.903 -0.24 -0.00    +0.000 A 
DOCKED: ATOM     14  C   UNL     1      40.989  17.584 123.114 -0.24 -0.00    +0.000 A 
DOCKED: ATOM     15  C   UNL     1      42.262  17.006 123.081 -0.35 -0.00    +0.000 A 
DOCKED: ATOM     16  C   UNL     1      42.405  15.640 122.832 -0.40 -0.00    +0.000 A 
DOCKED: ATOM     17  C   UNL     1      41.276  14.848 122.613 -0.50 -0.00    +0.000 A 
DOCKED: ATOM     18  C   UNL     1      40.001  15.421 122.647 -0.33 -0.00    +0.000 A 
DOCKED: ATOM     19  CM  UNL     1      41.129  16.216 122.866 +0.00 -0.00    +0.000 AC
DOCKED: ENDBRANCH  10  12
DOCKED: ENDBRANCH   8  10
DOCKED: ENDBRANCH   1   8
DOCKED: BRANCH   3  18
DOCKED: ATOM     20  C   UNL     1      37.261  11.676 120.719 -0.46 -0.00    +0.000 C 
DOCKED: ATOM     21  C   UNL     1      36.836  11.031 121.816 -0.57 -0.00    +0.000 C 
DOCKED: BRANCH  19  20
DOCKED: ATOM     22  C   UNL     1      36.979   9.573 122.010 -0.63 -0.00    +0.000 C 
DOCKED: ATOM     23  N   UNL     1      37.054   8.975 123.311 -0.62 -0.00    +0.000 N 
DOCKED: ATOM     24  O   UNL     1      37.065   8.837 120.990 -2.70 -0.00    +0.000 OA
DOCKED: ATOM     25  H   UNL     1      37.104   9.546 124.112 -0.56 -0.00    +0.000 HD
DOCKED: BRANCH  21  24
DOCKED: ATOM     26  O   UNL     1      37.056   7.626 123.442 -2.24 -0.00    +0.000 OA
DOCKED: ATOM     27  H   UNL     1      37.394   7.223 122.628 -0.20 -0.00    +0.000 HD
DOCKED: ENDBRANCH  21  24
DOCKED: ENDBRANCH  19  20
DOCKED: ENDBRANCH   3  18
DOCKED: TORSDOF 6DOCKED: TER
DOCKED: ENDMDL
________________________________________________________________________________


	BEGINNING GENETIC ALGORITHM DOCKING 7 of 100
Run: 7 Seed: 798270172 295474567 [ Run 7 of 100 GA/GALS ]
Beginning LAMARCKIAN GENETIC ALGORITHM (LGA), with a maximum of 2500000 energy evaluations.

Final-Value: -15.137


	FINAL GENETIC ALGORITHM DOCKED STATE
	_______________________________________________


Detailed state:  trans 38.442 12.788 123.574 quatxyzw -0.043934 -0.636148 0.695277 0.331626 center 0.320 0.169 0.303 ntor 6 12.8107 -13.7481 -121.0543 111.6443 -0.8795 140.3296
State:	 38.442  12.788 123.574  -0.047 -0.674  0.737 141.265     12.81  -13.75 -121.05  111.64   -0.88  140.33

DOCKED: MODEL        7
DOCKED: USER    Run = 7
DOCKED: USER    DPF = ligand_dock.biased.dpf
DOCKED: USER  
DOCKED: USER    Estimated Free Energy of Binding    =  -11.53 kcal/mol  [=(1)+(2)+(3)-(4)]
DOCKED: USER    Estimated Inhibition Constant, Ki   =    3.52 nM (nanomolar)  [Temperature = 298.15 K]
DOCKED: USER    
DOCKED: USER    (1) Final Intermolecular Energy     =  -13.32 kcal/mol
DOCKED: USER        vdW + Hbond + desolv Energy     =  -13.32 kcal/mol
DOCKED: USER        Electrostatic Energy            =   +0.00 kcal/mol
DOCKED: USER    (2) Final Total Internal Energy     =   -1.81 kcal/mol
DOCKED: USER    (3) Torsional Free Energy           =   +1.79 kcal/mol
DOCKED: USER    (4) Unbound System's Energy  [=(2)] =   -1.81 kcal/mol
DOCKED: USER    
DOCKED: USER    
DOCKED: USER    NEWDPF move ligand.dum.pdbqt
DOCKED: USER    NEWDPF about 0.320000 0.169000 0.303000
DOCKED: USER    NEWDPF tran0 38.441693 12.788296 123.573959
DOCKED: USER    NEWDPF quaternion0 -0.043934 -0.636148 0.695277 0.331626
DOCKED: USER    NEWDPF axisangle0 -0.046569 -0.674306 0.736982 141.265015
DOCKED: USER    NEWDPF quat0 -0.046569 -0.674306 0.736982 141.265015
DOCKED: USER    NEWDPF dihe0 12.81 -13.75 -121.05 111.64 -0.88 140.33 
DOCKED: USER  keepresnum = 1 
DOCKED: USER  
DOCKED: REMARK  Name = 
DOCKED: REMARK  6 active torsions:
DOCKED: REMARK  status: ('A' for Active; 'I' for Inactive)
DOCKED: REMARK    1  A    between atoms: S_2  and  N_3
DOCKED: REMARK    2  A    between atoms: S_2  and  C_10
DOCKED: REMARK    3  A    between atoms: N_3  and  C_4
DOCKED: REMARK    4  A    between atoms: C_12  and  C_13
DOCKED: REMARK    5  A    between atoms: C_14  and  C_15
DOCKED: REMARK    6  A    between atoms: N_16  and  O_17
DOCKED: REMARK                            x       y       z     vdW  Elec       q    Type
DOCKED: REMARK                         _______ _______ _______ _____ _____    ______ ____
DOCKED: USER                              x       y       z     vdW  Elec       q    Type
DOCKED: USER                           _______ _______ _______ _____ _____    ______ ____
DOCKED: ROOT
DOCKED: ATOM      1  C   UNL     1      38.222  15.052 122.972 -0.33 -0.00    +0.000 A 
DOCKED: ATOM      2  C   UNL     1      38.040  13.663 122.924 -0.43 -0.00    +0.000 A 
DOCKED: ATOM      3  C   UNL     1      36.829  13.083 123.340 -0.54 -0.00    +0.000 A 
DOCKED: ATOM      4  C   UNL     1      35.804  13.922 123.824 -0.49 -0.00    +0.000 A 
DOCKED: ATOM      5  C   UNL     1      35.985  15.307 123.864 -0.42 -0.00    +0.000 A 
DOCKED: ATOM      6  C   UNL     1      37.187  15.873 123.435 -0.30 -0.00    +0.000 A 
DOCKED: ATOM      7  CM  UNL     1      37.011  14.483 123.393 +0.00 -0.00    +0.000 AC
DOCKED: ENDROOT
DOCKED: BRANCH   1   8
DOCKED: ATOM      8  O   UNL     1      40.815  14.700 122.349 -0.94 -0.00    +0.000 OA
DOCKED: ATOM      9  S   UNL     1      39.752  15.757 122.454 -0.42 -0.00    +0.000 S 
DOCKED: ATOM     10  O   UNL     1      40.177  16.782 123.466 -0.35 -0.00    +0.000 OA
DOCKED: BRANCH   8  10
DOCKED: ATOM     11  N   UNL     1      39.563  16.525 120.908 -0.14 -0.00    +0.000 N 
DOCKED: ATOM     12  H   UNL     1      39.837  17.466 120.823 +0.00 -0.00    +0.000 HD
DOCKED: BRANCH  10  12
DOCKED: ATOM     13  C   UNL     1      39.030  15.866 119.744 -0.14 -0.00    +0.000 A 
DOCKED: ATOM     14  C   UNL     1      39.661  15.943 118.487 -0.12 -0.00    +0.000 A 
DOCKED: ATOM     15  C   UNL     1      39.118  15.283 117.381 -0.14 -0.00    +0.000 A 
DOCKED: ATOM     16  C   UNL     1      37.940  14.544 117.515 -0.24 -0.00    +0.000 A 
DOCKED: ATOM     17  C   UNL     1      37.301  14.467 118.754 -0.28 -0.00    +0.000 A 
DOCKED: ATOM     18  C   UNL     1      37.842  15.125 119.863 -0.22 -0.00    +0.000 A 
DOCKED: ATOM     19  CM  UNL     1      38.482  15.205 118.624 +0.00 -0.00    +0.000 AC
DOCKED: ENDBRANCH  10  12
DOCKED: ENDBRANCH   8  10
DOCKED: ENDBRANCH   1   8
DOCKED: BRANCH   3  18
DOCKED: ATOM     20  C   UNL     1      36.698  11.606 123.290 -0.70 -0.00    +0.000 C 
DOCKED: ATOM     21  C   UNL     1      37.050  10.864 122.229 -0.56 -0.00    +0.000 C 
DOCKED: BRANCH  19  20
DOCKED: ATOM     22  C   UNL     1      36.917   9.393 122.183 -0.66 -0.00    +0.000 C 
DOCKED: ATOM     23  N   UNL     1      37.057   8.573 123.351 -0.68 -0.00    +0.000 N 
DOCKED: ATOM     24  O   UNL     1      36.701   8.844 121.069 -2.62 -0.00    +0.000 OA
DOCKED: ATOM     25  H   UNL     1      37.338   8.976 124.204 -0.59 -0.00    +0.000 HD
DOCKED: BRANCH  21  24
DOCKED: ATOM     26  O   UNL     1      36.800   7.244 123.284 -1.94 -0.00    +0.000 OA
DOCKED: ATOM     27  H   UNL     1      36.735   6.973 122.356 -0.07 -0.00    +0.000 HD
DOCKED: ENDBRANCH  21  24
DOCKED: ENDBRANCH  19  20
DOCKED: ENDBRANCH   3  18
DOCKED: TORSDOF 6DOCKED: TER
DOCKED: ENDMDL
________________________________________________________________________________


	BEGINNING GENETIC ALGORITHM DOCKING 8 of 100
Run: 8 Seed: 2065342309 517552948 [ Run 8 of 100 GA/GALS ]
Beginning LAMARCKIAN GENETIC ALGORITHM (LGA), with a maximum of 2500000 energy evaluations.

Final-Value: -14.510


	FINAL GENETIC ALGORITHM DOCKED STATE
	_______________________________________________


Detailed state:  trans 35.413 13.517 122.177 quatxyzw -0.737845 0.442100 0.055605 0.506992 center 0.320 0.169 0.303 ntor 6 2.7481 -136.4576 -104.7497 51.7206 -111.9151 178.3186
State:	 35.413  13.517 122.177  -0.856  0.513  0.065 119.073      2.75 -136.46 -104.75   51.72 -111.92  178.32

DOCKED: MODEL        8
DOCKED: USER    Run = 8
DOCKED: USER    DPF = ligand_dock.biased.dpf
DOCKED: USER  
DOCKED: USER    Estimated Free Energy of Binding    =  -11.28 kcal/mol  [=(1)+(2)+(3)-(4)]
DOCKED: USER    Estimated Inhibition Constant, Ki   =    5.42 nM (nanomolar)  [Temperature = 298.15 K]
DOCKED: USER    
DOCKED: USER    (1) Final Intermolecular Energy     =  -13.07 kcal/mol
DOCKED: USER        vdW + Hbond + desolv Energy     =  -13.07 kcal/mol
DOCKED: USER        Electrostatic Energy            =   +0.00 kcal/mol
DOCKED: USER    (2) Final Total Internal Energy     =   -1.44 kcal/mol
DOCKED: USER    (3) Torsional Free Energy           =   +1.79 kcal/mol
DOCKED: USER    (4) Unbound System's Energy  [=(2)] =   -1.44 kcal/mol
DOCKED: USER    
DOCKED: USER    
DOCKED: USER    NEWDPF move ligand.dum.pdbqt
DOCKED: USER    NEWDPF about 0.320000 0.169000 0.303000
DOCKED: USER    NEWDPF tran0 35.412881 13.517397 122.176696
DOCKED: USER    NEWDPF quaternion0 -0.737845 0.442100 0.055605 0.506992
DOCKED: USER    NEWDPF axisangle0 -0.856017 0.512906 0.064510 119.072657
DOCKED: USER    NEWDPF quat0 -0.856017 0.512906 0.064510 119.072657
DOCKED: USER    NEWDPF dihe0 2.75 -136.46 -104.75 51.72 -111.92 178.32 
DOCKED: USER  keepresnum = 1 
DOCKED: USER  
DOCKED: REMARK  Name = 
DOCKED: REMARK  6 active torsions:
DOCKED: REMARK  status: ('A' for Active; 'I' for Inactive)
DOCKED: REMARK    1  A    between atoms: S_2  and  N_3
DOCKED: REMARK    2  A    between atoms: S_2  and  C_10
DOCKED: REMARK    3  A    between atoms: N_3  and  C_4
DOCKED: REMARK    4  A    between atoms: C_12  and  C_13
DOCKED: REMARK    5  A    between atoms: C_14  and  C_15
DOCKED: REMARK    6  A    between atoms: N_16  and  O_17
DOCKED: REMARK                            x       y       z     vdW  Elec       q    Type
DOCKED: REMARK                         _______ _______ _______ _____ _____    ______ ____
DOCKED: USER                              x       y       z     vdW  Elec       q    Type
DOCKED: USER                           _______ _______ _______ _____ _____    ______ ____
DOCKED: ROOT
DOCKED: ATOM      1  C   UNL     1      36.058  15.376 123.467 -0.41 -0.00    +0.000 A 
DOCKED: ATOM      2  C   UNL     1      35.919  14.035 123.086 -0.36 -0.00    +0.000 A 
DOCKED: ATOM      3  C   UNL     1      37.011  13.320 122.564 -0.48 -0.00    +0.000 A 
DOCKED: ATOM      4  C   UNL     1      38.247  13.981 122.414 -0.41 -0.00    +0.000 A 
DOCKED: ATOM      5  C   UNL     1      38.385  15.316 122.802 -0.32 -0.00    +0.000 A 
DOCKED: ATOM      6  C   UNL     1      37.297  16.012 123.332 -0.29 -0.00    +0.000 A 
DOCKED: ATOM      7  CM  UNL     1      37.153  14.673 122.944 +0.00 -0.00    +0.000 AC
DOCKED: ENDROOT
DOCKED: BRANCH   1   8
DOCKED: ATOM      8  O   UNL     1      33.659  15.305 124.682 -0.63 -0.00    +0.000 OA
DOCKED: ATOM      9  S   UNL     1      34.673  16.256 124.110 -0.65 -0.00    +0.000 S 
DOCKED: ATOM     10  O   UNL     1      34.038  17.037 122.996 -0.48 -0.00    +0.000 OA
DOCKED: BRANCH   8  10
DOCKED: ATOM     11  N   UNL     1      35.187  17.351 125.356 -0.30 -0.00    +0.000 N 
DOCKED: ATOM     12  H   UNL     1      36.148  17.552 125.427 -0.02 -0.00    +0.000 HD
DOCKED: BRANCH  10  12
DOCKED: ATOM     13  C   UNL     1      34.292  17.982 126.289 -0.29 -0.00    +0.000 A 
DOCKED: ATOM     14  C   UNL     1      34.112  19.379 126.324 -0.21 -0.00    +0.000 A 
DOCKED: ATOM     15  C   UNL     1      33.226  19.955 127.240 -0.16 -0.00    +0.000 A 
DOCKED: ATOM     16  C   UNL     1      32.517  19.148 128.132 -0.15 -0.00    +0.000 A 
DOCKED: ATOM     17  C   UNL     1      32.693  17.763 128.112 -0.27 -0.00    +0.000 A 
DOCKED: ATOM     18  C   UNL     1      33.577  17.182 127.197 -0.35 -0.00    +0.000 A 
DOCKED: ATOM     19  CM  UNL     1      33.403  18.568 127.215 +0.00 -0.00    +0.000 AC
DOCKED: ENDBRANCH  10  12
DOCKED: ENDBRANCH   8  10
DOCKED: ENDBRANCH   1   8
DOCKED: BRANCH   3  18
DOCKED: ATOM     20  C   UNL     1      36.803  11.909 122.155 -0.60 -0.00    +0.000 C 
DOCKED: ATOM     21  C   UNL     1      37.274  10.858 122.843 -0.33 -0.00    +0.000 C 
DOCKED: BRANCH  19  20
DOCKED: ATOM     22  C   UNL     1      37.064   9.454 122.431 -0.62 -0.00    +0.000 C 
DOCKED: ATOM     23  N   UNL     1      37.081   8.368 123.367 -0.70 -0.00    +0.000 N 
DOCKED: ATOM     24  O   UNL     1      36.892   9.207 121.208 -2.69 -0.00    +0.000 OA
DOCKED: ATOM     25  H   UNL     1      37.327   8.533 124.306 -0.51 -0.00    +0.000 HD
DOCKED: BRANCH  21  24
DOCKED: ATOM     26  O   UNL     1      36.757   7.116 122.964 -1.80 -0.00    +0.000 OA
DOCKED: ATOM     27  H   UNL     1      36.582   7.119 122.010 -0.06 -0.00    +0.000 HD
DOCKED: ENDBRANCH  21  24
DOCKED: ENDBRANCH  19  20
DOCKED: ENDBRANCH   3  18
DOCKED: TORSDOF 6DOCKED: TER
DOCKED: ENDMDL
________________________________________________________________________________


	BEGINNING GENETIC ALGORITHM DOCKING 9 of 100
Run: 9 Seed: 1329378655 1443714574 [ Run 9 of 100 GA/GALS ]
Beginning LAMARCKIAN GENETIC ALGORITHM (LGA), with a maximum of 2500000 energy evaluations.

Final-Value: -14.923


	FINAL GENETIC ALGORITHM DOCKED STATE
	_______________________________________________


Detailed state:  trans 38.336 13.048 123.356 quatxyzw 0.032027 -0.644043 0.681724 0.345593 center 0.320 0.169 0.303 ntor 6 14.9784 2.6367 121.5176 105.4620 -132.8524 -20.9496
State:	 38.336  13.048 123.356   0.034 -0.686  0.726 139.564     14.98    2.64  121.52  105.46 -132.85  -20.95

DOCKED: MODEL        9
DOCKED: USER    Run = 9
DOCKED: USER    DPF = ligand_dock.biased.dpf
DOCKED: USER  
DOCKED: USER    Estimated Free Energy of Binding    =  -11.65 kcal/mol  [=(1)+(2)+(3)-(4)]
DOCKED: USER    Estimated Inhibition Constant, Ki   =    2.90 nM (nanomolar)  [Temperature = 298.15 K]
DOCKED: USER    
DOCKED: USER    (1) Final Intermolecular Energy     =  -13.44 kcal/mol
DOCKED: USER        vdW + Hbond + desolv Energy     =  -13.44 kcal/mol
DOCKED: USER        Electrostatic Energy            =   +0.00 kcal/mol
DOCKED: USER    (2) Final Total Internal Energy     =   -1.49 kcal/mol
DOCKED: USER    (3) Torsional Free Energy           =   +1.79 kcal/mol
DOCKED: USER    (4) Unbound System's Energy  [=(2)] =   -1.49 kcal/mol
DOCKED: USER    
DOCKED: USER    
DOCKED: USER    NEWDPF move ligand.dum.pdbqt
DOCKED: USER    NEWDPF about 0.320000 0.169000 0.303000
DOCKED: USER    NEWDPF tran0 38.336022 13.047740 123.356420
DOCKED: USER    NEWDPF quaternion0 0.032027 -0.644043 0.681724 0.345593
DOCKED: USER    NEWDPF axisangle0 0.034130 -0.686332 0.726487 139.563999
DOCKED: USER    NEWDPF quat0 0.034130 -0.686332 0.726487 139.563999
DOCKED: USER    NEWDPF dihe0 14.98 2.64 121.52 105.46 -132.85 -20.95 
DOCKED: USER  keepresnum = 1 
DOCKED: USER  
DOCKED: REMARK  Name = 
DOCKED: REMARK  6 active torsions:
DOCKED: REMARK  status: ('A' for Active; 'I' for Inactive)
DOCKED: REMARK    1  A    between atoms: S_2  and  N_3
DOCKED: REMARK    2  A    between atoms: S_2  and  C_10
DOCKED: REMARK    3  A    between atoms: N_3  and  C_4
DOCKED: REMARK    4  A    between atoms: C_12  and  C_13
DOCKED: REMARK    5  A    between atoms: C_14  and  C_15
DOCKED: REMARK    6  A    between atoms: N_16  and  O_17
DOCKED: REMARK                            x       y       z     vdW  Elec       q    Type
DOCKED: REMARK                         _______ _______ _______ _____ _____    ______ ____
DOCKED: USER                              x       y       z     vdW  Elec       q    Type
DOCKED: USER                           _______ _______ _______ _____ _____    ______ ____
DOCKED: ROOT
DOCKED: ATOM      1  C   UNL     1      37.779  15.248 122.738 -0.33 -0.00    +0.000 A 
DOCKED: ATOM      2  C   UNL     1      37.770  13.847 122.731 -0.45 -0.00    +0.000 A 
DOCKED: ATOM      3  C   UNL     1      36.685  13.133 123.269 -0.54 -0.00    +0.000 A 
DOCKED: ATOM      4  C   UNL     1      35.610  13.852 123.831 -0.47 -0.00    +0.000 A 
DOCKED: ATOM      5  C   UNL     1      35.617  15.249 123.829 -0.46 -0.00    +0.000 A 
DOCKED: ATOM      6  C   UNL     1      36.694  15.947 123.280 -0.32 -0.00    +0.000 A 
DOCKED: ATOM      7  CM  UNL     1      36.692  14.546 123.279 +0.00 -0.00    +0.000 AC
DOCKED: ENDROOT
DOCKED: BRANCH   1   8
DOCKED: ATOM      8  O   UNL     1      38.990  17.603 122.268 -0.13 -0.00    +0.000 OA
DOCKED: ATOM      9  S   UNL     1      39.154  16.122 122.068 -0.32 -0.00    +0.000 S 
DOCKED: ATOM     10  O   UNL     1      39.240  15.833 120.597 -0.20 -0.00    +0.000 OA
DOCKED: BRANCH   8  10
DOCKED: ATOM     11  N   UNL     1      40.623  15.607 122.839 -0.38 -0.00    +0.000 N 
DOCKED: ATOM     12  H   UNL     1      40.552  14.982 123.596 +0.01 -0.00    +0.000 HD
DOCKED: BRANCH  10  12
DOCKED: ATOM     13  C   UNL     1      41.935  16.039 122.437 -0.40 -0.00    +0.000 A 
DOCKED: ATOM     14  C   UNL     1      42.716  16.899 123.234 -0.34 -0.00    +0.000 A 
DOCKED: ATOM     15  C   UNL     1      43.990  17.290 122.814 -0.28 -0.00    +0.000 A 
DOCKED: ATOM     16  C   UNL     1      44.497  16.834 121.595 -0.25 -0.00    +0.000 A 
DOCKED: ATOM     17  C   UNL     1      43.730  15.988 120.793 -0.25 -0.00    +0.000 A 
DOCKED: ATOM     18  C   UNL     1      42.455  15.593 121.210 -0.25 -0.00    +0.000 A 
DOCKED: ATOM     19  CM  UNL     1      43.221  16.440 122.014 +0.00 -0.00    +0.000 AC
DOCKED: ENDBRANCH  10  12
DOCKED: ENDBRANCH   8  10
DOCKED: ENDBRANCH   1   8
DOCKED: BRANCH   3  18
DOCKED: ATOM     20  C   UNL     1      36.737  11.650 123.256 -0.69 -0.00    +0.000 C 
DOCKED: ATOM     21  C   UNL     1      36.966  10.923 122.152 -0.57 -0.00    +0.000 C 
DOCKED: BRANCH  19  20
DOCKED: ATOM     22  C   UNL     1      37.018   9.446 122.145 -0.63 -0.00    +0.000 C 
DOCKED: ATOM     23  N   UNL     1      37.153   8.677 123.347 -0.64 -0.00    +0.000 N 
DOCKED: ATOM     24  O   UNL     1      36.968   8.850 121.036 -2.68 -0.00    +0.000 OA
DOCKED: ATOM     25  H   UNL     1      37.307   9.131 124.207 -0.60 -0.00    +0.000 HD
DOCKED: BRANCH  21  24
DOCKED: ATOM     26  O   UNL     1      37.066   7.325 123.304 -2.11 -0.00    +0.000 OA
DOCKED: ATOM     27  H   UNL     1      37.150   7.025 122.386 -0.14 -0.00    +0.000 HD
DOCKED: ENDBRANCH  21  24
DOCKED: ENDBRANCH  19  20
DOCKED: ENDBRANCH   3  18
DOCKED: TORSDOF 6DOCKED: TER
DOCKED: ENDMDL
________________________________________________________________________________


	BEGINNING GENETIC ALGORITHM DOCKING 10 of 100
Run: 10 Seed: 618584405 1664083397 [ Run 10 of 100 GA/GALS ]
Beginning LAMARCKIAN GENETIC ALGORITHM (LGA), with a maximum of 2500000 energy evaluations.

Final-Value: -14.334


	FINAL GENETIC ALGORITHM DOCKED STATE
	_______________________________________________


Detailed state:  trans 38.405 13.072 122.592 quatxyzw 0.026414 0.751954 -0.583108 -0.306355 center 0.320 0.169 0.303 ntor 6 17.0632 -147.0165 105.4066 -103.1921 -133.5047 -17.5663
State:	 38.405  13.072 122.592   0.028  0.790 -0.613 -144.321     17.06 -147.02  105.41 -103.19 -133.50  -17.57

DOCKED: MODEL       10
DOCKED: USER    Run = 10
DOCKED: USER    DPF = ligand_dock.biased.dpf
DOCKED: USER  
DOCKED: USER    Estimated Free Energy of Binding    =  -11.10 kcal/mol  [=(1)+(2)+(3)-(4)]
DOCKED: USER    Estimated Inhibition Constant, Ki   =    7.25 nM (nanomolar)  [Temperature = 298.15 K]
DOCKED: USER    
DOCKED: USER    (1) Final Intermolecular Energy     =  -12.89 kcal/mol
DOCKED: USER        vdW + Hbond + desolv Energy     =  -12.89 kcal/mol
DOCKED: USER        Electrostatic Energy            =   +0.00 kcal/mol
DOCKED: USER    (2) Final Total Internal Energy     =   -1.44 kcal/mol
DOCKED: USER    (3) Torsional Free Energy           =   +1.79 kcal/mol
DOCKED: USER    (4) Unbound System's Energy  [=(2)] =   -1.44 kcal/mol
DOCKED: USER    
DOCKED: USER    
DOCKED: USER    NEWDPF move ligand.dum.pdbqt
DOCKED: USER    NEWDPF about 0.320000 0.169000 0.303000
DOCKED: USER    NEWDPF tran0 38.405198 13.072219 122.591971
DOCKED: USER    NEWDPF quaternion0 0.026414 0.751954 -0.583108 -0.306355
DOCKED: USER    NEWDPF axisangle0 0.027749 0.789936 -0.612561 -144.320610
DOCKED: USER    NEWDPF quat0 0.027749 0.789936 -0.612561 -144.320610
DOCKED: USER    NEWDPF dihe0 17.06 -147.02 105.41 -103.19 -133.50 -17.57 
DOCKED: USER  keepresnum = 1 
DOCKED: USER  
DOCKED: REMARK  Name = 
DOCKED: REMARK  6 active torsions:
DOCKED: REMARK  status: ('A' for Active; 'I' for Inactive)
DOCKED: REMARK    1  A    between atoms: S_2  and  N_3
DOCKED: REMARK    2  A    between atoms: S_2  and  C_10
DOCKED: REMARK    3  A    between atoms: N_3  and  C_4
DOCKED: REMARK    4  A    between atoms: C_12  and  C_13
DOCKED: REMARK    5  A    between atoms: C_14  and  C_15
DOCKED: REMARK    6  A    between atoms: N_16  and  O_17
DOCKED: REMARK                            x       y       z     vdW  Elec       q    Type
DOCKED: REMARK                         _______ _______ _______ _____ _____    ______ ____
DOCKED: USER                              x       y       z     vdW  Elec       q    Type
DOCKED: USER                           _______ _______ _______ _____ _____    ______ ____
DOCKED: ROOT
DOCKED: ATOM      1  C   UNL     1      37.989  15.385 122.712 -0.32 -0.00    +0.000 A 
DOCKED: ATOM      2  C   UNL     1      37.876  14.057 122.278 -0.41 -0.00    +0.000 A 
DOCKED: ATOM      3  C   UNL     1      36.763  13.277 122.636 -0.49 -0.00    +0.000 A 
DOCKED: ATOM      4  C   UNL     1      35.768  13.848 123.457 -0.47 -0.00    +0.000 A 
DOCKED: ATOM      5  C   UNL     1      35.880  15.174 123.883 -0.43 -0.00    +0.000 A 
DOCKED: ATOM      6  C   UNL     1      36.983  15.943 123.509 -0.30 -0.00    +0.000 A 
DOCKED: ATOM      7  CM  UNL     1      36.876  14.614 123.079 +0.00 -0.00    +0.000 AC
DOCKED: ENDROOT
DOCKED: BRANCH   1   8
DOCKED: ATOM      8  O   UNL     1      39.395  17.662 122.976 -0.18 -0.00    +0.000 OA
DOCKED: ATOM      9  S   UNL     1      39.397  16.341 122.259 -0.31 -0.00    +0.000 S 
DOCKED: ATOM     10  O   UNL     1      39.358  16.587 120.778 -0.14 -0.00    +0.000 OA
DOCKED: BRANCH   8  10
DOCKED: ATOM     11  N   UNL     1      40.855  15.485 122.657 -0.43 -0.00    +0.000 N 
DOCKED: ATOM     12  H   UNL     1      40.773  14.643 123.161 -0.05 -0.00    +0.000 HD
DOCKED: BRANCH  10  12
DOCKED: ATOM     13  C   UNL     1      42.174  15.932 122.294 -0.40 -0.00    +0.000 A 
DOCKED: ATOM     14  C   UNL     1      42.969  16.701 123.166 -0.35 -0.00    +0.000 A 
DOCKED: ATOM     15  C   UNL     1      44.249  17.109 122.781 -0.30 -0.00    +0.000 A 
DOCKED: ATOM     16  C   UNL     1      44.748  16.760 121.524 -0.24 -0.00    +0.000 A 
DOCKED: ATOM     17  C   UNL     1      43.966  16.005 120.648 -0.24 -0.00    +0.000 A 
DOCKED: ATOM     18  C   UNL     1      42.685  15.593 121.029 -0.22 -0.00    +0.000 A 
DOCKED: ATOM     19  CM  UNL     1      43.465  16.350 121.907 +0.00 -0.00    +0.000 AC
DOCKED: ENDBRANCH  10  12
DOCKED: ENDBRANCH   8  10
DOCKED: ENDBRANCH   1   8
DOCKED: BRANCH   3  18
DOCKED: ATOM     20  C   UNL     1      36.704  11.870 122.168 -0.61 -0.00    +0.000 C 
DOCKED: ATOM     21  C   UNL     1      37.064  10.820 122.920 -0.61 -0.00    +0.000 C 
DOCKED: BRANCH  19  20
DOCKED: ATOM     22  C   UNL     1      37.004   9.421 122.449 -0.64 -0.00    +0.000 C 
DOCKED: ATOM     23  N   UNL     1      37.093   8.304 123.343 -0.71 -0.00    +0.000 N 
DOCKED: ATOM     24  O   UNL     1      36.898   9.209 121.211 -2.69 -0.00    +0.000 OA
DOCKED: ATOM     25  H   UNL     1      37.291   8.453 124.296 -0.49 -0.00    +0.000 HD
DOCKED: BRANCH  21  24
DOCKED: ATOM     26  O   UNL     1      36.904   7.044 122.881 -1.74 -0.00    +0.000 OA
DOCKED: ATOM     27  H   UNL     1      36.988   7.038 121.915 -0.12 -0.00    +0.000 HD
DOCKED: ENDBRANCH  21  24
DOCKED: ENDBRANCH  19  20
DOCKED: ENDBRANCH   3  18
DOCKED: TORSDOF 6DOCKED: TER
DOCKED: ENDMDL
________________________________________________________________________________


	BEGINNING GENETIC ALGORITHM DOCKING 11 of 100
Run: 11 Seed: 53278309 877978900 [ Run 11 of 100 GA/GALS ]
Beginning LAMARCKIAN GENETIC ALGORITHM (LGA), with a maximum of 2500000 energy evaluations.

Final-Value: -14.989


	FINAL GENETIC ALGORITHM DOCKED STATE
	_______________________________________________


Detailed state:  trans 35.562 13.004 122.467 quatxyzw 0.756193 -0.222105 -0.013426 -0.615355 center 0.320 0.169 0.303 ntor 6 12.1303 128.5547 98.4324 175.5005 -45.7882 -134.9500
State:	 35.562  13.004 122.467   0.959 -0.282 -0.017 -104.045     12.13  128.55   98.43  175.50  -45.79 -134.95

DOCKED: MODEL       11
DOCKED: USER    Run = 11
DOCKED: USER    DPF = ligand_dock.biased.dpf
DOCKED: USER  
DOCKED: USER    Estimated Free Energy of Binding    =  -11.62 kcal/mol  [=(1)+(2)+(3)-(4)]
DOCKED: USER    Estimated Inhibition Constant, Ki   =    3.04 nM (nanomolar)  [Temperature = 298.15 K]
DOCKED: USER    
DOCKED: USER    (1) Final Intermolecular Energy     =  -13.41 kcal/mol
DOCKED: USER        vdW + Hbond + desolv Energy     =  -13.41 kcal/mol
DOCKED: USER        Electrostatic Energy            =   +0.00 kcal/mol
DOCKED: USER    (2) Final Total Internal Energy     =   -1.58 kcal/mol
DOCKED: USER    (3) Torsional Free Energy           =   +1.79 kcal/mol
DOCKED: USER    (4) Unbound System's Energy  [=(2)] =   -1.58 kcal/mol
DOCKED: USER    
DOCKED: USER    
DOCKED: USER    NEWDPF move ligand.dum.pdbqt
DOCKED: USER    NEWDPF about 0.320000 0.169000 0.303000
DOCKED: USER    NEWDPF tran0 35.562047 13.004410 122.466760
DOCKED: USER    NEWDPF quaternion0 0.756193 -0.222105 -0.013426 -0.615355
DOCKED: USER    NEWDPF axisangle0 0.959331 -0.281770 -0.017033 -104.044590
DOCKED: USER    NEWDPF quat0 0.959331 -0.281770 -0.017033 -104.044590
DOCKED: USER    NEWDPF dihe0 12.13 128.55 98.43 175.50 -45.79 -134.95 
DOCKED: USER  keepresnum = 1 
DOCKED: USER  
DOCKED: REMARK  Name = 
DOCKED: REMARK  6 active torsions:
DOCKED: REMARK  status: ('A' for Active; 'I' for Inactive)
DOCKED: REMARK    1  A    between atoms: S_2  and  N_3
DOCKED: REMARK    2  A    between atoms: S_2  and  C_10
DOCKED: REMARK    3  A    between atoms: N_3  and  C_4
DOCKED: REMARK    4  A    between atoms: C_12  and  C_13
DOCKED: REMARK    5  A    between atoms: C_14  and  C_15
DOCKED: REMARK    6  A    between atoms: N_16  and  O_17
DOCKED: REMARK                            x       y       z     vdW  Elec       q    Type
DOCKED: REMARK                         _______ _______ _______ _____ _____    ______ ____
DOCKED: USER                              x       y       z     vdW  Elec       q    Type
DOCKED: USER                           _______ _______ _______ _____ _____    ______ ____
DOCKED: ROOT
DOCKED: ATOM      1  C   UNL     1      35.665  15.188 123.337 -0.40 -0.00    +0.000 A 
DOCKED: ATOM      2  C   UNL     1      36.000  13.841 123.144 -0.41 -0.00    +0.000 A 
DOCKED: ATOM      3  C   UNL     1      37.146  13.483 122.413 -0.46 -0.00    +0.000 A 
DOCKED: ATOM      4  C   UNL     1      37.947  14.505 121.862 -0.35 -0.00    +0.000 A 
DOCKED: ATOM      5  C   UNL     1      37.616  15.847 122.062 -0.24 -0.00    +0.000 A 
DOCKED: ATOM      6  C   UNL     1      36.482  16.190 122.802 -0.28 -0.00    +0.000 A 
DOCKED: ATOM      7  CM  UNL     1      36.810  14.842 122.604 +0.00 -0.00    +0.000 AC
DOCKED: ENDROOT
DOCKED: BRANCH   1   8
DOCKED: ATOM      8  O   UNL     1      34.394  15.289 125.706 -0.53 -0.00    +0.000 OA
DOCKED: ATOM      9  S   UNL     1      34.218  15.613 124.248 -0.73 -0.00    +0.000 S 
DOCKED: ATOM     10  O   UNL     1      33.059  14.827 123.707 -0.33 -0.00    +0.000 OA
DOCKED: BRANCH   8  10
DOCKED: ATOM     11  N   UNL     1      33.885  17.309 124.083 -0.38 -0.00    +0.000 N 
DOCKED: ATOM     12  H   UNL     1      33.421  17.612 123.270 -0.03 -0.00    +0.000 HD
DOCKED: BRANCH  10  12
DOCKED: ATOM     13  C   UNL     1      34.248  18.298 125.064 -0.32 -0.00    +0.000 A 
DOCKED: ATOM     14  C   UNL     1      35.511  18.922 125.064 -0.21 -0.00    +0.000 A 
DOCKED: ATOM     15  C   UNL     1      35.824  19.885 126.028 -0.13 -0.00    +0.000 A 
DOCKED: ATOM     16  C   UNL     1      34.886  20.232 127.002 -0.11 -0.00    +0.000 A 
DOCKED: ATOM     17  C   UNL     1      33.634  19.615 127.017 -0.17 -0.00    +0.000 A 
DOCKED: ATOM     18  C   UNL     1      33.316  18.652 126.054 -0.29 -0.00    +0.000 A 
DOCKED: ATOM     19  CM  UNL     1      34.570  19.268 126.038 -0.05 -0.00    +0.000 AC
DOCKED: ENDBRANCH  10  12
DOCKED: ENDBRANCH   8  10
DOCKED: ENDBRANCH   1   8
DOCKED: BRANCH   3  18
DOCKED: ATOM     20  C   UNL     1      37.441  12.042 122.220 -0.46 -0.00    +0.000 C 
DOCKED: ATOM     21  C   UNL     1      36.541  11.066 122.411 -0.66 -0.00    +0.000 C 
DOCKED: BRANCH  19  20
DOCKED: ATOM     22  C   UNL     1      36.840   9.632 122.217 -0.66 -0.00    +0.000 C 
DOCKED: ATOM     23  N   UNL     1      36.919   8.709 123.311 -0.65 -0.00    +0.000 N 
DOCKED: ATOM     24  O   UNL     1      37.059   9.218 121.047 -2.74 -0.00    +0.000 OA
DOCKED: ATOM     25  H   UNL     1      36.864   9.039 124.237 -0.49 -0.00    +0.000 HD
DOCKED: BRANCH  21  24
DOCKED: ATOM     26  O   UNL     1      37.069   7.383 123.074 -2.18 -0.00    +0.000 OA
DOCKED: ATOM     27  H   UNL     1      37.295   7.245 122.142 -0.13 -0.00    +0.000 HD
DOCKED: ENDBRANCH  21  24
DOCKED: ENDBRANCH  19  20
DOCKED: ENDBRANCH   3  18
DOCKED: TORSDOF 6DOCKED: TER
DOCKED: ENDMDL
________________________________________________________________________________


	BEGINNING GENETIC ALGORITHM DOCKING 12 of 100
Run: 12 Seed: 1007218402 570658195 [ Run 12 of 100 GA/GALS ]
Beginning LAMARCKIAN GENETIC ALGORITHM (LGA), with a maximum of 2500000 energy evaluations.

Final-Value: -14.523


	FINAL GENETIC ALGORITHM DOCKED STATE
	_______________________________________________


Detailed state:  trans 38.108 13.788 122.498 quatxyzw 0.237147 -0.698527 0.591071 0.326277 center 0.320 0.169 0.303 ntor 6 11.4586 97.2514 -110.2905 42.0912 106.6714 56.9020
State:	 38.108  13.788 122.498   0.251 -0.739  0.625 141.914     11.46   97.25 -110.29   42.09  106.67   56.90

DOCKED: MODEL       12
DOCKED: USER    Run = 12
DOCKED: USER    DPF = ligand_dock.biased.dpf
DOCKED: USER  
DOCKED: USER    Estimated Free Energy of Binding    =  -10.86 kcal/mol  [=(1)+(2)+(3)-(4)]
DOCKED: USER    Estimated Inhibition Constant, Ki   =   11.00 nM (nanomolar)  [Temperature = 298.15 K]
DOCKED: USER    
DOCKED: USER    (1) Final Intermolecular Energy     =  -12.65 kcal/mol
DOCKED: USER        vdW + Hbond + desolv Energy     =  -12.65 kcal/mol
DOCKED: USER        Electrostatic Energy            =   +0.00 kcal/mol
DOCKED: USER    (2) Final Total Internal Energy     =   -1.88 kcal/mol
DOCKED: USER    (3) Torsional Free Energy           =   +1.79 kcal/mol
DOCKED: USER    (4) Unbound System's Energy  [=(2)] =   -1.88 kcal/mol
DOCKED: USER    
DOCKED: USER    
DOCKED: USER    NEWDPF move ligand.dum.pdbqt
DOCKED: USER    NEWDPF about 0.320000 0.169000 0.303000
DOCKED: USER    NEWDPF tran0 38.107750 13.788031 122.497973
DOCKED: USER    NEWDPF quaternion0 0.237147 -0.698527 0.591071 0.326277
DOCKED: USER    NEWDPF axisangle0 0.250876 -0.738967 0.625291 141.914125
DOCKED: USER    NEWDPF quat0 0.250876 -0.738967 0.625291 141.914125
DOCKED: USER    NEWDPF dihe0 11.46 97.25 -110.29 42.09 106.67 56.90 
DOCKED: USER  keepresnum = 1 
DOCKED: USER  
DOCKED: REMARK  Name = 
DOCKED: REMARK  6 active torsions:
DOCKED: REMARK  status: ('A' for Active; 'I' for Inactive)
DOCKED: REMARK    1  A    between atoms: S_2  and  N_3
DOCKED: REMARK    2  A    between atoms: S_2  and  C_10
DOCKED: REMARK    3  A    between atoms: N_3  and  C_4
DOCKED: REMARK    4  A    between atoms: C_12  and  C_13
DOCKED: REMARK    5  A    between atoms: C_14  and  C_15
DOCKED: REMARK    6  A    between atoms: N_16  and  O_17
DOCKED: REMARK                            x       y       z     vdW  Elec       q    Type
DOCKED: REMARK                         _______ _______ _______ _____ _____    ______ ____
DOCKED: USER                              x       y       z     vdW  Elec       q    Type
DOCKED: USER                           _______ _______ _______ _____ _____    ______ ____
DOCKED: ROOT
DOCKED: ATOM      1  C   UNL     1      36.777  15.720 122.319 -0.27 -0.00    +0.000 A 
DOCKED: ATOM      2  C   UNL     1      37.161  14.380 122.178 -0.36 -0.00    +0.000 A 
DOCKED: ATOM      3  C   UNL     1      36.575  13.378 122.971 -0.50 -0.00    +0.000 A 
DOCKED: ATOM      4  C   UNL     1      35.605  13.747 123.926 -0.42 -0.00    +0.000 A 
DOCKED: ATOM      5  C   UNL     1      35.219  15.083 124.060 -0.50 -0.00    +0.000 A 
DOCKED: ATOM      6  C   UNL     1      35.798  16.067 123.256 -0.36 -0.00    +0.000 A 
DOCKED: ATOM      7  CM  UNL     1      36.189  14.729 123.118 +0.00 -0.00    +0.000 AC
DOCKED: ENDROOT
DOCKED: BRANCH   1   8
DOCKED: ATOM      8  O   UNL     1      38.630  17.654 122.076 -0.12 -0.00    +0.000 OA
DOCKED: ATOM      9  S   UNL     1      37.531  16.960 121.321 -0.19 -0.00    +0.000 S 
DOCKED: ATOM     10  O   UNL     1      36.489  17.969 120.935 -0.15 -0.00    +0.000 OA
DOCKED: BRANCH   8  10
DOCKED: ATOM     11  N   UNL     1      38.196  16.248 119.883 -0.13 -0.00    +0.000 N 
DOCKED: ATOM     12  H   UNL     1      39.143  16.420 119.678 +0.00 -0.00    +0.000 HD
DOCKED: BRANCH  10  12
DOCKED: ATOM     13  C   UNL     1      37.445  15.422 118.974 -0.19 -0.00    +0.000 A 
DOCKED: ATOM     14  C   UNL     1      37.828  14.100 118.676 -0.27 -0.00    +0.000 A 
DOCKED: ATOM     15  C   UNL     1      37.067  13.325 117.795 -0.36 -0.00    +0.000 A 
DOCKED: ATOM     16  C   UNL     1      35.922  13.860 117.200 -0.32 -0.00    +0.000 A 
DOCKED: ATOM     17  C   UNL     1      35.537  15.172 117.482 -0.23 -0.00    +0.000 A 
DOCKED: ATOM     18  C   UNL     1      36.294  15.950 118.364 -0.16 -0.00    +0.000 A 
DOCKED: ATOM     19  CM  UNL     1      36.682  14.638 118.082 +0.00 -0.00    +0.000 AC
DOCKED: ENDBRANCH  10  12
DOCKED: ENDBRANCH   8  10
DOCKED: ENDBRANCH   1   8
DOCKED: BRANCH   3  18
DOCKED: ATOM     20  C   UNL     1      37.034  11.978 122.797 -0.64 -0.00    +0.000 C 
DOCKED: ATOM     21  C   UNL     1      36.241  10.983 122.369 -0.67 -0.00    +0.000 C 
DOCKED: BRANCH  19  20
DOCKED: ATOM     22  C   UNL     1      36.703   9.590 122.197 -0.70 -0.00    +0.000 C 
DOCKED: ATOM     23  N   UNL     1      36.851   8.687 123.301 -0.66 -0.00    +0.000 N 
DOCKED: ATOM     24  O   UNL     1      37.004   9.197 121.038 -2.72 -0.00    +0.000 OA
DOCKED: ATOM     25  H   UNL     1      36.730   9.014 124.222 -0.46 -0.00    +0.000 HD
DOCKED: BRANCH  21  24
DOCKED: ATOM     26  O   UNL     1      37.153   7.385 123.080 -2.13 -0.00    +0.000 OA
DOCKED: ATOM     27  H   UNL     1      37.412   7.266 122.154 -0.15 -0.00    +0.000 HD
DOCKED: ENDBRANCH  21  24
DOCKED: ENDBRANCH  19  20
DOCKED: ENDBRANCH   3  18
DOCKED: TORSDOF 6DOCKED: TER
DOCKED: ENDMDL
________________________________________________________________________________


	BEGINNING GENETIC ALGORITHM DOCKING 13 of 100
Run: 13 Seed: 1760826759 478868731 [ Run 13 of 100 GA/GALS ]
Beginning LAMARCKIAN GENETIC ALGORITHM (LGA), with a maximum of 2500000 energy evaluations.

Final-Value: -14.984


	FINAL GENETIC ALGORITHM DOCKED STATE
	_______________________________________________


Detailed state:  trans 35.741 13.295 122.019 quatxyzw -0.775662 0.421595 -0.020798 0.469228 center 0.320 0.169 0.303 ntor 6 16.6188 174.6140 -45.3918 97.2373 178.1837 156.2864
State:	 35.741  13.295 122.019  -0.878  0.477 -0.024 124.032     16.62  174.61  -45.39   97.24  178.18  156.29

DOCKED: MODEL       13
DOCKED: USER    Run = 13
DOCKED: USER    DPF = ligand_dock.biased.dpf
DOCKED: USER  
DOCKED: USER    Estimated Free Energy of Binding    =  -11.71 kcal/mol  [=(1)+(2)+(3)-(4)]
DOCKED: USER    Estimated Inhibition Constant, Ki   =    2.59 nM (nanomolar)  [Temperature = 298.15 K]
DOCKED: USER    
DOCKED: USER    (1) Final Intermolecular Energy     =  -13.50 kcal/mol
DOCKED: USER        vdW + Hbond + desolv Energy     =  -13.50 kcal/mol
DOCKED: USER        Electrostatic Energy            =   +0.00 kcal/mol
DOCKED: USER    (2) Final Total Internal Energy     =   -1.48 kcal/mol
DOCKED: USER    (3) Torsional Free Energy           =   +1.79 kcal/mol
DOCKED: USER    (4) Unbound System's Energy  [=(2)] =   -1.48 kcal/mol
DOCKED: USER    
DOCKED: USER    
DOCKED: USER    NEWDPF move ligand.dum.pdbqt
DOCKED: USER    NEWDPF about 0.320000 0.169000 0.303000
DOCKED: USER    NEWDPF tran0 35.740578 13.295056 122.018834
DOCKED: USER    NEWDPF quaternion0 -0.775662 0.421595 -0.020798 0.469228
DOCKED: USER    NEWDPF axisangle0 -0.878362 0.477415 -0.023552 124.031636
DOCKED: USER    NEWDPF quat0 -0.878362 0.477415 -0.023552 124.031636
DOCKED: USER    NEWDPF dihe0 16.62 174.61 -45.39 97.24 178.18 156.29 
DOCKED: USER  keepresnum = 1 
DOCKED: USER  
DOCKED: REMARK  Name = 
DOCKED: REMARK  6 active torsions:
DOCKED: REMARK  status: ('A' for Active; 'I' for Inactive)
DOCKED: REMARK    1  A    between atoms: S_2  and  N_3
DOCKED: REMARK    2  A    between atoms: S_2  and  C_10
DOCKED: REMARK    3  A    between atoms: N_3  and  C_4
DOCKED: REMARK    4  A    between atoms: C_12  and  C_13
DOCKED: REMARK    5  A    between atoms: C_14  and  C_15
DOCKED: REMARK    6  A    between atoms: N_16  and  O_17
DOCKED: REMARK                            x       y       z     vdW  Elec       q    Type
DOCKED: REMARK                         _______ _______ _______ _____ _____    ______ ____
DOCKED: USER                              x       y       z     vdW  Elec       q    Type
DOCKED: USER                           _______ _______ _______ _____ _____    ______ ____
DOCKED: ROOT
DOCKED: ATOM      1  C   UNL     1      35.953  15.174 123.419 -0.42 -0.00    +0.000 A 
DOCKED: ATOM      2  C   UNL     1      36.050  13.841 122.996 -0.35 -0.00    +0.000 A 
DOCKED: ATOM      3  C   UNL     1      37.288  13.300 122.608 -0.48 -0.00    +0.000 A 
DOCKED: ATOM      4  C   UNL     1      38.430  14.126 122.634 -0.41 -0.00    +0.000 A 
DOCKED: ATOM      5  C   UNL     1      38.332  15.453 123.063 -0.29 -0.00    +0.000 A 
DOCKED: ATOM      6  C   UNL     1      37.100  15.975 123.460 -0.30 -0.00    +0.000 A 
DOCKED: ATOM      7  CM  UNL     1      37.193  14.645 123.030 +0.00 -0.00    +0.000 AC
DOCKED: ENDROOT
DOCKED: BRANCH   1   8
DOCKED: ATOM      8  O   UNL     1      33.317  14.786 123.790 -0.63 -0.00    +0.000 OA
DOCKED: ATOM      9  S   UNL     1      34.390  15.834 123.892 -0.70 -0.00    +0.000 S 
DOCKED: ATOM     10  O   UNL     1      34.050  16.974 122.976 -0.48 -0.00    +0.000 OA
DOCKED: BRANCH   8  10
DOCKED: ATOM     11  N   UNL     1      34.457  16.417 125.527 -0.43 -0.00    +0.000 N 
DOCKED: ATOM     12  H   UNL     1      34.757  15.793 126.228 +0.01 -0.00    +0.000 HD
DOCKED: BRANCH  10  12
DOCKED: ATOM     13  C   UNL     1      34.102  17.755 125.918 -0.34 -0.00    +0.000 A 
DOCKED: ATOM     14  C   UNL     1      34.722  18.888 125.354 -0.25 -0.00    +0.000 A 
DOCKED: ATOM     15  C   UNL     1      34.344  20.173 125.753 -0.16 -0.00    +0.000 A 
DOCKED: ATOM     16  C   UNL     1      33.350  20.343 126.719 -0.17 -0.00    +0.000 A 
DOCKED: ATOM     17  C   UNL     1      32.734  19.229 127.291 -0.21 -0.00    +0.000 A 
DOCKED: ATOM     18  C   UNL     1      33.108  17.941 126.894 -0.27 -0.00    +0.000 A 
DOCKED: ATOM     19  CM  UNL     1      33.727  19.055 126.321 -0.02 -0.00    +0.000 AC
DOCKED: ENDBRANCH  10  12
DOCKED: ENDBRANCH   8  10
DOCKED: ENDBRANCH   1   8
DOCKED: BRANCH   3  18
DOCKED: ATOM     20  C   UNL     1      37.331  11.890 122.147 -0.47 -0.00    +0.000 C 
DOCKED: ATOM     21  C   UNL     1      36.989  10.845 122.917 -0.63 -0.00    +0.000 C 
DOCKED: BRANCH  19  20
DOCKED: ATOM     22  C   UNL     1      37.034   9.443 122.454 -0.63 -0.00    +0.000 C 
DOCKED: ATOM     23  N   UNL     1      37.156   8.338 123.359 -0.70 -0.00    +0.000 N 
DOCKED: ATOM     24  O   UNL     1      36.990   9.219 121.214 -2.71 -0.00    +0.000 OA
DOCKED: ATOM     25  H   UNL     1      37.306   8.503 124.318 -0.50 -0.00    +0.000 HD
DOCKED: BRANCH  21  24
DOCKED: ATOM     26  O   UNL     1      37.063   7.067 122.899 -1.81 -0.00    +0.000 OA
DOCKED: ATOM     27  H   UNL     1      37.178   7.062 121.937 -0.15 -0.00    +0.000 HD
DOCKED: ENDBRANCH  21  24
DOCKED: ENDBRANCH  19  20
DOCKED: ENDBRANCH   3  18
DOCKED: TORSDOF 6DOCKED: TER
DOCKED: ENDMDL
________________________________________________________________________________


	BEGINNING GENETIC ALGORITHM DOCKING 14 of 100
Run: 14 Seed: 869598643 1026629501 [ Run 14 of 100 GA/GALS ]
Beginning LAMARCKIAN GENETIC ALGORITHM (LGA), with a maximum of 2500000 energy evaluations.

Final-Value: -15.214


	FINAL GENETIC ALGORITHM DOCKED STATE
	_______________________________________________


Detailed state:  trans 38.324 12.667 123.258 quatxyzw 0.005758 -0.654050 0.696171 0.295858 center 0.320 0.169 0.303 ntor 6 17.0186 -19.1818 39.7900 124.1787 2.8111 128.6254
State:	 38.324  12.667 123.258   0.006 -0.685  0.729 145.582     17.02  -19.18   39.79  124.18    2.81  128.63

DOCKED: MODEL       14
DOCKED: USER    Run = 14
DOCKED: USER    DPF = ligand_dock.biased.dpf
DOCKED: USER  
DOCKED: USER    Estimated Free Energy of Binding    =  -11.68 kcal/mol  [=(1)+(2)+(3)-(4)]
DOCKED: USER    Estimated Inhibition Constant, Ki   =    2.74 nM (nanomolar)  [Temperature = 298.15 K]
DOCKED: USER    
DOCKED: USER    (1) Final Intermolecular Energy     =  -13.47 kcal/mol
DOCKED: USER        vdW + Hbond + desolv Energy     =  -13.47 kcal/mol
DOCKED: USER        Electrostatic Energy            =   +0.00 kcal/mol
DOCKED: USER    (2) Final Total Internal Energy     =   -1.74 kcal/mol
DOCKED: USER    (3) Torsional Free Energy           =   +1.79 kcal/mol
DOCKED: USER    (4) Unbound System's Energy  [=(2)] =   -1.74 kcal/mol
DOCKED: USER    
DOCKED: USER    
DOCKED: USER    NEWDPF move ligand.dum.pdbqt
DOCKED: USER    NEWDPF about 0.320000 0.169000 0.303000
DOCKED: USER    NEWDPF tran0 38.323717 12.666902 123.257868
DOCKED: USER    NEWDPF quaternion0 0.005758 -0.654050 0.696171 0.295858
DOCKED: USER    NEWDPF axisangle0 0.006027 -0.684703 0.728798 145.582051
DOCKED: USER    NEWDPF quat0 0.006027 -0.684703 0.728798 145.582051
DOCKED: USER    NEWDPF dihe0 17.02 -19.18 39.79 124.18 2.81 128.63 
DOCKED: USER  keepresnum = 1 
DOCKED: USER  
DOCKED: REMARK  Name = 
DOCKED: REMARK  6 active torsions:
DOCKED: REMARK  status: ('A' for Active; 'I' for Inactive)
DOCKED: REMARK    1  A    between atoms: S_2  and  N_3
DOCKED: REMARK    2  A    between atoms: S_2  and  C_10
DOCKED: REMARK    3  A    between atoms: N_3  and  C_4
DOCKED: REMARK    4  A    between atoms: C_12  and  C_13
DOCKED: REMARK    5  A    between atoms: C_14  and  C_15
DOCKED: REMARK    6  A    between atoms: N_16  and  O_17
DOCKED: REMARK                            x       y       z     vdW  Elec       q    Type
DOCKED: REMARK                         _______ _______ _______ _____ _____    ______ ____
DOCKED: USER                              x       y       z     vdW  Elec       q    Type
DOCKED: USER                           _______ _______ _______ _____ _____    ______ ____
DOCKED: ROOT
DOCKED: ATOM      1  C   UNL     1      37.996  14.923 122.677 -0.36 -0.00    +0.000 A 
DOCKED: ATOM      2  C   UNL     1      37.830  13.532 122.659 -0.45 -0.00    +0.000 A 
DOCKED: ATOM      3  C   UNL     1      36.690  12.938 123.228 -0.56 -0.00    +0.000 A 
DOCKED: ATOM      4  C   UNL     1      35.722  13.765 123.833 -0.48 -0.00    +0.000 A 
DOCKED: ATOM      5  C   UNL     1      35.886  15.153 123.843 -0.44 -0.00    +0.000 A 
DOCKED: ATOM      6  C   UNL     1      37.016  15.732 123.262 -0.32 -0.00    +0.000 A 
DOCKED: ATOM      7  CM  UNL     1      36.857  14.340 123.250 +0.00 -0.00    +0.000 AC
DOCKED: ENDROOT
DOCKED: BRANCH   1   8
DOCKED: ATOM      8  O   UNL     1      40.587  14.677 121.995 -0.91 -0.00    +0.000 OA
DOCKED: ATOM      9  S   UNL     1      39.438  15.646 121.967 -0.39 -0.00    +0.000 S 
DOCKED: ATOM     10  O   UNL     1      39.806  16.866 122.760 -0.24 -0.00    +0.000 OA
DOCKED: BRANCH   8  10
DOCKED: ATOM     11  N   UNL     1      39.127  16.106 120.321 -0.15 -0.00    +0.000 N 
DOCKED: ATOM     12  H   UNL     1      39.365  17.020 120.044 +0.00 -0.00    +0.000 HD
DOCKED: BRANCH  10  12
DOCKED: ATOM     13  C   UNL     1      38.542  15.231 119.339 -0.18 -0.00    +0.000 A 
DOCKED: ATOM     14  C   UNL     1      37.659  14.193 119.695 -0.30 -0.00    +0.000 A 
DOCKED: ATOM     15  C   UNL     1      37.104  13.368 118.712 -0.39 -0.00    +0.000 A 
DOCKED: ATOM     16  C   UNL     1      37.426  13.566 117.368 -0.36 -0.00    +0.000 A 
DOCKED: ATOM     17  C   UNL     1      38.306  14.587 117.004 -0.23 -0.00    +0.000 A 
DOCKED: ATOM     18  C   UNL     1      38.862  15.415 117.983 -0.14 -0.00    +0.000 A 
DOCKED: ATOM     19  CM  UNL     1      37.983  14.393 118.350 +0.00 -0.00    +0.000 AC
DOCKED: ENDBRANCH  10  12
DOCKED: ENDBRANCH   8  10
DOCKED: ENDBRANCH   1   8
DOCKED: BRANCH   3  18
DOCKED: ATOM     20  C   UNL     1      36.576  11.458 123.202 -0.70 -0.00    +0.000 C 
DOCKED: ATOM     21  C   UNL     1      37.029  10.695 122.196 -0.56 -0.00    +0.000 C 
DOCKED: BRANCH  19  20
DOCKED: ATOM     22  C   UNL     1      36.912   9.222 122.175 -0.68 -0.00    +0.000 C 
DOCKED: ATOM     23  N   UNL     1      37.064   8.422 123.355 -0.70 -0.00    +0.000 N 
DOCKED: ATOM     24  O   UNL     1      36.699   8.653 121.071 -2.44 -0.00    +0.000 OA
DOCKED: ATOM     25  H   UNL     1      37.344   8.842 124.201 -0.57 -0.00    +0.000 HD
DOCKED: BRANCH  21  24
DOCKED: ATOM     26  O   UNL     1      36.822   7.089 123.311 -1.80 -0.00    +0.000 OA
DOCKED: ATOM     27  H   UNL     1      36.823   6.791 122.389 -0.12 -0.00    +0.000 HD
DOCKED: ENDBRANCH  21  24
DOCKED: ENDBRANCH  19  20
DOCKED: ENDBRANCH   3  18
DOCKED: TORSDOF 6DOCKED: TER
DOCKED: ENDMDL
________________________________________________________________________________


	BEGINNING GENETIC ALGORITHM DOCKING 15 of 100
Run: 15 Seed: 1683496053 207130442 [ Run 15 of 100 GA/GALS ]
Beginning LAMARCKIAN GENETIC ALGORITHM (LGA), with a maximum of 2500000 energy evaluations.

Final-Value: -14.535


	FINAL GENETIC ALGORITHM DOCKED STATE
	_______________________________________________


Detailed state:  trans 38.058 12.230 122.685 quatxyzw 0.013907 0.757312 -0.603701 -0.248656 center 0.320 0.169 0.303 ntor 6 42.7199 -113.3964 146.5528 -133.5062 16.2216 123.3418
State:	 38.058  12.230 122.685   0.014  0.782 -0.623 -151.204     42.72 -113.40  146.55 -133.51   16.22  123.34

DOCKED: MODEL       15
DOCKED: USER    Run = 15
DOCKED: USER    DPF = ligand_dock.biased.dpf
DOCKED: USER  
DOCKED: USER    Estimated Free Energy of Binding    =  -11.09 kcal/mol  [=(1)+(2)+(3)-(4)]
DOCKED: USER    Estimated Inhibition Constant, Ki   =    7.38 nM (nanomolar)  [Temperature = 298.15 K]
DOCKED: USER    
DOCKED: USER    (1) Final Intermolecular Energy     =  -12.88 kcal/mol
DOCKED: USER        vdW + Hbond + desolv Energy     =  -12.88 kcal/mol
DOCKED: USER        Electrostatic Energy            =   +0.00 kcal/mol
DOCKED: USER    (2) Final Total Internal Energy     =   -1.65 kcal/mol
DOCKED: USER    (3) Torsional Free Energy           =   +1.79 kcal/mol
DOCKED: USER    (4) Unbound System's Energy  [=(2)] =   -1.65 kcal/mol
DOCKED: USER    
DOCKED: USER    
DOCKED: USER    NEWDPF move ligand.dum.pdbqt
DOCKED: USER    NEWDPF about 0.320000 0.169000 0.303000
DOCKED: USER    NEWDPF tran0 38.058410 12.229599 122.685168
DOCKED: USER    NEWDPF quaternion0 0.013907 0.757312 -0.603701 -0.248656
DOCKED: USER    NEWDPF axisangle0 0.014358 0.781869 -0.623277 -151.203964
DOCKED: USER    NEWDPF quat0 0.014358 0.781869 -0.623277 -151.203964
DOCKED: USER    NEWDPF dihe0 42.72 -113.40 146.55 -133.51 16.22 123.34 
DOCKED: USER  keepresnum = 1 
DOCKED: USER  
DOCKED: REMARK  Name = 
DOCKED: REMARK  6 active torsions:
DOCKED: REMARK  status: ('A' for Active; 'I' for Inactive)
DOCKED: REMARK    1  A    between atoms: S_2  and  N_3
DOCKED: REMARK    2  A    between atoms: S_2  and  C_10
DOCKED: REMARK    3  A    between atoms: N_3  and  C_4
DOCKED: REMARK    4  A    between atoms: C_12  and  C_13
DOCKED: REMARK    5  A    between atoms: C_14  and  C_15
DOCKED: REMARK    6  A    between atoms: N_16  and  O_17
DOCKED: REMARK                            x       y       z     vdW  Elec       q    Type
DOCKED: REMARK                         _______ _______ _______ _____ _____    ______ ____
DOCKED: USER                              x       y       z     vdW  Elec       q    Type
DOCKED: USER                           _______ _______ _______ _____ _____    ______ ____
DOCKED: ROOT
DOCKED: ATOM      1  C   UNL     1      37.795  14.566 122.773 -0.40 -0.00    +0.000 A 
DOCKED: ATOM      2  C   UNL     1      37.558  13.237 122.396 -0.46 -0.00    +0.000 A 
DOCKED: ATOM      3  C   UNL     1      36.445  12.537 122.894 -0.56 -0.00    +0.000 A 
DOCKED: ATOM      4  C   UNL     1      35.579  13.190 123.795 -0.36 -0.00    +0.000 A 
DOCKED: ATOM      5  C   UNL     1      35.813  14.518 124.164 -0.44 -0.00    +0.000 A 
DOCKED: ATOM      6  C   UNL     1      36.914  15.207 123.652 -0.31 -0.00    +0.000 A 
DOCKED: ATOM      7  CM  UNL     1      36.684  13.876 123.279 +0.00 -0.00    +0.000 AC
DOCKED: ENDROOT
DOCKED: BRANCH   1   8
DOCKED: ATOM      8  O   UNL     1      40.342  14.469 121.913 -1.05 -0.00    +0.000 OA
DOCKED: ATOM      9  S   UNL     1      39.201  15.421 122.144 -0.43 -0.00    +0.000 S 
DOCKED: ATOM     10  O   UNL     1      39.623  16.458 123.144 -0.31 -0.00    +0.000 OA
DOCKED: BRANCH   8  10
DOCKED: ATOM     11  N   UNL     1      38.804  16.201 120.644 -0.14 -0.00    +0.000 N 
DOCKED: ATOM     12  H   UNL     1      39.205  17.081 120.461 +0.01 -0.00    +0.000 HD
DOCKED: BRANCH  10  12
DOCKED: ATOM     13  C   UNL     1      37.925  15.638 119.654 -0.17 -0.00    +0.000 A 
DOCKED: ATOM     14  C   UNL     1      36.928  16.404 119.019 -0.13 -0.00    +0.000 A 
DOCKED: ATOM     15  C   UNL     1      36.097  15.824 118.054 -0.17 -0.00    +0.000 A 
DOCKED: ATOM     16  C   UNL     1      36.249  14.477 117.718 -0.30 -0.00    +0.000 A 
DOCKED: ATOM     17  C   UNL     1      37.229  13.706 118.347 -0.36 -0.00    +0.000 A 
DOCKED: ATOM     18  C   UNL     1      38.062  14.282 119.310 -0.23 -0.00    +0.000 A 
DOCKED: ATOM     19  CM  UNL     1      37.082  15.055 118.683 +0.00 -0.00    +0.000 AC
DOCKED: ENDBRANCH  10  12
DOCKED: ENDBRANCH   8  10
DOCKED: ENDBRANCH   1   8
DOCKED: BRANCH   3  18
DOCKED: ATOM     20  C   UNL     1      36.253  11.125 122.480 -0.67 -0.00    +0.000 C 
DOCKED: ATOM     21  C   UNL     1      37.070  10.126 122.846 -0.58 -0.00    +0.000 C 
DOCKED: BRANCH  19  20
DOCKED: ATOM     22  C   UNL     1      36.875   8.721 122.431 -0.71 -0.00    +0.000 C 
DOCKED: ATOM     23  N   UNL     1      36.924   7.631 123.361 -0.76 -0.00    +0.000 N 
DOCKED: ATOM     24  O   UNL     1      36.687   8.478 121.208 -2.27 -0.00    +0.000 OA
DOCKED: ATOM     25  H   UNL     1      37.183   7.795 124.296 -0.37 -0.00    +0.000 HD
DOCKED: BRANCH  21  24
DOCKED: ATOM     26  O   UNL     1      36.612   6.376 122.956 -1.26 -0.00    +0.000 OA
DOCKED: ATOM     27  H   UNL     1      37.016   6.206 122.091 -0.45 -0.00    +0.000 HD
DOCKED: ENDBRANCH  21  24
DOCKED: ENDBRANCH  19  20
DOCKED: ENDBRANCH   3  18
DOCKED: TORSDOF 6DOCKED: TER
DOCKED: ENDMDL
________________________________________________________________________________


	BEGINNING GENETIC ALGORITHM DOCKING 16 of 100
Run: 16 Seed: 1045705875 1416859341 [ Run 16 of 100 GA/GALS ]
Beginning LAMARCKIAN GENETIC ALGORITHM (LGA), with a maximum of 2500000 energy evaluations.

Final-Value: -14.755


	FINAL GENETIC ALGORITHM DOCKED STATE
	_______________________________________________


Detailed state:  trans 38.523 12.826 123.534 quatxyzw 0.052925 0.620743 -0.706579 -0.335595 center 0.320 0.169 0.303 ntor 6 11.6107 -12.1721 160.3101 108.1102 -3.5040 -88.8285
State:	 38.523  12.826 123.534   0.056  0.659 -0.750 -140.783     11.61  -12.17  160.31  108.11   -3.50  -88.83

DOCKED: MODEL       16
DOCKED: USER    Run = 16
DOCKED: USER    DPF = ligand_dock.biased.dpf
DOCKED: USER  
DOCKED: USER    Estimated Free Energy of Binding    =  -11.32 kcal/mol  [=(1)+(2)+(3)-(4)]
DOCKED: USER    Estimated Inhibition Constant, Ki   =    5.07 nM (nanomolar)  [Temperature = 298.15 K]
DOCKED: USER    
DOCKED: USER    (1) Final Intermolecular Energy     =  -13.11 kcal/mol
DOCKED: USER        vdW + Hbond + desolv Energy     =  -13.11 kcal/mol
DOCKED: USER        Electrostatic Energy            =   +0.00 kcal/mol
DOCKED: USER    (2) Final Total Internal Energy     =   -1.65 kcal/mol
DOCKED: USER    (3) Torsional Free Energy           =   +1.79 kcal/mol
DOCKED: USER    (4) Unbound System's Energy  [=(2)] =   -1.65 kcal/mol
DOCKED: USER    
DOCKED: USER    
DOCKED: USER    NEWDPF move ligand.dum.pdbqt
DOCKED: USER    NEWDPF about 0.320000 0.169000 0.303000
DOCKED: USER    NEWDPF tran0 38.523024 12.826393 123.534203
DOCKED: USER    NEWDPF quaternion0 0.052925 0.620743 -0.706579 -0.335595
DOCKED: USER    NEWDPF axisangle0 0.056184 0.658958 -0.750079 -140.782589
DOCKED: USER    NEWDPF quat0 0.056184 0.658958 -0.750079 -140.782589
DOCKED: USER    NEWDPF dihe0 11.61 -12.17 160.31 108.11 -3.50 -88.83 
DOCKED: USER  keepresnum = 1 
DOCKED: USER  
DOCKED: REMARK  Name = 
DOCKED: REMARK  6 active torsions:
DOCKED: REMARK  status: ('A' for Active; 'I' for Inactive)
DOCKED: REMARK    1  A    between atoms: S_2  and  N_3
DOCKED: REMARK    2  A    between atoms: S_2  and  C_10
DOCKED: REMARK    3  A    between atoms: N_3  and  C_4
DOCKED: REMARK    4  A    between atoms: C_12  and  C_13
DOCKED: REMARK    5  A    between atoms: C_14  and  C_15
DOCKED: REMARK    6  A    between atoms: N_16  and  O_17
DOCKED: REMARK                            x       y       z     vdW  Elec       q    Type
DOCKED: REMARK                         _______ _______ _______ _____ _____    ______ ____
DOCKED: USER                              x       y       z     vdW  Elec       q    Type
DOCKED: USER                           _______ _______ _______ _____ _____    ______ ____
DOCKED: ROOT
DOCKED: ATOM      1  C   UNL     1      38.354  15.074 122.859 -0.33 -0.00    +0.000 A 
DOCKED: ATOM      2  C   UNL     1      38.152  13.687 122.848 -0.42 -0.00    +0.000 A 
DOCKED: ATOM      3  C   UNL     1      36.922  13.137 123.248 -0.53 -0.00    +0.000 A 
DOCKED: ATOM      4  C   UNL     1      35.897  14.005 123.679 -0.49 -0.00    +0.000 A 
DOCKED: ATOM      5  C   UNL     1      36.098  15.388 123.682 -0.40 -0.00    +0.000 A 
DOCKED: ATOM      6  C   UNL     1      37.320  15.923 123.269 -0.29 -0.00    +0.000 A 
DOCKED: ATOM      7  CM  UNL     1      37.124  14.536 123.264 +0.00 -0.00    +0.000 AC
DOCKED: ENDROOT
DOCKED: BRANCH   1   8
DOCKED: ATOM      8  O   UNL     1      39.753  16.582 121.126 -0.16 -0.00    +0.000 OA
DOCKED: ATOM      9  S   UNL     1      39.907  15.741 122.362 -0.44 -0.00    +0.000 S 
DOCKED: ATOM     10  O   UNL     1      40.848  14.607 122.069 -0.97 -0.00    +0.000 OA
DOCKED: BRANCH   8  10
DOCKED: ATOM     11  N   UNL     1      40.571  16.720 123.633 -0.27 -0.00    +0.000 N 
DOCKED: ATOM     12  H   UNL     1      41.467  16.494 123.971 -0.04 +0.00    +0.000 HD
DOCKED: BRANCH  10  12
DOCKED: ATOM     13  C   UNL     1      39.889  17.843 124.222 -0.24 -0.00    +0.000 A 
DOCKED: ATOM     14  C   UNL     1      40.080  18.211 125.568 -0.27 -0.00    +0.000 A 
DOCKED: ATOM     15  C   UNL     1      39.406  19.314 126.102 -0.16 -0.00    +0.000 A 
DOCKED: ATOM     16  C   UNL     1      38.533  20.055 125.303 -0.08 -0.00    +0.000 A 
DOCKED: ATOM     17  C   UNL     1      38.329  19.695 123.970 -0.08 -0.00    +0.000 A 
DOCKED: ATOM     18  C   UNL     1      39.002  18.594 123.431 -0.12 -0.00    +0.000 A 
DOCKED: ATOM     19  CM  UNL     1      39.207  18.952 124.766 +0.00 -0.00    +0.000 AC
DOCKED: ENDBRANCH  10  12
DOCKED: ENDBRANCH   8  10
DOCKED: ENDBRANCH   1   8
DOCKED: BRANCH   3  18
DOCKED: ATOM     20  C   UNL     1      36.770  11.661 123.238 -0.69 -0.00    +0.000 C 
DOCKED: ATOM     21  C   UNL     1      37.075  10.889 122.185 -0.54 -0.00    +0.000 C 
DOCKED: BRANCH  19  20
DOCKED: ATOM     22  C   UNL     1      36.922   9.419 122.180 -0.66 -0.00    +0.000 C 
DOCKED: ATOM     23  N   UNL     1      37.058   8.629 123.368 -0.66 -0.00    +0.000 N 
DOCKED: ATOM     24  O   UNL     1      36.690   8.844 121.083 -2.61 -0.00    +0.000 OA
DOCKED: ATOM     25  H   UNL     1      37.351   9.051 124.208 -0.60 -0.00    +0.000 HD
DOCKED: BRANCH  21  24
DOCKED: ATOM     26  O   UNL     1      36.782   7.302 123.339 -1.98 -0.00    +0.000 OA
DOCKED: ATOM     27  H   UNL     1      36.688   7.012 122.419 -0.06 -0.00    +0.000 HD
DOCKED: ENDBRANCH  21  24
DOCKED: ENDBRANCH  19  20
DOCKED: ENDBRANCH   3  18
DOCKED: TORSDOF 6DOCKED: TER
DOCKED: ENDMDL
________________________________________________________________________________


	BEGINNING GENETIC ALGORITHM DOCKING 17 of 100
Run: 17 Seed: 565449911 340657735 [ Run 17 of 100 GA/GALS ]
Beginning LAMARCKIAN GENETIC ALGORITHM (LGA), with a maximum of 2500000 energy evaluations.

Final-Value: -15.254


	FINAL GENETIC ALGORITHM DOCKED STATE
	_______________________________________________


Detailed state:  trans 38.390 12.873 123.530 quatxyzw 0.015610 0.641931 -0.687826 -0.338492 center 0.320 0.169 0.303 ntor 6 9.1547 -4.4372 121.9463 106.0574 57.3314 110.8438
State:	 38.390  12.873 123.530   0.017  0.682 -0.731 -140.430      9.15   -4.44  121.95  106.06   57.33  110.84

DOCKED: MODEL       17
DOCKED: USER    Run = 17
DOCKED: USER    DPF = ligand_dock.biased.dpf
DOCKED: USER  
DOCKED: USER    Estimated Free Energy of Binding    =  -11.43 kcal/mol  [=(1)+(2)+(3)-(4)]
DOCKED: USER    Estimated Inhibition Constant, Ki   =    4.19 nM (nanomolar)  [Temperature = 298.15 K]
DOCKED: USER    
DOCKED: USER    (1) Final Intermolecular Energy     =  -13.22 kcal/mol
DOCKED: USER        vdW + Hbond + desolv Energy     =  -13.22 kcal/mol
DOCKED: USER        Electrostatic Energy            =   +0.00 kcal/mol
DOCKED: USER    (2) Final Total Internal Energy     =   -2.04 kcal/mol
DOCKED: USER    (3) Torsional Free Energy           =   +1.79 kcal/mol
DOCKED: USER    (4) Unbound System's Energy  [=(2)] =   -2.04 kcal/mol
DOCKED: USER    
DOCKED: USER    
DOCKED: USER    NEWDPF move ligand.dum.pdbqt
DOCKED: USER    NEWDPF about 0.320000 0.169000 0.303000
DOCKED: USER    NEWDPF tran0 38.390418 12.872613 123.530318
DOCKED: USER    NEWDPF quaternion0 0.015610 0.641931 -0.687826 -0.338492
DOCKED: USER    NEWDPF axisangle0 0.016589 0.682202 -0.730976 -140.429906
DOCKED: USER    NEWDPF quat0 0.016589 0.682202 -0.730976 -140.429906
DOCKED: USER    NEWDPF dihe0 9.15 -4.44 121.95 106.06 57.33 110.84 
DOCKED: USER  keepresnum = 1 
DOCKED: USER  
DOCKED: REMARK  Name = 
DOCKED: REMARK  6 active torsions:
DOCKED: REMARK  status: ('A' for Active; 'I' for Inactive)
DOCKED: REMARK    1  A    between atoms: S_2  and  N_3
DOCKED: REMARK    2  A    between atoms: S_2  and  C_10
DOCKED: REMARK    3  A    between atoms: N_3  and  C_4
DOCKED: REMARK    4  A    between atoms: C_12  and  C_13
DOCKED: REMARK    5  A    between atoms: C_14  and  C_15
DOCKED: REMARK    6  A    between atoms: N_16  and  O_17
DOCKED: REMARK                            x       y       z     vdW  Elec       q    Type
DOCKED: REMARK                         _______ _______ _______ _____ _____    ______ ____
DOCKED: USER                              x       y       z     vdW  Elec       q    Type
DOCKED: USER                           _______ _______ _______ _____ _____    ______ ____
DOCKED: ROOT
DOCKED: ATOM      1  C   UNL     1      38.035  15.120 122.934 -0.34 -0.00    +0.000 A 
DOCKED: ATOM      2  C   UNL     1      37.923  13.724 122.893 -0.45 -0.00    +0.000 A 
DOCKED: ATOM      3  C   UNL     1      36.758  13.084 123.351 -0.55 -0.00    +0.000 A 
DOCKED: ATOM      4  C   UNL     1      35.709  13.871 123.868 -0.47 -0.00    +0.000 A 
DOCKED: ATOM      5  C   UNL     1      35.820  15.264 123.900 -0.43 -0.00    +0.000 A 
DOCKED: ATOM      6  C   UNL     1      36.976  15.889 123.430 -0.31 -0.00    +0.000 A 
DOCKED: ATOM      7  CM  UNL     1      36.870  14.492 123.396 +0.00 -0.00    +0.000 AC
DOCKED: ENDROOT
DOCKED: BRANCH   1   8
DOCKED: ATOM      8  O   UNL     1      40.724  15.179 122.875 -0.62 -0.00    +0.000 OA
DOCKED: ATOM      9  S   UNL     1      39.509  15.901 122.364 -0.39 -0.00    +0.000 S 
DOCKED: ATOM     10  O   UNL     1      39.531  17.315 122.868 -0.21 -0.00    +0.000 OA
DOCKED: BRANCH   8  10
DOCKED: ATOM     11  N   UNL     1      39.546  15.912 120.628 -0.18 -0.00    +0.000 N 
DOCKED: ATOM     12  H   UNL     1      40.352  16.265 120.185 -0.00 -0.00    +0.000 HD
DOCKED: BRANCH  10  12
DOCKED: ATOM     13  C   UNL     1      38.470  15.438 119.798 -0.18 -0.00    +0.000 A 
DOCKED: ATOM     14  C   UNL     1      37.685  16.312 119.021 -0.12 -0.00    +0.000 A 
DOCKED: ATOM     15  C   UNL     1      36.653  15.812 118.220 -0.16 -0.00    +0.000 A 
DOCKED: ATOM     16  C   UNL     1      36.391  14.441 118.189 -0.31 -0.00    +0.000 A 
DOCKED: ATOM     17  C   UNL     1      37.157  13.566 118.962 -0.38 -0.00    +0.000 A 
DOCKED: ATOM     18  C   UNL     1      38.191  14.061 119.763 -0.26 -0.00    +0.000 A 
DOCKED: ATOM     19  CM  UNL     1      37.425  14.938 118.992 +0.00 -0.00    +0.000 AC
DOCKED: ENDBRANCH  10  12
DOCKED: ENDBRANCH   8  10
DOCKED: ENDBRANCH   1   8
DOCKED: BRANCH   3  18
DOCKED: ATOM     20  C   UNL     1      36.701  11.602 123.306 -0.70 -0.00    +0.000 C 
DOCKED: ATOM     21  C   UNL     1      36.950  10.881 122.203 -0.58 -0.00    +0.000 C 
DOCKED: BRANCH  19  20
DOCKED: ATOM     22  C   UNL     1      36.892   9.405 122.164 -0.67 -0.00    +0.000 C 
DOCKED: ATOM     23  N   UNL     1      37.035   8.599 123.341 -0.67 -0.00    +0.000 N 
DOCKED: ATOM     24  O   UNL     1      36.738   8.840 121.047 -2.63 -0.00    +0.000 OA
DOCKED: ATOM     25  H   UNL     1      37.270   9.020 124.199 -0.58 -0.00    +0.000 HD
DOCKED: BRANCH  21  24
DOCKED: ATOM     26  O   UNL     1      36.846   7.259 123.275 -1.97 -0.00    +0.000 OA
DOCKED: ATOM     27  H   UNL     1      36.766   6.989 122.348 -0.08 -0.00    +0.000 HD
DOCKED: ENDBRANCH  21  24
DOCKED: ENDBRANCH  19  20
DOCKED: ENDBRANCH   3  18
DOCKED: TORSDOF 6DOCKED: TER
DOCKED: ENDMDL
________________________________________________________________________________


	BEGINNING GENETIC ALGORITHM DOCKING 18 of 100
Run: 18 Seed: 913062928 741546836 [ Run 18 of 100 GA/GALS ]
Beginning LAMARCKIAN GENETIC ALGORITHM (LGA), with a maximum of 2500000 energy evaluations.

Final-Value: -15.017


	FINAL GENETIC ALGORITHM DOCKED STATE
	_______________________________________________


Detailed state:  trans 37.659 13.141 122.071 quatxyzw -0.403945 -0.203386 0.570846 0.685272 center 0.320 0.169 0.303 ntor 6 8.6358 171.9003 75.6173 -150.0276 46.0148 -49.5011
State:	 37.659  13.141 122.071  -0.555 -0.279  0.784 93.486      8.64  171.90   75.62 -150.03   46.01  -49.50

DOCKED: MODEL       18
DOCKED: USER    Run = 18
DOCKED: USER    DPF = ligand_dock.biased.dpf
DOCKED: USER  
DOCKED: USER    Estimated Free Energy of Binding    =  -11.24 kcal/mol  [=(1)+(2)+(3)-(4)]
DOCKED: USER    Estimated Inhibition Constant, Ki   =    5.74 nM (nanomolar)  [Temperature = 298.15 K]
DOCKED: USER    
DOCKED: USER    (1) Final Intermolecular Energy     =  -13.03 kcal/mol
DOCKED: USER        vdW + Hbond + desolv Energy     =  -13.03 kcal/mol
DOCKED: USER        Electrostatic Energy            =   +0.00 kcal/mol
DOCKED: USER    (2) Final Total Internal Energy     =   -1.98 kcal/mol
DOCKED: USER    (3) Torsional Free Energy           =   +1.79 kcal/mol
DOCKED: USER    (4) Unbound System's Energy  [=(2)] =   -1.98 kcal/mol
DOCKED: USER    
DOCKED: USER    
DOCKED: USER    NEWDPF move ligand.dum.pdbqt
DOCKED: USER    NEWDPF about 0.320000 0.169000 0.303000
DOCKED: USER    NEWDPF tran0 37.659005 13.141152 122.071070
DOCKED: USER    NEWDPF quaternion0 -0.403945 -0.203386 0.570846 0.685272
DOCKED: USER    NEWDPF axisangle0 -0.554651 -0.279266 0.783820 93.486030
DOCKED: USER    NEWDPF quat0 -0.554651 -0.279266 0.783820 93.486030
DOCKED: USER    NEWDPF dihe0 8.64 171.90 75.62 -150.03 46.01 -49.50 
DOCKED: USER  keepresnum = 1 
DOCKED: USER  
DOCKED: REMARK  Name = 
DOCKED: REMARK  6 active torsions:
DOCKED: REMARK  status: ('A' for Active; 'I' for Inactive)
DOCKED: REMARK    1  A    between atoms: S_2  and  N_3
DOCKED: REMARK    2  A    between atoms: S_2  and  C_10
DOCKED: REMARK    3  A    between atoms: N_3  and  C_4
DOCKED: REMARK    4  A    between atoms: C_12  and  C_13
DOCKED: REMARK    5  A    between atoms: C_14  and  C_15
DOCKED: REMARK    6  A    between atoms: N_16  and  O_17
DOCKED: REMARK                            x       y       z     vdW  Elec       q    Type
DOCKED: REMARK                         _______ _______ _______ _____ _____    ______ ____
DOCKED: USER                              x       y       z     vdW  Elec       q    Type
DOCKED: USER                           _______ _______ _______ _____ _____    ______ ____
DOCKED: ROOT
DOCKED: ATOM      1  C   UNL     1      38.393  15.209 121.223 -0.26 -0.00    +0.000 A 
DOCKED: ATOM      2  C   UNL     1      38.279  13.820 121.361 -0.37 -0.00    +0.000 A 
DOCKED: ATOM      3  C   UNL     1      37.561  13.061 120.420 -0.43 -0.00    +0.000 A 
DOCKED: ATOM      4  C   UNL     1      36.941  13.726 119.342 -0.34 -0.00    +0.000 A 
DOCKED: ATOM      5  C   UNL     1      37.062  15.111 119.203 -0.22 -0.00    +0.000 A 
DOCKED: ATOM      6  C   UNL     1      37.789  15.852 120.136 -0.17 -0.00    +0.000 A 
DOCKED: ATOM      7  CM  UNL     1      37.671  14.463 120.281 +0.00 -0.00    +0.000 AC
DOCKED: ENDROOT
DOCKED: BRANCH   1   8
DOCKED: ATOM      8  O   UNL     1      39.795  17.425 121.823 -0.13 -0.00    +0.000 OA
DOCKED: ATOM      9  S   UNL     1      39.290  16.141 122.420 -0.35 -0.00    +0.000 S 
DOCKED: ATOM     10  O   UNL     1      40.460  15.325 122.889 -0.51 -0.00    +0.000 OA
DOCKED: BRANCH   8  10
DOCKED: ATOM     11  N   UNL     1      38.270  16.511 123.776 -0.25 -0.00    +0.000 N 
DOCKED: ATOM     12  H   UNL     1      38.683  16.938 124.561 -0.03 -0.00    +0.000 HD
DOCKED: BRANCH  10  12
DOCKED: ATOM     13  C   UNL     1      36.860  16.230 123.820 -0.26 -0.00    +0.000 A 
DOCKED: ATOM     14  C   UNL     1      36.358  14.914 123.786 -0.41 -0.00    +0.000 A 
DOCKED: ATOM     15  C   UNL     1      34.981  14.680 123.840 -0.47 -0.00    +0.000 A 
DOCKED: ATOM     16  C   UNL     1      34.091  15.753 123.923 -0.48 -0.00    +0.000 A 
DOCKED: ATOM     17  C   UNL     1      34.575  17.062 123.950 -0.41 -0.00    +0.000 A 
DOCKED: ATOM     18  C   UNL     1      35.952  17.301 123.898 -0.28 -0.00    +0.000 A 
DOCKED: ATOM     19  CM  UNL     1      35.470  15.990 123.870 -0.02 -0.00    +0.000 AC
DOCKED: ENDBRANCH  10  12
DOCKED: ENDBRANCH   8  10
DOCKED: ENDBRANCH   1   8
DOCKED: BRANCH   3  18
DOCKED: ATOM     20  C   UNL     1      37.453  11.596 120.626 -0.47 -0.00    +0.000 C 
DOCKED: ATOM     21  C   UNL     1      37.053  11.034 121.776 -0.53 -0.00    +0.000 C 
DOCKED: BRANCH  19  20
DOCKED: ATOM     22  C   UNL     1      36.947   9.573 121.976 -0.63 -0.00    +0.000 C 
DOCKED: ATOM     23  N   UNL     1      37.065   8.964 123.269 -0.64 -0.00    +0.000 N 
DOCKED: ATOM     24  O   UNL     1      36.775   8.841 120.965 -2.63 -0.00    +0.000 OA
DOCKED: ATOM     25  H   UNL     1      37.313   9.512 124.049 -0.55 -0.00    +0.000 HD
DOCKED: BRANCH  21  24
DOCKED: ATOM     26  O   UNL     1      36.833   7.638 123.421 -2.16 -0.00    +0.000 OA
DOCKED: ATOM     27  H   UNL     1      36.736   7.225 122.549 -0.05 -0.00    +0.000 HD
DOCKED: ENDBRANCH  21  24
DOCKED: ENDBRANCH  19  20
DOCKED: ENDBRANCH   3  18
DOCKED: TORSDOF 6DOCKED: TER
DOCKED: ENDMDL
________________________________________________________________________________


	BEGINNING GENETIC ALGORITHM DOCKING 19 of 100
Run: 19 Seed: 1717714970 1509328461 [ Run 19 of 100 GA/GALS ]
Beginning LAMARCKIAN GENETIC ALGORITHM (LGA), with a maximum of 2500000 energy evaluations.

Final-Value: -14.759


	FINAL GENETIC ALGORITHM DOCKED STATE
	_______________________________________________


Detailed state:  trans 38.069 12.990 123.041 quatxyzw 0.074764 -0.690173 0.674039 0.252473 center 0.320 0.169 0.303 ntor 6 3.6195 -34.9393 108.1411 146.4919 116.7130 60.6838
State:	 38.069  12.990 123.041   0.077 -0.713  0.697 150.752      3.62  -34.94  108.14  146.49  116.71   60.68

DOCKED: MODEL       19
DOCKED: USER    Run = 19
DOCKED: USER    DPF = ligand_dock.biased.dpf
DOCKED: USER  
DOCKED: USER    Estimated Free Energy of Binding    =  -11.07 kcal/mol  [=(1)+(2)+(3)-(4)]
DOCKED: USER    Estimated Inhibition Constant, Ki   =    7.68 nM (nanomolar)  [Temperature = 298.15 K]
DOCKED: USER    
DOCKED: USER    (1) Final Intermolecular Energy     =  -12.86 kcal/mol
DOCKED: USER        vdW + Hbond + desolv Energy     =  -12.86 kcal/mol
DOCKED: USER        Electrostatic Energy            =   +0.00 kcal/mol
DOCKED: USER    (2) Final Total Internal Energy     =   -1.90 kcal/mol
DOCKED: USER    (3) Torsional Free Energy           =   +1.79 kcal/mol
DOCKED: USER    (4) Unbound System's Energy  [=(2)] =   -1.90 kcal/mol
DOCKED: USER    
DOCKED: USER    
DOCKED: USER    NEWDPF move ligand.dum.pdbqt
DOCKED: USER    NEWDPF about 0.320000 0.169000 0.303000
DOCKED: USER    NEWDPF tran0 38.068511 12.990496 123.040943
DOCKED: USER    NEWDPF quaternion0 0.074764 -0.690173 0.674039 0.252473
DOCKED: USER    NEWDPF axisangle0 0.077267 -0.713281 0.696606 150.752236
DOCKED: USER    NEWDPF quat0 0.077267 -0.713281 0.696606 150.752236
DOCKED: USER    NEWDPF dihe0 3.62 -34.94 108.14 146.49 116.71 60.68 
DOCKED: USER  keepresnum = 1 
DOCKED: USER  
DOCKED: REMARK  Name = 
DOCKED: REMARK  6 active torsions:
DOCKED: REMARK  status: ('A' for Active; 'I' for Inactive)
DOCKED: REMARK    1  A    between atoms: S_2  and  N_3
DOCKED: REMARK    2  A    between atoms: S_2  and  C_10
DOCKED: REMARK    3  A    between atoms: N_3  and  C_4
DOCKED: REMARK    4  A    between atoms: C_12  and  C_13
DOCKED: REMARK    5  A    between atoms: C_14  and  C_15
DOCKED: REMARK    6  A    between atoms: N_16  and  O_17
DOCKED: REMARK                            x       y       z     vdW  Elec       q    Type
DOCKED: REMARK                         _______ _______ _______ _____ _____    ______ ____
DOCKED: USER                              x       y       z     vdW  Elec       q    Type
DOCKED: USER                           _______ _______ _______ _____ _____    ______ ____
DOCKED: ROOT
DOCKED: ATOM      1  C   UNL     1      37.557  15.248 122.619 -0.33 -0.00    +0.000 A 
DOCKED: ATOM      2  C   UNL     1      37.445  13.852 122.573 -0.44 -0.00    +0.000 A 
DOCKED: ATOM      3  C   UNL     1      36.446  13.187 123.305 -0.54 -0.00    +0.000 A 
DOCKED: ATOM      4  C   UNL     1      35.567  13.949 124.102 -0.38 -0.00    +0.000 A 
DOCKED: ATOM      5  C   UNL     1      35.675  15.341 124.141 -0.43 -0.00    +0.000 A 
DOCKED: ATOM      6  C   UNL     1      36.663  15.991 123.399 -0.32 -0.00    +0.000 A 
DOCKED: ATOM      7  CM  UNL     1      36.558  14.595 123.356 +0.00 -0.00    +0.000 AC
DOCKED: ENDROOT
DOCKED: BRANCH   1   8
DOCKED: ATOM      8  O   UNL     1      40.034  16.294 122.560 -0.29 -0.00    +0.000 OA
DOCKED: ATOM      9  S   UNL     1      38.823  16.059 121.701 -0.29 -0.00    +0.000 S 
DOCKED: ATOM     10  O   UNL     1      38.298  17.382 121.221 -0.10 -0.00    +0.000 OA
DOCKED: BRANCH   8  10
DOCKED: ATOM     11  N   UNL     1      39.280  15.094 120.331 -0.22 -0.00    +0.000 N 
DOCKED: ATOM     12  H   UNL     1      40.201  14.749 120.296 -0.04 -0.00    +0.000 HD
DOCKED: BRANCH  10  12
DOCKED: ATOM     13  C   UNL     1      38.393  14.771 119.245 -0.17 -0.00    +0.000 A 
DOCKED: ATOM     14  C   UNL     1      38.382  15.508 118.045 -0.15 -0.00    +0.000 A 
DOCKED: ATOM     15  C   UNL     1      37.512  15.158 117.008 -0.19 -0.00    +0.000 A 
DOCKED: ATOM     16  C   UNL     1      36.642  14.075 117.158 -0.33 -0.00    +0.000 A 
DOCKED: ATOM     17  C   UNL     1      36.638  13.343 118.346 -0.35 -0.00    +0.000 A 
DOCKED: ATOM     18  C   UNL     1      37.508  13.688 119.385 -0.35 -0.00    +0.000 A 
DOCKED: ATOM     19  CM  UNL     1      37.513  14.424 118.198 +0.00 -0.00    +0.000 AC
DOCKED: ENDBRANCH  10  12
DOCKED: ENDBRANCH   8  10
DOCKED: ENDBRANCH   1   8
DOCKED: BRANCH   3  18
DOCKED: ATOM     20  C   UNL     1      36.386  11.706 123.238 -0.70 -0.00    +0.000 C 
DOCKED: ATOM     21  C   UNL     1      37.066  10.974 122.343 -0.56 -0.00    +0.000 C 
DOCKED: BRANCH  19  20
DOCKED: ATOM     22  C   UNL     1      37.004   9.499 122.280 -0.63 -0.00    +0.000 C 
DOCKED: ATOM     23  N   UNL     1      37.257   8.670 123.422 -0.61 -0.00    +0.000 N 
DOCKED: ATOM     24  O   UNL     1      36.745   8.956 121.173 -2.63 -0.00    +0.000 OA
DOCKED: ATOM     25  H   UNL     1      37.572   9.075 124.263 -0.61 -0.00    +0.000 HD
DOCKED: BRANCH  21  24
DOCKED: ATOM     26  O   UNL     1      37.062   7.331 123.349 -2.11 -0.00    +0.000 OA
DOCKED: ATOM     27  H   UNL     1      36.808   7.091 122.445 -0.07 -0.00    +0.000 HD
DOCKED: ENDBRANCH  21  24
DOCKED: ENDBRANCH  19  20
DOCKED: ENDBRANCH   3  18
DOCKED: TORSDOF 6DOCKED: TER
DOCKED: ENDMDL
________________________________________________________________________________


	BEGINNING GENETIC ALGORITHM DOCKING 20 of 100
Run: 20 Seed: 1130198420 97634159 [ Run 20 of 100 GA/GALS ]
Beginning LAMARCKIAN GENETIC ALGORITHM (LGA), with a maximum of 2500000 energy evaluations.

Final-Value: -14.941


	FINAL GENETIC ALGORITHM DOCKED STATE
	_______________________________________________


Detailed state:  trans 35.709 13.194 122.298 quatxyzw 0.735989 -0.298593 0.025933 -0.607034 center 0.320 0.169 0.303 ntor 6 12.0377 102.4421 -61.0440 -179.3426 165.8451 140.5336
State:	 35.709  13.194 122.298   0.926 -0.376  0.033 -105.249     12.04  102.44  -61.04 -179.34  165.85  140.53

DOCKED: MODEL       20
DOCKED: USER    Run = 20
DOCKED: USER    DPF = ligand_dock.biased.dpf
DOCKED: USER  
DOCKED: USER    Estimated Free Energy of Binding    =  -11.60 kcal/mol  [=(1)+(2)+(3)-(4)]
DOCKED: USER    Estimated Inhibition Constant, Ki   =    3.16 nM (nanomolar)  [Temperature = 298.15 K]
DOCKED: USER    
DOCKED: USER    (1) Final Intermolecular Energy     =  -13.39 kcal/mol
DOCKED: USER        vdW + Hbond + desolv Energy     =  -13.39 kcal/mol
DOCKED: USER        Electrostatic Energy            =   +0.00 kcal/mol
DOCKED: USER    (2) Final Total Internal Energy     =   -1.55 kcal/mol
DOCKED: USER    (3) Torsional Free Energy           =   +1.79 kcal/mol
DOCKED: USER    (4) Unbound System's Energy  [=(2)] =   -1.55 kcal/mol
DOCKED: USER    
DOCKED: USER    
DOCKED: USER    NEWDPF move ligand.dum.pdbqt
DOCKED: USER    NEWDPF about 0.320000 0.169000 0.303000
DOCKED: USER    NEWDPF tran0 35.708917 13.193585 122.297706
DOCKED: USER    NEWDPF quaternion0 0.735989 -0.298593 0.025933 -0.607034
DOCKED: USER    NEWDPF axisangle0 0.926150 -0.375742 0.032633 -105.249275
DOCKED: USER    NEWDPF quat0 0.926150 -0.375742 0.032633 -105.249275
DOCKED: USER    NEWDPF dihe0 12.04 102.44 -61.04 -179.34 165.85 140.53 
DOCKED: USER  keepresnum = 1 
DOCKED: USER  
DOCKED: REMARK  Name = 
DOCKED: REMARK  6 active torsions:
DOCKED: REMARK  status: ('A' for Active; 'I' for Inactive)
DOCKED: REMARK    1  A    between atoms: S_2  and  N_3
DOCKED: REMARK    2  A    between atoms: S_2  and  C_10
DOCKED: REMARK    3  A    between atoms: N_3  and  C_4
DOCKED: REMARK    4  A    between atoms: C_12  and  C_13
DOCKED: REMARK    5  A    between atoms: C_14  and  C_15
DOCKED: REMARK    6  A    between atoms: N_16  and  O_17
DOCKED: REMARK                            x       y       z     vdW  Elec       q    Type
DOCKED: REMARK                         _______ _______ _______ _____ _____    ______ ____
DOCKED: USER                              x       y       z     vdW  Elec       q    Type
DOCKED: USER                           _______ _______ _______ _____ _____    ______ ____
DOCKED: ROOT
DOCKED: ATOM      1  C   UNL     1      35.847  15.394 123.117 -0.37 -0.00    +0.000 A 
DOCKED: ATOM      2  C   UNL     1      36.101  14.020 123.014 -0.37 -0.00    +0.000 A 
DOCKED: ATOM      3  C   UNL     1      37.315  13.552 122.482 -0.46 -0.00    +0.000 A 
DOCKED: ATOM      4  C   UNL     1      38.269  14.490 122.038 -0.37 -0.00    +0.000 A 
DOCKED: ATOM      5  C   UNL     1      38.018  15.860 122.149 -0.24 -0.00    +0.000 A 
DOCKED: ATOM      6  C   UNL     1      36.814  16.313 122.691 -0.26 -0.00    +0.000 A 
DOCKED: ATOM      7  CM  UNL     1      37.061  14.938 122.582 +0.00 -0.00    +0.000 AC
DOCKED: ENDROOT
DOCKED: BRANCH   1   8
DOCKED: ATOM      8  O   UNL     1      33.314  14.838 123.830 -0.67 -0.00    +0.000 OA
DOCKED: ATOM      9  S   UNL     1      34.315  15.959 123.778 -0.67 -0.00    +0.000 S 
DOCKED: ATOM     10  O   UNL     1      33.782  17.051 122.896 -0.43 -0.00    +0.000 OA
DOCKED: BRANCH   8  10
DOCKED: ATOM     11  N   UNL     1      34.549  16.583 125.382 -0.42 -0.00    +0.000 N 
DOCKED: ATOM     12  H   UNL     1      34.803  15.950 126.091 -0.02 -0.00    +0.000 HD
DOCKED: BRANCH  10  12
DOCKED: ATOM     13  C   UNL     1      34.394  17.970 125.734 -0.32 -0.00    +0.000 A 
DOCKED: ATOM     14  C   UNL     1      35.328  18.949 125.343 -0.21 -0.00    +0.000 A 
DOCKED: ATOM     15  C   UNL     1      35.139  20.288 125.697 -0.15 -0.00    +0.000 A 
DOCKED: ATOM     16  C   UNL     1      34.022  20.664 126.447 -0.15 -0.00    +0.000 A 
DOCKED: ATOM     17  C   UNL     1      33.094  19.701 126.847 -0.20 -0.00    +0.000 A 
DOCKED: ATOM     18  C   UNL     1      33.278  18.360 126.494 -0.28 -0.00    +0.000 A 
DOCKED: ATOM     19  CM  UNL     1      34.209  19.322 126.093 -0.03 -0.00    +0.000 AC
DOCKED: ENDBRANCH  10  12
DOCKED: ENDBRANCH   8  10
DOCKED: ENDBRANCH   1   8
DOCKED: BRANCH   3  18
DOCKED: ATOM     20  C   UNL     1      37.522  12.087 122.374 -0.31 -0.00    +0.000 C 
DOCKED: ATOM     21  C   UNL     1      36.521  11.194 122.347 -0.66 -0.00    +0.000 C 
DOCKED: BRANCH  19  20
DOCKED: ATOM     22  C   UNL     1      36.733   9.735 122.239 -0.68 -0.00    +0.000 C 
DOCKED: ATOM     23  N   UNL     1      37.004   8.913 123.382 -0.61 -0.00    +0.000 N 
DOCKED: ATOM     24  O   UNL     1      36.700   9.207 121.096 -2.62 -0.00    +0.000 OA
DOCKED: ATOM     25  H   UNL     1      37.147   9.327 124.263 -0.57 -0.00    +0.000 HD
DOCKED: BRANCH  21  24
DOCKED: ATOM     26  O   UNL     1      37.064   7.565 123.252 -2.25 -0.00    +0.000 OA
DOCKED: ATOM     27  H   UNL     1      37.092   7.332 122.311 -0.08 -0.00    +0.000 HD
DOCKED: ENDBRANCH  21  24
DOCKED: ENDBRANCH  19  20
DOCKED: ENDBRANCH   3  18
DOCKED: TORSDOF 6DOCKED: TER
DOCKED: ENDMDL
________________________________________________________________________________


	BEGINNING GENETIC ALGORITHM DOCKING 21 of 100
Run: 21 Seed: 955608046 92851872 [ Run 21 of 100 GA/GALS ]
Beginning LAMARCKIAN GENETIC ALGORITHM (LGA), with a maximum of 2500000 energy evaluations.

Final-Value: -14.483


	FINAL GENETIC ALGORITHM DOCKED STATE
	_______________________________________________


Detailed state:  trans 38.317 13.569 122.933 quatxyzw 0.144801 -0.677216 0.614355 0.378125 center 0.320 0.169 0.303 ntor 6 14.9573 82.7900 49.2161 44.6818 -60.6276 26.5893
State:	 38.317  13.569 122.933   0.156 -0.732  0.664 135.565     14.96   82.79   49.22   44.68  -60.63   26.59

DOCKED: MODEL       21
DOCKED: USER    Run = 21
DOCKED: USER    DPF = ligand_dock.biased.dpf
DOCKED: USER  
DOCKED: USER    Estimated Free Energy of Binding    =  -11.19 kcal/mol  [=(1)+(2)+(3)-(4)]
DOCKED: USER    Estimated Inhibition Constant, Ki   =    6.32 nM (nanomolar)  [Temperature = 298.15 K]
DOCKED: USER    
DOCKED: USER    (1) Final Intermolecular Energy     =  -12.98 kcal/mol
DOCKED: USER        vdW + Hbond + desolv Energy     =  -12.98 kcal/mol
DOCKED: USER        Electrostatic Energy            =   +0.00 kcal/mol
DOCKED: USER    (2) Final Total Internal Energy     =   -1.51 kcal/mol
DOCKED: USER    (3) Torsional Free Energy           =   +1.79 kcal/mol
DOCKED: USER    (4) Unbound System's Energy  [=(2)] =   -1.51 kcal/mol
DOCKED: USER    
DOCKED: USER    
DOCKED: USER    NEWDPF move ligand.dum.pdbqt
DOCKED: USER    NEWDPF about 0.320000 0.169000 0.303000
DOCKED: USER    NEWDPF tran0 38.316607 13.569446 122.932638
DOCKED: USER    NEWDPF quaternion0 0.144801 -0.677216 0.614355 0.378125
DOCKED: USER    NEWDPF axisangle0 0.156414 -0.731529 0.663626 135.564768
DOCKED: USER    NEWDPF quat0 0.156414 -0.731529 0.663626 135.564768
DOCKED: USER    NEWDPF dihe0 14.96 82.79 49.22 44.68 -60.63 26.59 
DOCKED: USER  keepresnum = 1 
DOCKED: USER  
DOCKED: REMARK  Name = 
DOCKED: REMARK  6 active torsions:
DOCKED: REMARK  status: ('A' for Active; 'I' for Inactive)
DOCKED: REMARK    1  A    between atoms: S_2  and  N_3
DOCKED: REMARK    2  A    between atoms: S_2  and  C_10
DOCKED: REMARK    3  A    between atoms: N_3  and  C_4
DOCKED: REMARK    4  A    between atoms: C_12  and  C_13
DOCKED: REMARK    5  A    between atoms: C_14  and  C_15
DOCKED: REMARK    6  A    between atoms: N_16  and  O_17
DOCKED: REMARK                            x       y       z     vdW  Elec       q    Type
DOCKED: REMARK                         _______ _______ _______ _____ _____    ______ ____
DOCKED: USER                              x       y       z     vdW  Elec       q    Type
DOCKED: USER                           _______ _______ _______ _____ _____    ______ ____
DOCKED: ROOT
DOCKED: ATOM      1  C   UNL     1      37.189  15.599 122.552 -0.30 -0.00    +0.000 A 
DOCKED: ATOM      2  C   UNL     1      37.499  14.237 122.446 -0.41 -0.00    +0.000 A 
DOCKED: ATOM      3  C   UNL     1      36.694  13.267 123.068 -0.53 -0.00    +0.000 A 
DOCKED: ATOM      4  C   UNL     1      35.577  13.689 123.817 -0.45 -0.00    +0.000 A 
DOCKED: ATOM      5  C   UNL     1      35.265  15.048 123.915 -0.50 -0.00    +0.000 A 
DOCKED: ATOM      6  C   UNL     1      36.064  16.001 123.281 -0.35 -0.00    +0.000 A 
DOCKED: ATOM      7  CM  UNL     1      36.381  14.640 123.180 +0.00 -0.00    +0.000 AC
DOCKED: ENDROOT
DOCKED: BRANCH   1   8
DOCKED: ATOM      8  O   UNL     1      38.621  17.867 122.749 -0.14 -0.00    +0.000 OA
DOCKED: ATOM      9  S   UNL     1      38.217  16.798 121.772 -0.21 -0.00    +0.000 S 
DOCKED: ATOM     10  O   UNL     1      37.454  17.429 120.644 -0.11 -0.00    +0.000 OA
DOCKED: BRANCH   8  10
DOCKED: ATOM     11  N   UNL     1      39.647  16.040 121.141 -0.19 -0.00    +0.000 N 
DOCKED: ATOM     12  H   UNL     1      39.542  15.401 120.400 -0.01 -0.00    +0.000 HD
DOCKED: BRANCH  10  12
DOCKED: ATOM     13  C   UNL     1      40.975  16.291 121.638 -0.24 -0.00    +0.000 A 
DOCKED: ATOM     14  C   UNL     1      41.236  16.480 123.009 -0.35 -0.00    +0.000 A 
DOCKED: ATOM     15  C   UNL     1      42.541  16.713 123.455 -0.30 -0.00    +0.000 A 
DOCKED: ATOM     16  C   UNL     1      43.595  16.764 122.540 -0.34 -0.00    +0.000 A 
DOCKED: ATOM     17  C   UNL     1      43.347  16.586 121.178 -0.23 -0.00    +0.000 A 
DOCKED: ATOM     18  C   UNL     1      42.044  16.352 120.728 -0.20 -0.00    +0.000 A 
DOCKED: ATOM     19  CM  UNL     1      42.290  16.530 122.091 +0.00 -0.00    +0.000 AC
DOCKED: ENDBRANCH  10  12
DOCKED: ENDBRANCH   8  10
DOCKED: ENDBRANCH   1   8
DOCKED: BRANCH   3  18
DOCKED: ATOM     20  C   UNL     1      37.081  11.839 122.943 -0.64 -0.00    +0.000 C 
DOCKED: ATOM     21  C   UNL     1      36.351  10.926 122.286 -0.66 -0.00    +0.000 C 
DOCKED: BRANCH  19  20
DOCKED: ATOM     22  C   UNL     1      36.740   9.506 122.163 -0.69 -0.00    +0.000 C 
DOCKED: ATOM     23  N   UNL     1      36.830   8.633 123.298 -0.66 -0.00    +0.000 N 
DOCKED: ATOM     24  O   UNL     1      37.029   9.059 121.021 -2.71 -0.00    +0.000 OA
DOCKED: ATOM     25  H   UNL     1      36.719   8.996 124.206 -0.47 -0.00    +0.000 HD
DOCKED: BRANCH  21  24
DOCKED: ATOM     26  O   UNL     1      37.065   7.310 123.123 -2.13 -0.00    +0.000 OA
DOCKED: ATOM     27  H   UNL     1      37.379   7.155 122.219 -0.17 -0.00    +0.000 HD
DOCKED: ENDBRANCH  21  24
DOCKED: ENDBRANCH  19  20
DOCKED: ENDBRANCH   3  18
DOCKED: TORSDOF 6DOCKED: TER
DOCKED: ENDMDL
________________________________________________________________________________


	BEGINNING GENETIC ALGORITHM DOCKING 22 of 100
Run: 22 Seed: 514344231 585338057 [ Run 22 of 100 GA/GALS ]
Beginning LAMARCKIAN GENETIC ALGORITHM (LGA), with a maximum of 2500000 energy evaluations.

Final-Value: -14.912


	FINAL GENETIC ALGORITHM DOCKED STATE
	_______________________________________________


Detailed state:  trans 35.736 13.136 122.390 quatxyzw 0.771788 -0.321899 -0.008806 -0.548313 center 0.320 0.169 0.303 ntor 6 8.8510 131.2742 164.2681 147.4109 -75.7718 -130.9965
State:	 35.736  13.136 122.390   0.923 -0.385 -0.011 -113.497      8.85  131.27  164.27  147.41  -75.77 -131.00

DOCKED: MODEL       22
DOCKED: USER    Run = 22
DOCKED: USER    DPF = ligand_dock.biased.dpf
DOCKED: USER  
DOCKED: USER    Estimated Free Energy of Binding    =  -11.69 kcal/mol  [=(1)+(2)+(3)-(4)]
DOCKED: USER    Estimated Inhibition Constant, Ki   =    2.68 nM (nanomolar)  [Temperature = 298.15 K]
DOCKED: USER    
DOCKED: USER    (1) Final Intermolecular Energy     =  -13.48 kcal/mol
DOCKED: USER        vdW + Hbond + desolv Energy     =  -13.48 kcal/mol
DOCKED: USER        Electrostatic Energy            =   +0.00 kcal/mol
DOCKED: USER    (2) Final Total Internal Energy     =   -1.43 kcal/mol
DOCKED: USER    (3) Torsional Free Energy           =   +1.79 kcal/mol
DOCKED: USER    (4) Unbound System's Energy  [=(2)] =   -1.43 kcal/mol
DOCKED: USER    
DOCKED: USER    
DOCKED: USER    NEWDPF move ligand.dum.pdbqt
DOCKED: USER    NEWDPF about 0.320000 0.169000 0.303000
DOCKED: USER    NEWDPF tran0 35.735524 13.135766 122.389560
DOCKED: USER    NEWDPF quaternion0 0.771788 -0.321899 -0.008806 -0.548313
DOCKED: USER    NEWDPF axisangle0 0.922890 -0.384921 -0.010530 -113.497255
DOCKED: USER    NEWDPF quat0 0.922890 -0.384921 -0.010530 -113.497255
DOCKED: USER    NEWDPF dihe0 8.85 131.27 164.27 147.41 -75.77 -131.00 
DOCKED: USER  keepresnum = 1 
DOCKED: USER  
DOCKED: REMARK  Name = 
DOCKED: REMARK  6 active torsions:
DOCKED: REMARK  status: ('A' for Active; 'I' for Inactive)
DOCKED: REMARK    1  A    between atoms: S_2  and  N_3
DOCKED: REMARK    2  A    between atoms: S_2  and  C_10
DOCKED: REMARK    3  A    between atoms: N_3  and  C_4
DOCKED: REMARK    4  A    between atoms: C_12  and  C_13
DOCKED: REMARK    5  A    between atoms: C_14  and  C_15
DOCKED: REMARK    6  A    between atoms: N_16  and  O_17
DOCKED: REMARK                            x       y       z     vdW  Elec       q    Type
DOCKED: REMARK                         _______ _______ _______ _____ _____    ______ ____
DOCKED: USER                              x       y       z     vdW  Elec       q    Type
DOCKED: USER                           _______ _______ _______ _____ _____    ______ ____
DOCKED: ROOT
DOCKED: ATOM      1  C   UNL     1      35.975  15.177 123.534 -0.43 -0.00    +0.000 A 
DOCKED: ATOM      2  C   UNL     1      36.159  13.823 123.225 -0.46 -0.00    +0.000 A 
DOCKED: ATOM      3  C   UNL     1      37.355  13.377 122.636 -0.48 -0.00    +0.000 A 
DOCKED: ATOM      4  C   UNL     1      38.362  14.320 122.346 -0.40 -0.00    +0.000 A 
DOCKED: ATOM      5  C   UNL     1      38.179  15.669 122.661 -0.29 -0.00    +0.000 A 
DOCKED: ATOM      6  C   UNL     1      36.992  16.097 123.259 -0.29 -0.00    +0.000 A 
DOCKED: ATOM      7  CM  UNL     1      37.171  14.744 122.944 +0.00 -0.00    +0.000 AC
DOCKED: ENDROOT
DOCKED: BRANCH   1   8
DOCKED: ATOM      8  O   UNL     1      34.393  15.301 125.706 -0.54 -0.00    +0.000 OA
DOCKED: ATOM      9  S   UNL     1      34.464  15.715 124.263 -0.73 -0.00    +0.000 S 
DOCKED: ATOM     10  O   UNL     1      33.319  15.092 123.517 -0.51 -0.00    +0.000 OA
DOCKED: BRANCH   8  10
DOCKED: ATOM     11  N   UNL     1      34.335  17.445 124.164 -0.39 -0.00    +0.000 N 
DOCKED: ATOM     12  H   UNL     1      34.474  17.869 123.287 -0.02 -0.00    +0.000 HD
DOCKED: BRANCH  10  12
DOCKED: ATOM     13  C   UNL     1      34.039  18.293 125.288 -0.32 -0.00    +0.000 A 
DOCKED: ATOM     14  C   UNL     1      34.468  19.634 125.346 -0.18 -0.00    +0.000 A 
DOCKED: ATOM     15  C   UNL     1      34.152  20.430 126.451 -0.15 -0.00    +0.000 A 
DOCKED: ATOM     16  C   UNL     1      33.412  19.899 127.509 -0.13 -0.00    +0.000 A 
DOCKED: ATOM     17  C   UNL     1      32.987  18.570 127.466 -0.22 -0.00    +0.000 A 
DOCKED: ATOM     18  C   UNL     1      33.299  17.770 126.363 -0.28 -0.00    +0.000 A 
DOCKED: ATOM     19  CM  UNL     1      33.726  19.099 126.404 -0.01 -0.00    +0.000 AC
DOCKED: ENDBRANCH  10  12
DOCKED: ENDBRANCH   8  10
DOCKED: ENDBRANCH   1   8
DOCKED: BRANCH   3  18
DOCKED: ATOM     20  C   UNL     1      37.489  11.936 122.309 -0.31 -0.00    +0.000 C 
DOCKED: ATOM     21  C   UNL     1      36.635  10.994 122.738 -0.68 -0.00    +0.000 C 
DOCKED: BRANCH  19  20
DOCKED: ATOM     22  C   UNL     1      36.773   9.560 122.409 -0.69 -0.00    +0.000 C 
DOCKED: ATOM     23  N   UNL     1      37.077   8.570 123.401 -0.67 -0.00    +0.000 N 
DOCKED: ATOM     24  O   UNL     1      36.644   9.205 121.207 -2.58 -0.00    +0.000 OA
DOCKED: ATOM     25  H   UNL     1      37.293   8.847 124.321 -0.57 -0.00    +0.000 HD
DOCKED: BRANCH  21  24
DOCKED: ATOM     26  O   UNL     1      37.067   7.254 123.076 -2.07 -0.00    +0.000 OA
DOCKED: ATOM     27  H   UNL     1      36.975   7.160 122.116 -0.09 -0.00    +0.000 HD
DOCKED: ENDBRANCH  21  24
DOCKED: ENDBRANCH  19  20
DOCKED: ENDBRANCH   3  18
DOCKED: TORSDOF 6DOCKED: TER
DOCKED: ENDMDL
________________________________________________________________________________


	BEGINNING GENETIC ALGORITHM DOCKING 23 of 100
Run: 23 Seed: 514458709 835130489 [ Run 23 of 100 GA/GALS ]
Beginning LAMARCKIAN GENETIC ALGORITHM (LGA), with a maximum of 2500000 energy evaluations.

Final-Value: -15.080


	FINAL GENETIC ALGORITHM DOCKED STATE
	_______________________________________________


Detailed state:  trans 38.328 13.179 123.652 quatxyzw -0.003971 0.636555 -0.657217 -0.403544 center 0.320 0.169 0.303 ntor 6 16.3717 22.7159 -104.0940 84.0305 -121.1333 20.5028
State:	 38.328  13.179 123.652  -0.004  0.696 -0.718 -132.400     16.37   22.72 -104.09   84.03 -121.13   20.50

DOCKED: MODEL       23
DOCKED: USER    Run = 23
DOCKED: USER    DPF = ligand_dock.biased.dpf
DOCKED: USER  
DOCKED: USER    Estimated Free Energy of Binding    =  -11.81 kcal/mol  [=(1)+(2)+(3)-(4)]
DOCKED: USER    Estimated Inhibition Constant, Ki   =    2.19 nM (nanomolar)  [Temperature = 298.15 K]
DOCKED: USER    
DOCKED: USER    (1) Final Intermolecular Energy     =  -13.60 kcal/mol
DOCKED: USER        vdW + Hbond + desolv Energy     =  -13.60 kcal/mol
DOCKED: USER        Electrostatic Energy            =   +0.00 kcal/mol
DOCKED: USER    (2) Final Total Internal Energy     =   -1.48 kcal/mol
DOCKED: USER    (3) Torsional Free Energy           =   +1.79 kcal/mol
DOCKED: USER    (4) Unbound System's Energy  [=(2)] =   -1.48 kcal/mol
DOCKED: USER    
DOCKED: USER    
DOCKED: USER    NEWDPF move ligand.dum.pdbqt
DOCKED: USER    NEWDPF about 0.320000 0.169000 0.303000
DOCKED: USER    NEWDPF tran0 38.327869 13.179117 123.652124
DOCKED: USER    NEWDPF quaternion0 -0.003971 0.636555 -0.657217 -0.403544
DOCKED: USER    NEWDPF axisangle0 -0.004340 0.695719 -0.718301 -132.400222
DOCKED: USER    NEWDPF quat0 -0.004340 0.695719 -0.718301 -132.400222
DOCKED: USER    NEWDPF dihe0 16.37 22.72 -104.09 84.03 -121.13 20.50 
DOCKED: USER  keepresnum = 1 
DOCKED: USER  
DOCKED: REMARK  Name = 
DOCKED: REMARK  6 active torsions:
DOCKED: REMARK  status: ('A' for Active; 'I' for Inactive)
DOCKED: REMARK    1  A    between atoms: S_2  and  N_3
DOCKED: REMARK    2  A    between atoms: S_2  and  C_10
DOCKED: REMARK    3  A    between atoms: N_3  and  C_4
DOCKED: REMARK    4  A    between atoms: C_12  and  C_13
DOCKED: REMARK    5  A    between atoms: C_14  and  C_15
DOCKED: REMARK    6  A    between atoms: N_16  and  O_17
DOCKED: REMARK                            x       y       z     vdW  Elec       q    Type
DOCKED: REMARK                         _______ _______ _______ _____ _____    ______ ____
DOCKED: USER                              x       y       z     vdW  Elec       q    Type
DOCKED: USER                           _______ _______ _______ _____ _____    ______ ____
DOCKED: ROOT
DOCKED: ATOM      1  C   UNL     1      37.708  15.371 123.063 -0.33 -0.00    +0.000 A 
DOCKED: ATOM      2  C   UNL     1      37.788  13.973 122.998 -0.45 -0.00    +0.000 A 
DOCKED: ATOM      3  C   UNL     1      36.696  13.173 123.374 -0.55 -0.00    +0.000 A 
DOCKED: ATOM      4  C   UNL     1      35.520  13.801 123.835 -0.43 -0.00    +0.000 A 
DOCKED: ATOM      5  C   UNL     1      35.440  15.195 123.892 -0.48 -0.00    +0.000 A 
DOCKED: ATOM      6  C   UNL     1      36.527  15.979 123.502 -0.33 -0.00    +0.000 A 
DOCKED: ATOM      7  CM  UNL     1      36.613  14.582 123.444 +0.00 -0.00    +0.000 AC
DOCKED: ENDROOT
DOCKED: BRANCH   1   8
DOCKED: ATOM      8  O   UNL     1      39.334  17.445 123.601 -0.25 -0.00    +0.000 OA
DOCKED: ATOM      9  S   UNL     1      39.094  16.354 122.595 -0.33 -0.00    +0.000 S 
DOCKED: ATOM     10  O   UNL     1      38.816  16.974 121.257 -0.12 -0.00    +0.000 OA
DOCKED: BRANCH   8  10
DOCKED: ATOM     11  N   UNL     1      40.517  15.365 122.483 -0.40 -0.00    +0.000 N 
DOCKED: ATOM     12  H   UNL     1      40.414  14.392 122.591 -0.04 -0.00    +0.000 HD
DOCKED: BRANCH  10  12
DOCKED: ATOM     13  C   UNL     1      41.838  15.883 122.241 -0.39 -0.00    +0.000 A 
DOCKED: ATOM     14  C   UNL     1      42.559  15.575 121.071 -0.20 -0.00    +0.000 A 
DOCKED: ATOM     15  C   UNL     1      43.836  16.105 120.867 -0.24 -0.00    +0.000 A 
DOCKED: ATOM     16  C   UNL     1      44.409  16.942 121.827 -0.26 -0.00    +0.000 A 
DOCKED: ATOM     17  C   UNL     1      43.708  17.248 122.994 -0.26 -0.00    +0.000 A 
DOCKED: ATOM     18  C   UNL     1      42.429  16.722 123.202 -0.36 -0.00    +0.000 A 
DOCKED: ATOM     19  CM  UNL     1      43.130  16.413 122.033 +0.00 -0.00    +0.000 AC
DOCKED: ENDBRANCH  10  12
DOCKED: ENDBRANCH   8  10
DOCKED: ENDBRANCH   1   8
DOCKED: BRANCH   3  18
DOCKED: ATOM     20  C   UNL     1      36.842  11.698 123.308 -0.69 -0.00    +0.000 C 
DOCKED: ATOM     21  C   UNL     1      36.831  11.001 122.162 -0.61 -0.00    +0.000 C 
DOCKED: BRANCH  19  20
DOCKED: ATOM     22  C   UNL     1      36.977   9.531 122.101 -0.63 -0.00    +0.000 C 
DOCKED: ATOM     23  N   UNL     1      37.051   8.717 123.279 -0.67 -0.00    +0.000 N 
DOCKED: ATOM     24  O   UNL     1      37.068   8.984 120.969 -2.72 -0.00    +0.000 OA
DOCKED: ATOM     25  H   UNL     1      37.097   9.141 124.166 -0.56 -0.00    +0.000 HD
DOCKED: BRANCH  21  24
DOCKED: ATOM     26  O   UNL     1      37.055   7.366 123.174 -2.16 -0.00    +0.000 OA
DOCKED: ATOM     27  H   UNL     1      37.264   7.114 122.261 -0.15 -0.00    +0.000 HD
DOCKED: ENDBRANCH  21  24
DOCKED: ENDBRANCH  19  20
DOCKED: ENDBRANCH   3  18
DOCKED: TORSDOF 6DOCKED: TER
DOCKED: ENDMDL
________________________________________________________________________________


	BEGINNING GENETIC ALGORITHM DOCKING 24 of 100
Run: 24 Seed: 622986904 591079005 [ Run 24 of 100 GA/GALS ]
Beginning LAMARCKIAN GENETIC ALGORITHM (LGA), with a maximum of 2500000 energy evaluations.

Final-Value: -14.828


	FINAL GENETIC ALGORITHM DOCKED STATE
	_______________________________________________


Detailed state:  trans 37.841 13.184 122.424 quatxyzw -0.243432 0.694040 -0.651534 -0.185881 center 0.320 0.169 0.303 ntor 6 21.7259 7.9818 -63.2495 135.8901 -21.2673 -8.7002
State:	 37.841  13.184 122.424  -0.248  0.706 -0.663 -158.575     21.73    7.98  -63.25  135.89  -21.27   -8.70

DOCKED: MODEL       24
DOCKED: USER    Run = 24
DOCKED: USER    DPF = ligand_dock.biased.dpf
DOCKED: USER  
DOCKED: USER    Estimated Free Energy of Binding    =  -11.35 kcal/mol  [=(1)+(2)+(3)-(4)]
DOCKED: USER    Estimated Inhibition Constant, Ki   =    4.78 nM (nanomolar)  [Temperature = 298.15 K]
DOCKED: USER    
DOCKED: USER    (1) Final Intermolecular Energy     =  -13.14 kcal/mol
DOCKED: USER        vdW + Hbond + desolv Energy     =  -13.14 kcal/mol
DOCKED: USER        Electrostatic Energy            =   +0.00 kcal/mol
DOCKED: USER    (2) Final Total Internal Energy     =   -1.69 kcal/mol
DOCKED: USER    (3) Torsional Free Energy           =   +1.79 kcal/mol
DOCKED: USER    (4) Unbound System's Energy  [=(2)] =   -1.69 kcal/mol
DOCKED: USER    
DOCKED: USER    
DOCKED: USER    NEWDPF move ligand.dum.pdbqt
DOCKED: USER    NEWDPF about 0.320000 0.169000 0.303000
DOCKED: USER    NEWDPF tran0 37.840991 13.184172 122.424279
DOCKED: USER    NEWDPF quaternion0 -0.243432 0.694040 -0.651534 -0.185881
DOCKED: USER    NEWDPF axisangle0 -0.247750 0.706350 -0.663090 -158.574980
DOCKED: USER    NEWDPF quat0 -0.247750 0.706350 -0.663090 -158.574980
DOCKED: USER    NEWDPF dihe0 21.73 7.98 -63.25 135.89 -21.27 -8.70 
DOCKED: USER  keepresnum = 1 
DOCKED: USER  
DOCKED: REMARK  Name = 
DOCKED: REMARK  6 active torsions:
DOCKED: REMARK  status: ('A' for Active; 'I' for Inactive)
DOCKED: REMARK    1  A    between atoms: S_2  and  N_3
DOCKED: REMARK    2  A    between atoms: S_2  and  C_10
DOCKED: REMARK    3  A    between atoms: N_3  and  C_4
DOCKED: REMARK    4  A    between atoms: C_12  and  C_13
DOCKED: REMARK    5  A    between atoms: C_14  and  C_15
DOCKED: REMARK    6  A    between atoms: N_16  and  O_17
DOCKED: REMARK                            x       y       z     vdW  Elec       q    Type
DOCKED: REMARK                         _______ _______ _______ _____ _____    ______ ____
DOCKED: USER                              x       y       z     vdW  Elec       q    Type
DOCKED: USER                           _______ _______ _______ _____ _____    ______ ____
DOCKED: ROOT
DOCKED: ATOM      1  C   UNL     1      36.867  15.303 122.117 -0.27 -0.00    +0.000 A 
DOCKED: ATOM      2  C   UNL     1      36.972  13.907 122.156 -0.38 -0.00    +0.000 A 
DOCKED: ATOM      3  C   UNL     1      36.375  13.170 123.193 -0.54 -0.00    +0.000 A 
DOCKED: ATOM      4  C   UNL     1      35.680  13.863 124.206 -0.33 -0.00    +0.000 A 
DOCKED: ATOM      5  C   UNL     1      35.570  15.255 124.162 -0.45 -0.00    +0.000 A 
DOCKED: ATOM      6  C   UNL     1      36.156  15.975 123.119 -0.34 -0.00    +0.000 A 
DOCKED: ATOM      7  CM  UNL     1      36.270  14.579 123.159 +0.00 -0.00    +0.000 AC
DOCKED: ENDROOT
DOCKED: BRANCH   1   8
DOCKED: ATOM      8  O   UNL     1      37.735  17.665 121.166 -0.10 -0.00    +0.000 OA
DOCKED: ATOM      9  S   UNL     1      37.631  16.207 120.812 -0.23 -0.00    +0.000 S 
DOCKED: ATOM     10  O   UNL     1      36.799  16.062 119.571 -0.19 -0.00    +0.000 OA
DOCKED: BRANCH   8  10
DOCKED: ATOM     11  N   UNL     1      39.224  15.585 120.508 -0.20 -0.00    +0.000 N 
DOCKED: ATOM     12  H   UNL     1      39.361  15.042 119.699 -0.05 -0.00    +0.000 HD
DOCKED: BRANCH  10  12
DOCKED: ATOM     13  C   UNL     1      40.355  15.816 121.368 -0.24 -0.00    +0.000 A 
DOCKED: ATOM     14  C   UNL     1      41.016  17.059 121.415 -0.15 -0.00    +0.000 A 
DOCKED: ATOM     15  C   UNL     1      42.105  17.249 122.271 -0.24 -0.00    +0.000 A 
DOCKED: ATOM     16  C   UNL     1      42.549  16.203 123.083 -0.39 -0.00    +0.000 A 
DOCKED: ATOM     17  C   UNL     1      41.907  14.965 123.039 -0.43 +0.00    +0.000 A 
DOCKED: ATOM     18  C   UNL     1      40.816  14.771 122.186 -0.38 -0.00    +0.000 A 
DOCKED: ATOM     19  CM  UNL     1      41.457  16.011 122.227 +0.00 -0.00    +0.000 AC
DOCKED: ENDBRANCH  10  12
DOCKED: ENDBRANCH   8  10
DOCKED: ENDBRANCH   1   8
DOCKED: BRANCH   3  18
DOCKED: ATOM     20  C   UNL     1      36.536  11.695 123.198 -0.70 -0.00    +0.000 C 
DOCKED: ATOM     21  C   UNL     1      36.810  10.973 122.100 -0.61 -0.00    +0.000 C 
DOCKED: BRANCH  19  20
DOCKED: ATOM     22  C   UNL     1      36.970   9.504 122.110 -0.64 -0.00    +0.000 C 
DOCKED: ATOM     23  N   UNL     1      37.057   8.749 123.326 -0.65 -0.00    +0.000 N 
DOCKED: ATOM     24  O   UNL     1      37.060   8.903 121.006 -2.71 -0.00    +0.000 OA
DOCKED: ATOM     25  H   UNL     1      37.104   9.216 124.191 -0.58 -0.00    +0.000 HD
DOCKED: BRANCH  21  24
DOCKED: ATOM     26  O   UNL     1      37.074   7.395 123.287 -2.15 -0.00    +0.000 OA
DOCKED: ATOM     27  H   UNL     1      37.362   7.100 122.409 -0.19 -0.00    +0.000 HD
DOCKED: ENDBRANCH  21  24
DOCKED: ENDBRANCH  19  20
DOCKED: ENDBRANCH   3  18
DOCKED: TORSDOF 6DOCKED: TER
DOCKED: ENDMDL
________________________________________________________________________________


	BEGINNING GENETIC ALGORITHM DOCKING 25 of 100
Run: 25 Seed: 1970927 1398461583 [ Run 25 of 100 GA/GALS ]
Beginning LAMARCKIAN GENETIC ALGORITHM (LGA), with a maximum of 2500000 energy evaluations.

Final-Value: -13.549


	FINAL GENETIC ALGORITHM DOCKED STATE
	_______________________________________________


Detailed state:  trans 36.948 12.597 118.485 quatxyzw 0.543288 -0.590674 0.508610 -0.311864 center 0.320 0.169 0.303 ntor 6 12.5448 179.8130 -68.7852 36.6219 41.7732 -36.5643
State:	 36.948  12.597 118.485   0.572 -0.622  0.535 -143.657     12.54  179.81  -68.79   36.62   41.77  -36.56

DOCKED: MODEL       25
DOCKED: USER    Run = 25
DOCKED: USER    DPF = ligand_dock.biased.dpf
DOCKED: USER  
DOCKED: USER    Estimated Free Energy of Binding    =   -9.84 kcal/mol  [=(1)+(2)+(3)-(4)]
DOCKED: USER    Estimated Inhibition Constant, Ki   =   61.26 nM (nanomolar)  [Temperature = 298.15 K]
DOCKED: USER    
DOCKED: USER    (1) Final Intermolecular Energy     =  -11.63 kcal/mol
DOCKED: USER        vdW + Hbond + desolv Energy     =  -11.63 kcal/mol
DOCKED: USER        Electrostatic Energy            =   +0.00 kcal/mol
DOCKED: USER    (2) Final Total Internal Energy     =   -1.92 kcal/mol
DOCKED: USER    (3) Torsional Free Energy           =   +1.79 kcal/mol
DOCKED: USER    (4) Unbound System's Energy  [=(2)] =   -1.92 kcal/mol
DOCKED: USER    
DOCKED: USER    
DOCKED: USER    NEWDPF move ligand.dum.pdbqt
DOCKED: USER    NEWDPF about 0.320000 0.169000 0.303000
DOCKED: USER    NEWDPF tran0 36.948335 12.596654 118.485273
DOCKED: USER    NEWDPF quaternion0 0.543288 -0.590674 0.508610 -0.311864
DOCKED: USER    NEWDPF axisangle0 0.571805 -0.621679 0.535308 -143.656824
DOCKED: USER    NEWDPF quat0 0.571805 -0.621679 0.535308 -143.656824
DOCKED: USER    NEWDPF dihe0 12.54 179.81 -68.79 36.62 41.77 -36.56 
DOCKED: USER  keepresnum = 1 
DOCKED: USER  
DOCKED: REMARK  Name = 
DOCKED: REMARK  6 active torsions:
DOCKED: REMARK  status: ('A' for Active; 'I' for Inactive)
DOCKED: REMARK    1  A    between atoms: S_2  and  N_3
DOCKED: REMARK    2  A    between atoms: S_2  and  C_10
DOCKED: REMARK    3  A    between atoms: N_3  and  C_4
DOCKED: REMARK    4  A    between atoms: C_12  and  C_13
DOCKED: REMARK    5  A    between atoms: C_14  and  C_15
DOCKED: REMARK    6  A    between atoms: N_16  and  O_17
DOCKED: REMARK                            x       y       z     vdW  Elec       q    Type
DOCKED: REMARK                         _______ _______ _______ _____ _____    ______ ____
DOCKED: USER                              x       y       z     vdW  Elec       q    Type
DOCKED: USER                           _______ _______ _______ _____ _____    ______ ____
DOCKED: ROOT
DOCKED: ATOM      1  C   UNL     1      36.181  14.818 118.594 -0.17 -0.00    +0.000 A 
DOCKED: ATOM      2  C   UNL     1      36.335  13.470 118.944 -0.26 -0.00    +0.000 A 
DOCKED: ATOM      3  C   UNL     1      37.115  13.101 120.054 -0.41 -0.00    +0.000 A 
DOCKED: ATOM      4  C   UNL     1      37.756  14.111 120.800 -0.33 -0.00    +0.000 A 
DOCKED: ATOM      5  C   UNL     1      37.595  15.455 120.454 -0.20 -0.00    +0.000 A 
DOCKED: ATOM      6  C   UNL     1      36.807  15.810 119.358 -0.17 -0.00    +0.000 A 
DOCKED: ATOM      7  CM  UNL     1      36.965  14.461 119.701 +0.00 -0.00    +0.000 AC
DOCKED: ENDROOT
DOCKED: BRANCH   1   8
DOCKED: ATOM      8  O   UNL     1      34.948  16.738 117.170 -0.14 -0.00    +0.000 OA
DOCKED: ATOM      9  S   UNL     1      35.207  15.258 117.193 -0.30 -0.00    +0.000 S 
DOCKED: ATOM     10  O   UNL     1      33.895  14.531 117.271 -0.27 -0.00    +0.000 OA
DOCKED: BRANCH   8  10
DOCKED: ATOM     11  N   UNL     1      36.026  14.804 115.730 -0.20 -0.00    +0.000 N 
DOCKED: ATOM     12  H   UNL     1      35.519  14.840 114.887 +0.00 -0.00    +0.000 HD
DOCKED: BRANCH  10  12
DOCKED: ATOM     13  C   UNL     1      37.400  14.380 115.677 -0.28 -0.00    +0.000 A 
DOCKED: ATOM     14  C   UNL     1      38.467  15.300 115.697 -0.19 -0.00    +0.000 A 
DOCKED: ATOM     15  C   UNL     1      39.790  14.849 115.653 -0.32 -0.00    +0.000 A 
DOCKED: ATOM     16  C   UNL     1      40.062  13.481 115.584 -0.05 -0.00    +0.000 A 
DOCKED: ATOM     17  C   UNL     1      39.013  12.561 115.556 -0.51 -0.00    +0.000 A 
DOCKED: ATOM     18  C   UNL     1      37.688  13.007 115.601 -0.35 -0.00    +0.000 A 
DOCKED: ATOM     19  CM  UNL     1      38.736  13.930 115.628 +0.00 -0.00    +0.000 AC
DOCKED: ENDBRANCH  10  12
DOCKED: ENDBRANCH   8  10
DOCKED: ENDBRANCH   1   8
DOCKED: BRANCH   3  18
DOCKED: ATOM     20  C   UNL     1      37.262  11.658 120.367 -0.29 -0.00    +0.000 C 
DOCKED: ATOM     21  C   UNL     1      36.916  11.113 121.543 -0.51 -0.00    +0.000 C 
DOCKED: BRANCH  19  20
DOCKED: ATOM     22  C   UNL     1      37.065   9.675 121.850 -0.59 -0.00    +0.000 C 
DOCKED: ATOM     23  N   UNL     1      37.063   9.172 123.192 -0.63 -0.00    +0.000 N 
DOCKED: ATOM     24  O   UNL     1      37.226   8.871 120.892 -2.57 -0.00    +0.000 OA
DOCKED: ATOM     25  H   UNL     1      37.053   9.798 123.951 -0.47 -0.00    +0.000 HD
DOCKED: BRANCH  21  24
DOCKED: ATOM     26  O   UNL     1      37.073   7.836 123.419 -2.27 -0.00    +0.000 OA
DOCKED: ATOM     27  H   UNL     1      37.280   7.370 122.594 -0.13 -0.00    +0.000 HD
DOCKED: ENDBRANCH  21  24
DOCKED: ENDBRANCH  19  20
DOCKED: ENDBRANCH   3  18
DOCKED: TORSDOF 6DOCKED: TER
DOCKED: ENDMDL
________________________________________________________________________________


	BEGINNING GENETIC ALGORITHM DOCKING 26 of 100
Run: 26 Seed: 1220681417 1454354620 [ Run 26 of 100 GA/GALS ]
Beginning LAMARCKIAN GENETIC ALGORITHM (LGA), with a maximum of 2500000 energy evaluations.

Final-Value: -15.076


	FINAL GENETIC ALGORITHM DOCKED STATE
	_______________________________________________


Detailed state:  trans 38.233 12.983 123.256 quatxyzw -0.064712 0.666166 -0.681107 -0.296863 center 0.320 0.169 0.303 ntor 6 25.3802 -10.6331 156.6884 120.9742 12.7338 126.5512
State:	 38.233  12.983 123.256  -0.068  0.698 -0.713 -145.461     25.38  -10.63  156.69  120.97   12.73  126.55

DOCKED: MODEL       26
DOCKED: USER    Run = 26
DOCKED: USER    DPF = ligand_dock.biased.dpf
DOCKED: USER  
DOCKED: USER    Estimated Free Energy of Binding    =  -11.38 kcal/mol  [=(1)+(2)+(3)-(4)]
DOCKED: USER    Estimated Inhibition Constant, Ki   =    4.54 nM (nanomolar)  [Temperature = 298.15 K]
DOCKED: USER    
DOCKED: USER    (1) Final Intermolecular Energy     =  -13.17 kcal/mol
DOCKED: USER        vdW + Hbond + desolv Energy     =  -13.17 kcal/mol
DOCKED: USER        Electrostatic Energy            =   +0.00 kcal/mol
DOCKED: USER    (2) Final Total Internal Energy     =   -1.90 kcal/mol
DOCKED: USER    (3) Torsional Free Energy           =   +1.79 kcal/mol
DOCKED: USER    (4) Unbound System's Energy  [=(2)] =   -1.90 kcal/mol
DOCKED: USER    
DOCKED: USER    
DOCKED: USER    NEWDPF move ligand.dum.pdbqt
DOCKED: USER    NEWDPF about 0.320000 0.169000 0.303000
DOCKED: USER    NEWDPF tran0 38.232703 12.983125 123.256058
DOCKED: USER    NEWDPF quaternion0 -0.064712 0.666166 -0.681107 -0.296863
DOCKED: USER    NEWDPF axisangle0 -0.067767 0.697615 -0.713261 -145.461390
DOCKED: USER    NEWDPF quat0 -0.067767 0.697615 -0.713261 -145.461390
DOCKED: USER    NEWDPF dihe0 25.38 -10.63 156.69 120.97 12.73 126.55 
DOCKED: USER  keepresnum = 1 
DOCKED: USER  
DOCKED: REMARK  Name = 
DOCKED: REMARK  6 active torsions:
DOCKED: REMARK  status: ('A' for Active; 'I' for Inactive)
DOCKED: REMARK    1  A    between atoms: S_2  and  N_3
DOCKED: REMARK    2  A    between atoms: S_2  and  C_10
DOCKED: REMARK    3  A    between atoms: N_3  and  C_4
DOCKED: REMARK    4  A    between atoms: C_12  and  C_13
DOCKED: REMARK    5  A    between atoms: C_14  and  C_15
DOCKED: REMARK    6  A    between atoms: N_16  and  O_17
DOCKED: REMARK                            x       y       z     vdW  Elec       q    Type
DOCKED: REMARK                         _______ _______ _______ _____ _____    ______ ____
DOCKED: USER                              x       y       z     vdW  Elec       q    Type
DOCKED: USER                           _______ _______ _______ _____ _____    ______ ____
DOCKED: ROOT
DOCKED: ATOM      1  C   UNL     1      37.660  15.201 122.718 -0.34 -0.00    +0.000 A 
DOCKED: ATOM      2  C   UNL     1      37.615  13.800 122.708 -0.45 -0.00    +0.000 A 
DOCKED: ATOM      3  C   UNL     1      36.586  13.110 123.371 -0.55 -0.00    +0.000 A 
DOCKED: ATOM      4  C   UNL     1      35.606  13.852 124.064 -0.37 -0.00    +0.000 A 
DOCKED: ATOM      5  C   UNL     1      35.649  15.249 124.066 -0.44 -0.00    +0.000 A 
DOCKED: ATOM      6  C   UNL     1      36.669  15.923 123.392 -0.32 -0.00    +0.000 A 
DOCKED: ATOM      7  CM  UNL     1      36.631  14.522 123.387 +0.00 -0.00    +0.000 AC
DOCKED: ENDROOT
DOCKED: BRANCH   1   8
DOCKED: ATOM      8  O   UNL     1      40.208  15.199 121.854 -0.47 -0.00    +0.000 OA
DOCKED: ATOM      9  S   UNL     1      38.965  16.045 121.888 -0.31 -0.00    +0.000 S 
DOCKED: ATOM     10  O   UNL     1      39.260  17.320 122.624 -0.18 -0.00    +0.000 OA
DOCKED: BRANCH   8  10
DOCKED: ATOM     11  N   UNL     1      38.493  16.421 120.260 -0.12 -0.00    +0.000 N 
DOCKED: ATOM     12  H   UNL     1      38.748  17.299 119.896 +0.00 -0.00    +0.000 HD
DOCKED: BRANCH  10  12
DOCKED: ATOM     13  C   UNL     1      37.751  15.526 119.412 -0.18 -0.00    +0.000 A 
DOCKED: ATOM     14  C   UNL     1      36.803  15.993 118.480 -0.15 -0.00    +0.000 A 
DOCKED: ATOM     15  C   UNL     1      36.107  15.093 117.667 -0.23 -0.00    +0.000 A 
DOCKED: ATOM     16  C   UNL     1      36.345  13.721 117.777 -0.36 -0.00    +0.000 A 
DOCKED: ATOM     17  C   UNL     1      37.276  13.246 118.702 -0.37 -0.00    +0.000 A 
DOCKED: ATOM     18  C   UNL     1      37.975  14.143 119.517 -0.26 -0.00    +0.000 A 
DOCKED: ATOM     19  CM  UNL     1      37.043  14.620 118.592 +0.00 -0.00    +0.000 AC
DOCKED: ENDBRANCH  10  12
DOCKED: ENDBRANCH   8  10
DOCKED: ENDBRANCH   1   8
DOCKED: BRANCH   3  18
DOCKED: ATOM     20  C   UNL     1      36.598  11.627 123.347 -0.70 -0.00    +0.000 C 
DOCKED: ATOM     21  C   UNL     1      36.968  10.903 122.279 -0.58 -0.00    +0.000 C 
DOCKED: BRANCH  19  20
DOCKED: ATOM     22  C   UNL     1      36.979   9.426 122.261 -0.65 -0.00    +0.000 C 
DOCKED: ATOM     23  N   UNL     1      37.193   8.644 123.443 -0.62 -0.00    +0.000 N 
DOCKED: ATOM     24  O   UNL     1      36.821   8.839 121.157 -2.64 -0.00    +0.000 OA
DOCKED: ATOM     25  H   UNL     1      37.431   9.088 124.289 -0.62 -0.00    +0.000 HD
DOCKED: BRANCH  21  24
DOCKED: ATOM     26  O   UNL     1      37.066   7.295 123.401 -2.06 -0.00    +0.000 OA
DOCKED: ATOM     27  H   UNL     1      37.229   6.984 122.497 -0.18 -0.00    +0.000 HD
DOCKED: ENDBRANCH  21  24
DOCKED: ENDBRANCH  19  20
DOCKED: ENDBRANCH   3  18
DOCKED: TORSDOF 6DOCKED: TER
DOCKED: ENDMDL
________________________________________________________________________________


	BEGINNING GENETIC ALGORITHM DOCKING 27 of 100
Run: 27 Seed: 846005900 535671618 [ Run 27 of 100 GA/GALS ]
Beginning LAMARCKIAN GENETIC ALGORITHM (LGA), with a maximum of 2500000 energy evaluations.

Final-Value: -15.293


	FINAL GENETIC ALGORITHM DOCKED STATE
	_______________________________________________


Detailed state:  trans 35.865 13.341 121.949 quatxyzw -0.761589 0.417465 -0.011626 0.495550 center 0.320 0.169 0.303 ntor 6 7.1971 158.3845 80.2498 108.3234 -99.9122 176.1048
State:	 35.865  13.341 121.949  -0.877  0.481 -0.013 120.588      7.20  158.38   80.25  108.32  -99.91  176.10

DOCKED: MODEL       27
DOCKED: USER    Run = 27
DOCKED: USER    DPF = ligand_dock.biased.dpf
DOCKED: USER  
DOCKED: USER    Estimated Free Energy of Binding    =  -12.03 kcal/mol  [=(1)+(2)+(3)-(4)]
DOCKED: USER    Estimated Inhibition Constant, Ki   =    1.53 nM (nanomolar)  [Temperature = 298.15 K]
DOCKED: USER    
DOCKED: USER    (1) Final Intermolecular Energy     =  -13.82 kcal/mol
DOCKED: USER        vdW + Hbond + desolv Energy     =  -13.82 kcal/mol
DOCKED: USER        Electrostatic Energy            =   +0.00 kcal/mol
DOCKED: USER    (2) Final Total Internal Energy     =   -1.48 kcal/mol
DOCKED: USER    (3) Torsional Free Energy           =   +1.79 kcal/mol
DOCKED: USER    (4) Unbound System's Energy  [=(2)] =   -1.48 kcal/mol
DOCKED: USER    
DOCKED: USER    
DOCKED: USER    NEWDPF move ligand.dum.pdbqt
DOCKED: USER    NEWDPF about 0.320000 0.169000 0.303000
DOCKED: USER    NEWDPF tran0 35.865285 13.341383 121.949188
DOCKED: USER    NEWDPF quaternion0 -0.761589 0.417465 -0.011626 0.495550
DOCKED: USER    NEWDPF axisangle0 -0.876821 0.480630 -0.013386 120.587975
DOCKED: USER    NEWDPF quat0 -0.876821 0.480630 -0.013386 120.587975
DOCKED: USER    NEWDPF dihe0 7.20 158.38 80.25 108.32 -99.91 176.10 
DOCKED: USER  keepresnum = 1 
DOCKED: USER  
DOCKED: REMARK  Name = 
DOCKED: REMARK  6 active torsions:
DOCKED: REMARK  status: ('A' for Active; 'I' for Inactive)
DOCKED: REMARK    1  A    between atoms: S_2  and  N_3
DOCKED: REMARK    2  A    between atoms: S_2  and  C_10
DOCKED: REMARK    3  A    between atoms: N_3  and  C_4
DOCKED: REMARK    4  A    between atoms: C_12  and  C_13
DOCKED: REMARK    5  A    between atoms: C_14  and  C_15
DOCKED: REMARK    6  A    between atoms: N_16  and  O_17
DOCKED: REMARK                            x       y       z     vdW  Elec       q    Type
DOCKED: REMARK                         _______ _______ _______ _____ _____    ______ ____
DOCKED: USER                              x       y       z     vdW  Elec       q    Type
DOCKED: USER                           _______ _______ _______ _____ _____    ______ ____
DOCKED: ROOT
DOCKED: ATOM      1  C   UNL     1      36.160  15.279 123.251 -0.39 -0.00    +0.000 A 
DOCKED: ATOM      2  C   UNL     1      36.222  13.927 122.887 -0.36 -0.00    +0.000 A 
DOCKED: ATOM      3  C   UNL     1      37.435  13.349 122.476 -0.47 -0.00    +0.000 A 
DOCKED: ATOM      4  C   UNL     1      38.589  14.157 122.419 -0.39 -0.00    +0.000 A 
DOCKED: ATOM      5  C   UNL     1      38.527  15.503 122.789 -0.30 -0.00    +0.000 A 
DOCKED: ATOM      6  C   UNL     1      37.319  16.063 123.209 -0.28 -0.00    +0.000 A 
DOCKED: ATOM      7  CM  UNL     1      37.376  14.713 122.839 +0.00 -0.00    +0.000 AC
DOCKED: ENDROOT
DOCKED: BRANCH   1   8
DOCKED: ATOM      8  O   UNL     1      33.672  14.917 124.206 -0.66 -0.00    +0.000 OA
DOCKED: ATOM      9  S   UNL     1      34.627  15.986 123.753 -0.67 -0.00    +0.000 S 
DOCKED: ATOM     10  O   UNL     1      34.027  16.717 122.587 -0.47 -0.00    +0.000 OA
DOCKED: BRANCH   8  10
DOCKED: ATOM     11  N   UNL     1      34.884  17.104 125.058 -0.37 -0.00    +0.000 N 
DOCKED: ATOM     12  H   UNL     1      35.761  17.546 125.122 -0.01 -0.00    +0.000 HD
DOCKED: BRANCH  10  12
DOCKED: ATOM     13  C   UNL     1      33.891  17.421 126.050 -0.36 -0.00    +0.000 A 
DOCKED: ATOM     14  C   UNL     1      33.473  16.484 127.016 -0.36 -0.00    +0.000 A 
DOCKED: ATOM     15  C   UNL     1      32.512  16.833 127.970 -0.39 -0.00    +0.000 A 
DOCKED: ATOM     16  C   UNL     1      31.956  18.113 127.969 -0.24 -0.00    +0.000 A 
DOCKED: ATOM     17  C   UNL     1      32.356  19.048 127.012 -0.22 -0.00    +0.000 A 
DOCKED: ATOM     18  C   UNL     1      33.318  18.704 126.056 -0.29 -0.00    +0.000 A 
DOCKED: ATOM     19  CM  UNL     1      32.918  17.767 127.012 +0.00 -0.00    +0.000 AC
DOCKED: ENDBRANCH  10  12
DOCKED: ENDBRANCH   8  10
DOCKED: ENDBRANCH   1   8
DOCKED: BRANCH   3  18
DOCKED: ATOM     20  C   UNL     1      37.439  11.918 122.080 -0.43 -0.00    +0.000 C 
DOCKED: ATOM     21  C   UNL     1      36.915  10.938 122.831 -0.64 -0.00    +0.000 C 
DOCKED: BRANCH  19  20
DOCKED: ATOM     22  C   UNL     1      36.922   9.515 122.433 -0.65 -0.00    +0.000 C 
DOCKED: ATOM     23  N   UNL     1      37.172   8.456 123.367 -0.68 -0.00    +0.000 N 
DOCKED: ATOM     24  O   UNL     1      36.727   9.230 121.221 -2.62 -0.00    +0.000 OA
DOCKED: ATOM     25  H   UNL     1      37.438   8.669 124.291 -0.55 -0.00    +0.000 HD
DOCKED: BRANCH  21  24
DOCKED: ATOM     26  O   UNL     1      37.041   7.163 122.983 -1.93 -0.00    +0.000 OA
DOCKED: ATOM     27  H   UNL     1      36.886   7.125 122.027 -0.09 -0.00    +0.000 HD
DOCKED: ENDBRANCH  21  24
DOCKED: ENDBRANCH  19  20
DOCKED: ENDBRANCH   3  18
DOCKED: TORSDOF 6DOCKED: TER
DOCKED: ENDMDL
________________________________________________________________________________


	BEGINNING GENETIC ALGORITHM DOCKING 28 of 100
Run: 28 Seed: 1455093643 950326648 [ Run 28 of 100 GA/GALS ]
Beginning LAMARCKIAN GENETIC ALGORITHM (LGA), with a maximum of 2500000 energy evaluations.

Final-Value: -15.278


	FINAL GENETIC ALGORITHM DOCKED STATE
	_______________________________________________


Detailed state:  trans 38.307 12.721 123.486 quatxyzw -0.007913 -0.648103 0.687169 0.328175 center 0.320 0.169 0.303 ntor 6 13.7553 -10.9971 157.0764 112.5633 25.2528 126.3914
State:	 38.307  12.721 123.486  -0.008 -0.686  0.727 141.684     13.76  -11.00  157.08  112.56   25.25  126.39

DOCKED: MODEL       28
DOCKED: USER    Run = 28
DOCKED: USER    DPF = ligand_dock.biased.dpf
DOCKED: USER  
DOCKED: USER    Estimated Free Energy of Binding    =  -11.61 kcal/mol  [=(1)+(2)+(3)-(4)]
DOCKED: USER    Estimated Inhibition Constant, Ki   =    3.10 nM (nanomolar)  [Temperature = 298.15 K]
DOCKED: USER    
DOCKED: USER    (1) Final Intermolecular Energy     =  -13.40 kcal/mol
DOCKED: USER        vdW + Hbond + desolv Energy     =  -13.40 kcal/mol
DOCKED: USER        Electrostatic Energy            =   +0.00 kcal/mol
DOCKED: USER    (2) Final Total Internal Energy     =   -1.88 kcal/mol
DOCKED: USER    (3) Torsional Free Energy           =   +1.79 kcal/mol
DOCKED: USER    (4) Unbound System's Energy  [=(2)] =   -1.88 kcal/mol
DOCKED: USER    
DOCKED: USER    
DOCKED: USER    NEWDPF move ligand.dum.pdbqt
DOCKED: USER    NEWDPF about 0.320000 0.169000 0.303000
DOCKED: USER    NEWDPF tran0 38.307165 12.721021 123.485570
DOCKED: USER    NEWDPF quaternion0 -0.007913 -0.648103 0.687169 0.328175
DOCKED: USER    NEWDPF axisangle0 -0.008377 -0.686102 0.727457 141.683871
DOCKED: USER    NEWDPF quat0 -0.008377 -0.686102 0.727457 141.683871
DOCKED: USER    NEWDPF dihe0 13.76 -11.00 157.08 112.56 25.25 126.39 
DOCKED: USER  keepresnum = 1 
DOCKED: USER  
DOCKED: REMARK  Name = 
DOCKED: REMARK  6 active torsions:
DOCKED: REMARK  status: ('A' for Active; 'I' for Inactive)
DOCKED: REMARK    1  A    between atoms: S_2  and  N_3
DOCKED: REMARK    2  A    between atoms: S_2  and  C_10
DOCKED: REMARK    3  A    between atoms: N_3  and  C_4
DOCKED: REMARK    4  A    between atoms: C_12  and  C_13
DOCKED: REMARK    5  A    between atoms: C_14  and  C_15
DOCKED: REMARK    6  A    between atoms: N_16  and  O_17
DOCKED: REMARK                            x       y       z     vdW  Elec       q    Type
DOCKED: REMARK                         _______ _______ _______ _____ _____    ______ ____
DOCKED: USER                              x       y       z     vdW  Elec       q    Type
DOCKED: USER                           _______ _______ _______ _____ _____    ______ ____
DOCKED: ROOT
DOCKED: ATOM      1  C   UNL     1      37.944  14.973 122.909 -0.36 -0.00    +0.000 A 
DOCKED: ATOM      2  C   UNL     1      37.825  13.577 122.866 -0.46 -0.00    +0.000 A 
DOCKED: ATOM      3  C   UNL     1      36.671  12.939 123.353 -0.56 -0.00    +0.000 A 
DOCKED: ATOM      4  C   UNL     1      35.640  13.728 123.903 -0.43 -0.00    +0.000 A 
DOCKED: ATOM      5  C   UNL     1      35.757  15.120 123.938 -0.45 -0.00    +0.000 A 
DOCKED: ATOM      6  C   UNL     1      36.902  15.743 123.439 -0.33 -0.00    +0.000 A 
DOCKED: ATOM      7  CM  UNL     1      36.789  14.347 123.401 +0.00 -0.00    +0.000 AC
DOCKED: ENDROOT
DOCKED: BRANCH   1   8
DOCKED: ATOM      8  O   UNL     1      40.590  14.838 122.444 -0.83 -0.00    +0.000 OA
DOCKED: ATOM      9  S   UNL     1      39.403  15.751 122.302 -0.40 -0.00    +0.000 S 
DOCKED: ATOM     10  O   UNL     1      39.649  17.002 123.095 -0.26 -0.00    +0.000 OA
DOCKED: BRANCH   8  10
DOCKED: ATOM     11  N   UNL     1      39.207  16.165 120.626 -0.15 -0.00    +0.000 N 
DOCKED: ATOM     12  H   UNL     1      39.717  16.931 120.277 +0.00 -0.00    +0.000 HD
DOCKED: BRANCH  10  12
DOCKED: ATOM     13  C   UNL     1      38.344  15.456 119.720 -0.18 -0.00    +0.000 A 
DOCKED: ATOM     14  C   UNL     1      37.652  16.110 118.681 -0.13 -0.00    +0.000 A 
DOCKED: ATOM     15  C   UNL     1      36.829  15.385 117.814 -0.19 -0.00    +0.000 A 
DOCKED: ATOM     16  C   UNL     1      36.682  14.006 117.975 -0.35 -0.00    +0.000 A 
DOCKED: ATOM     17  C   UNL     1      37.356  13.348 119.006 -0.39 -0.00    +0.000 A 
DOCKED: ATOM     18  C   UNL     1      38.182  14.069 119.875 -0.27 -0.00    +0.000 A 
DOCKED: ATOM     19  CM  UNL     1      37.508  14.729 118.845 +0.00 -0.00    +0.000 AC
DOCKED: ENDBRANCH  10  12
DOCKED: ENDBRANCH   8  10
DOCKED: ENDBRANCH   1   8
DOCKED: BRANCH   3  18
DOCKED: ATOM     20  C   UNL     1      36.607  11.458 123.303 -0.70 -0.00    +0.000 C 
DOCKED: ATOM     21  C   UNL     1      36.945  10.734 122.225 -0.58 -0.00    +0.000 C 
DOCKED: BRANCH  19  20
DOCKED: ATOM     22  C   UNL     1      36.879   9.259 122.181 -0.68 -0.00    +0.000 C 
DOCKED: ATOM     23  N   UNL     1      37.053   8.447 123.350 -0.70 -0.00    +0.000 N 
DOCKED: ATOM     24  O   UNL     1      36.691   8.700 121.067 -2.48 -0.00    +0.000 OA
DOCKED: ATOM     25  H   UNL     1      37.314   8.863 124.202 -0.57 -0.00    +0.000 HD
DOCKED: BRANCH  21  24
DOCKED: ATOM     26  O   UNL     1      36.857   7.107 123.284 -1.83 -0.00    +0.000 OA
DOCKED: ATOM     27  H   UNL     1      36.821   6.831 122.355 -0.11 -0.00    +0.000 HD
DOCKED: ENDBRANCH  21  24
DOCKED: ENDBRANCH  19  20
DOCKED: ENDBRANCH   3  18
DOCKED: TORSDOF 6DOCKED: TER
DOCKED: ENDMDL
________________________________________________________________________________


	BEGINNING GENETIC ALGORITHM DOCKING 29 of 100
Run: 29 Seed: 558667880 1960016862 [ Run 29 of 100 GA/GALS ]
Beginning LAMARCKIAN GENETIC ALGORITHM (LGA), with a maximum of 2500000 energy evaluations.

Final-Value: -14.682


	FINAL GENETIC ALGORITHM DOCKED STATE
	_______________________________________________


Detailed state:  trans 38.087 13.051 123.152 quatxyzw 0.052834 -0.660148 0.678220 0.318481 center 0.320 0.169 0.303 ntor 6 64.2478 -14.6428 -25.0149 128.1437 -156.8773 -54.8685
State:	 38.087  13.051 123.152   0.056 -0.696  0.715 142.858     64.25  -14.64  -25.01  128.14 -156.88  -54.87

DOCKED: MODEL       29
DOCKED: USER    Run = 29
DOCKED: USER    DPF = ligand_dock.biased.dpf
DOCKED: USER  
DOCKED: USER    Estimated Free Energy of Binding    =  -11.80 kcal/mol  [=(1)+(2)+(3)-(4)]
DOCKED: USER    Estimated Inhibition Constant, Ki   =    2.23 nM (nanomolar)  [Temperature = 298.15 K]
DOCKED: USER    
DOCKED: USER    (1) Final Intermolecular Energy     =  -13.59 kcal/mol
DOCKED: USER        vdW + Hbond + desolv Energy     =  -13.59 kcal/mol
DOCKED: USER        Electrostatic Energy            =   +0.00 kcal/mol
DOCKED: USER    (2) Final Total Internal Energy     =   -1.09 kcal/mol
DOCKED: USER    (3) Torsional Free Energy           =   +1.79 kcal/mol
DOCKED: USER    (4) Unbound System's Energy  [=(2)] =   -1.09 kcal/mol
DOCKED: USER    
DOCKED: USER    
DOCKED: USER    NEWDPF move ligand.dum.pdbqt
DOCKED: USER    NEWDPF about 0.320000 0.169000 0.303000
DOCKED: USER    NEWDPF tran0 38.087174 13.051036 123.151796
DOCKED: USER    NEWDPF quaternion0 0.052834 -0.660148 0.678220 0.318481
DOCKED: USER    NEWDPF axisangle0 0.055736 -0.696411 0.715476 142.857820
DOCKED: USER    NEWDPF quat0 0.055736 -0.696411 0.715476 142.857820
DOCKED: USER    NEWDPF dihe0 64.25 -14.64 -25.01 128.14 -156.88 -54.87 
DOCKED: USER  keepresnum = 1 
DOCKED: USER  
DOCKED: REMARK  Name = 
DOCKED: REMARK  6 active torsions:
DOCKED: REMARK  status: ('A' for Active; 'I' for Inactive)
DOCKED: REMARK    1  A    between atoms: S_2  and  N_3
DOCKED: REMARK    2  A    between atoms: S_2  and  C_10
DOCKED: REMARK    3  A    between atoms: N_3  and  C_4
DOCKED: REMARK    4  A    between atoms: C_12  and  C_13
DOCKED: REMARK    5  A    between atoms: C_14  and  C_15
DOCKED: REMARK    6  A    between atoms: N_16  and  O_17
DOCKED: REMARK                            x       y       z     vdW  Elec       q    Type
DOCKED: REMARK                         _______ _______ _______ _____ _____    ______ ____
DOCKED: USER                              x       y       z     vdW  Elec       q    Type
DOCKED: USER                           _______ _______ _______ _____ _____    ______ ____
DOCKED: ROOT
DOCKED: ATOM      1  C   UNL     1      37.505  15.262 122.598 -0.32 -0.00    +0.000 A 
DOCKED: ATOM      2  C   UNL     1      37.484  13.862 122.579 -0.44 -0.00    +0.000 A 
DOCKED: ATOM      3  C   UNL     1      36.435  13.151 123.188 -0.54 -0.00    +0.000 A 
DOCKED: ATOM      4  C   UNL     1      35.411  13.873 123.836 -0.38 -0.00    +0.000 A 
DOCKED: ATOM      5  C   UNL     1      35.431  15.270 123.848 -0.47 -0.00    +0.000 A 
DOCKED: ATOM      6  C   UNL     1      36.471  15.965 123.228 -0.33 -0.00    +0.000 A 
DOCKED: ATOM      7  CM  UNL     1      36.456  14.564 123.213 +0.00 -0.00    +0.000 AC
DOCKED: ENDROOT
DOCKED: BRANCH   1   8
DOCKED: ATOM      8  O   UNL     1      38.371  17.468 121.325 -0.10 -0.00    +0.000 OA
DOCKED: ATOM      9  S   UNL     1      38.835  16.132 121.837 -0.29 -0.00    +0.000 S 
DOCKED: ATOM     10  O   UNL     1      39.348  15.317 120.685 -0.26 -0.00    +0.000 OA
DOCKED: BRANCH   8  10
DOCKED: ATOM     11  N   UNL     1      40.120  16.379 122.979 -0.29 -0.00    +0.000 N 
DOCKED: ATOM     12  H   UNL     1      39.882  16.465 123.930 -0.02 -0.00    +0.000 HD
DOCKED: BRANCH  10  12
DOCKED: ATOM     13  C   UNL     1      41.510  16.467 122.618 -0.34 -0.00    +0.000 A 
DOCKED: ATOM     14  C   UNL     1      42.063  15.687 121.583 -0.32 -0.00    +0.000 A 
DOCKED: ATOM     15  C   UNL     1      43.417  15.806 121.255 -0.23 -0.00    +0.000 A 
DOCKED: ATOM     16  C   UNL     1      44.232  16.698 121.954 -0.28 -0.00    +0.000 A 
DOCKED: ATOM     17  C   UNL     1      43.696  17.471 122.986 -0.22 -0.00    +0.000 A 
DOCKED: ATOM     18  C   UNL     1      42.343  17.356 123.318 -0.31 -0.00    +0.000 A 
DOCKED: ATOM     19  CM  UNL     1      42.877  16.581 122.285 +0.00 -0.00    +0.000 AC
DOCKED: ENDBRANCH  10  12
DOCKED: ENDBRANCH   8  10
DOCKED: ENDBRANCH   1   8
DOCKED: BRANCH   3  18
DOCKED: ATOM     20  C   UNL     1      36.473  11.668 123.157 -0.70 -0.00    +0.000 C 
DOCKED: ATOM     21  C   UNL     1      37.031  10.959 122.164 -0.56 -0.00    +0.000 C 
DOCKED: BRANCH  19  20
DOCKED: ATOM     22  C   UNL     1      37.066   9.482 122.138 -0.62 -0.00    +0.000 C 
DOCKED: ATOM     23  N   UNL     1      37.169   8.695 123.332 -0.63 -0.00    +0.000 N 
DOCKED: ATOM     24  O   UNL     1      37.032   8.901 121.021 -2.70 -0.00    +0.000 OA
DOCKED: ATOM     25  H   UNL     1      37.312   9.136 124.201 -0.60 -0.00    +0.000 HD
DOCKED: BRANCH  21  24
DOCKED: ATOM     26  O   UNL     1      37.068   7.345 123.269 -2.13 -0.00    +0.000 OA
DOCKED: ATOM     27  H   UNL     1      37.809   6.989 122.754 -0.50 -0.00    +0.000 HD
DOCKED: ENDBRANCH  21  24
DOCKED: ENDBRANCH  19  20
DOCKED: ENDBRANCH   3  18
DOCKED: TORSDOF 6DOCKED: TER
DOCKED: ENDMDL
________________________________________________________________________________


	BEGINNING GENETIC ALGORITHM DOCKING 30 of 100
Run: 30 Seed: 1314493273 1368079281 [ Run 30 of 100 GA/GALS ]
Beginning LAMARCKIAN GENETIC ALGORITHM (LGA), with a maximum of 2500000 energy evaluations.

Final-Value: -15.062


	FINAL GENETIC ALGORITHM DOCKED STATE
	_______________________________________________


Detailed state:  trans 35.098 13.438 123.158 quatxyzw 0.677552 -0.369101 -0.105747 -0.627299 center 0.320 0.169 0.303 ntor 6 9.1274 -43.8551 -34.6603 -30.8986 15.3294 -74.9952
State:	 35.098  13.438 123.158   0.870 -0.474 -0.136 -102.298      9.13  -43.86  -34.66  -30.90   15.33  -75.00

DOCKED: MODEL       30
DOCKED: USER    Run = 30
DOCKED: USER    DPF = ligand_dock.biased.dpf
DOCKED: USER  
DOCKED: USER    Estimated Free Energy of Binding    =  -11.59 kcal/mol  [=(1)+(2)+(3)-(4)]
DOCKED: USER    Estimated Inhibition Constant, Ki   =    3.18 nM (nanomolar)  [Temperature = 298.15 K]
DOCKED: USER    
DOCKED: USER    (1) Final Intermolecular Energy     =  -13.38 kcal/mol
DOCKED: USER        vdW + Hbond + desolv Energy     =  -13.38 kcal/mol
DOCKED: USER        Electrostatic Energy            =   +0.00 kcal/mol
DOCKED: USER    (2) Final Total Internal Energy     =   -1.68 kcal/mol
DOCKED: USER    (3) Torsional Free Energy           =   +1.79 kcal/mol
DOCKED: USER    (4) Unbound System's Energy  [=(2)] =   -1.68 kcal/mol
DOCKED: USER    
DOCKED: USER    
DOCKED: USER    NEWDPF move ligand.dum.pdbqt
DOCKED: USER    NEWDPF about 0.320000 0.169000 0.303000
DOCKED: USER    NEWDPF tran0 35.097713 13.438326 123.157864
DOCKED: USER    NEWDPF quaternion0 0.677552 -0.369101 -0.105747 -0.627299
DOCKED: USER    NEWDPF axisangle0 0.870020 -0.473949 -0.135786 -102.297717
DOCKED: USER    NEWDPF quat0 0.870020 -0.473949 -0.135786 -102.297717
DOCKED: USER    NEWDPF dihe0 9.13 -43.86 -34.66 -30.90 15.33 -75.00 
DOCKED: USER  keepresnum = 1 
DOCKED: USER  
DOCKED: REMARK  Name = 
DOCKED: REMARK  6 active torsions:
DOCKED: REMARK  status: ('A' for Active; 'I' for Inactive)
DOCKED: REMARK    1  A    between atoms: S_2  and  N_3
DOCKED: REMARK    2  A    between atoms: S_2  and  C_10
DOCKED: REMARK    3  A    between atoms: N_3  and  C_4
DOCKED: REMARK    4  A    between atoms: C_12  and  C_13
DOCKED: REMARK    5  A    between atoms: C_14  and  C_15
DOCKED: REMARK    6  A    between atoms: N_16  and  O_17
DOCKED: REMARK                            x       y       z     vdW  Elec       q    Type
DOCKED: REMARK                         _______ _______ _______ _____ _____    ______ ____
DOCKED: USER                              x       y       z     vdW  Elec       q    Type
DOCKED: USER                           _______ _______ _______ _____ _____    ______ ____
DOCKED: ROOT
DOCKED: ATOM      1  C   UNL     1      35.975  15.499 123.877 -0.40 -0.00    +0.000 A 
DOCKED: ATOM      2  C   UNL     1      35.798  14.112 123.795 -0.49 -0.00    +0.000 A 
DOCKED: ATOM      3  C   UNL     1      36.748  13.304 123.147 -0.53 -0.00    +0.000 A 
DOCKED: ATOM      4  C   UNL     1      37.877  13.917 122.564 -0.43 -0.00    +0.000 A 
DOCKED: ATOM      5  C   UNL     1      38.055  15.300 122.654 -0.32 -0.00    +0.000 A 
DOCKED: ATOM      6  C   UNL     1      37.111  16.090 123.312 -0.29 -0.00    +0.000 A 
DOCKED: ATOM      7  CM  UNL     1      36.927  14.704 123.225 +0.00 -0.00    +0.000 AC
DOCKED: ENDROOT
DOCKED: BRANCH   1   8
DOCKED: ATOM      8  O   UNL     1      35.415  17.409 125.687 -0.27 -0.00    +0.000 OA
DOCKED: ATOM      9  S   UNL     1      34.766  16.494 124.686 -0.60 -0.00    +0.000 S 
DOCKED: ATOM     10  O   UNL     1      33.799  15.594 125.399 -0.78 -0.00    +0.000 OA
DOCKED: BRANCH   8  10
DOCKED: ATOM     11  N   UNL     1      33.903  17.451 123.521 -0.37 -0.00    +0.000 N 
DOCKED: ATOM     12  H   UNL     1      32.939  17.591 123.662 +0.02 -0.00    +0.000 HD
DOCKED: BRANCH  10  12
DOCKED: ATOM     13  C   UNL     1      34.513  18.051 122.365 -0.28 -0.00    +0.000 A 
DOCKED: ATOM     14  C   UNL     1      35.733  18.751 122.442 -0.21 -0.00    +0.000 A 
DOCKED: ATOM     15  C   UNL     1      36.300  19.313 121.294 -0.15 -0.00    +0.000 A 
DOCKED: ATOM     16  C   UNL     1      35.657  19.187 120.061 -0.16 -0.00    +0.000 A 
DOCKED: ATOM     17  C   UNL     1      34.444  18.502 119.973 -0.25 -0.00    +0.000 A 
DOCKED: ATOM     18  C   UNL     1      33.874  17.937 121.118 -0.29 -0.00    +0.000 A 
DOCKED: ATOM     19  CM  UNL     1      35.087  18.623 121.209 +0.00 -0.00    +0.000 AC
DOCKED: ENDBRANCH  10  12
DOCKED: ENDBRANCH   8  10
DOCKED: ENDBRANCH   1   8
DOCKED: BRANCH   3  18
DOCKED: ATOM     20  C   UNL     1      36.500  11.843 123.069 -0.69 -0.00    +0.000 C 
DOCKED: ATOM     21  C   UNL     1      37.230  11.004 122.319 -0.33 -0.00    +0.000 C 
DOCKED: BRANCH  19  20
DOCKED: ATOM     22  C   UNL     1      36.980   9.550 122.245 -0.63 -0.00    +0.000 C 
DOCKED: ATOM     23  N   UNL     1      37.082   8.693 123.390 -0.65 -0.00    +0.000 N 
DOCKED: ATOM     24  O   UNL     1      36.693   9.047 121.125 -2.62 -0.00    +0.000 OA
DOCKED: ATOM     25  H   UNL     1      37.416   9.052 124.243 -0.61 -0.00    +0.000 HD
DOCKED: BRANCH  21  24
DOCKED: ATOM     26  O   UNL     1      36.718   7.391 123.301 -2.01 -0.00    +0.000 OA
DOCKED: ATOM     27  H   UNL     1      36.552   7.164 122.373 -0.04 -0.00    +0.000 HD
DOCKED: ENDBRANCH  21  24
DOCKED: ENDBRANCH  19  20
DOCKED: ENDBRANCH   3  18
DOCKED: TORSDOF 6DOCKED: TER
DOCKED: ENDMDL
________________________________________________________________________________


	BEGINNING GENETIC ALGORITHM DOCKING 31 of 100
Run: 31 Seed: 1256031562 1450378242 [ Run 31 of 100 GA/GALS ]
Beginning LAMARCKIAN GENETIC ALGORITHM (LGA), with a maximum of 2500000 energy evaluations.

Final-Value: -14.994


	FINAL GENETIC ALGORITHM DOCKED STATE
	_______________________________________________


Detailed state:  trans 37.992 12.589 123.043 quatxyzw 0.037299 0.710601 -0.649259 -0.268548 center 0.320 0.169 0.303 ntor 6 14.7718 -81.0944 135.9492 -173.3557 32.5667 113.4595
State:	 37.992  12.589 123.043   0.039  0.738 -0.674 -148.844     14.77  -81.09  135.95 -173.36   32.57  113.46

DOCKED: MODEL       31
DOCKED: USER    Run = 31
DOCKED: USER    DPF = ligand_dock.biased.dpf
DOCKED: USER  
DOCKED: USER    Estimated Free Energy of Binding    =  -11.26 kcal/mol  [=(1)+(2)+(3)-(4)]
DOCKED: USER    Estimated Inhibition Constant, Ki   =    5.58 nM (nanomolar)  [Temperature = 298.15 K]
DOCKED: USER    
DOCKED: USER    (1) Final Intermolecular Energy     =  -13.05 kcal/mol
DOCKED: USER        vdW + Hbond + desolv Energy     =  -13.05 kcal/mol
DOCKED: USER        Electrostatic Energy            =   +0.00 kcal/mol
DOCKED: USER    (2) Final Total Internal Energy     =   -1.94 kcal/mol
DOCKED: USER    (3) Torsional Free Energy           =   +1.79 kcal/mol
DOCKED: USER    (4) Unbound System's Energy  [=(2)] =   -1.94 kcal/mol
DOCKED: USER    
DOCKED: USER    
DOCKED: USER    NEWDPF move ligand.dum.pdbqt
DOCKED: USER    NEWDPF about 0.320000 0.169000 0.303000
DOCKED: USER    NEWDPF tran0 37.991534 12.588876 123.042603
DOCKED: USER    NEWDPF quaternion0 0.037299 0.710601 -0.649259 -0.268548
DOCKED: USER    NEWDPF axisangle0 0.038722 0.737699 -0.674018 -148.844219
DOCKED: USER    NEWDPF quat0 0.038722 0.737699 -0.674018 -148.844219
DOCKED: USER    NEWDPF dihe0 14.77 -81.09 135.95 -173.36 32.57 113.46 
DOCKED: USER  keepresnum = 1 
DOCKED: USER  
DOCKED: REMARK  Name = 
DOCKED: REMARK  6 active torsions:
DOCKED: REMARK  status: ('A' for Active; 'I' for Inactive)
DOCKED: REMARK    1  A    between atoms: S_2  and  N_3
DOCKED: REMARK    2  A    between atoms: S_2  and  C_10
DOCKED: REMARK    3  A    between atoms: N_3  and  C_4
DOCKED: REMARK    4  A    between atoms: C_12  and  C_13
DOCKED: REMARK    5  A    between atoms: C_14  and  C_15
DOCKED: REMARK    6  A    between atoms: N_16  and  O_17
DOCKED: REMARK                            x       y       z     vdW  Elec       q    Type
DOCKED: REMARK                         _______ _______ _______ _____ _____    ______ ____
DOCKED: USER                              x       y       z     vdW  Elec       q    Type
DOCKED: USER                           _______ _______ _______ _____ _____    ______ ____
DOCKED: ROOT
DOCKED: ATOM      1  C   UNL     1      37.815  14.926 122.845 -0.37 -0.00    +0.000 A 
DOCKED: ATOM      2  C   UNL     1      37.555  13.571 122.602 -0.46 -0.00    +0.000 A 
DOCKED: ATOM      3  C   UNL     1      36.380  12.968 123.083 -0.54 -0.00    +0.000 A 
DOCKED: ATOM      4  C   UNL     1      35.473  13.747 123.830 -0.39 -0.00    +0.000 A 
DOCKED: ATOM      5  C   UNL     1      35.731  15.100 124.065 -0.44 -0.00    +0.000 A 
DOCKED: ATOM      6  C   UNL     1      36.895  15.691 123.571 -0.31 -0.00    +0.000 A 
DOCKED: ATOM      7  CM  UNL     1      36.641  14.334 123.332 +0.00 -0.00    +0.000 AC
DOCKED: ENDROOT
DOCKED: BRANCH   1   8
DOCKED: ATOM      8  O   UNL     1      40.467  14.733 122.437 -0.90 -0.00    +0.000 OA
DOCKED: ATOM      9  S   UNL     1      39.299  15.660 122.241 -0.41 -0.00    +0.000 S 
DOCKED: ATOM     10  O   UNL     1      39.551  16.932 122.997 -0.25 -0.00    +0.000 OA
DOCKED: BRANCH   8  10
DOCKED: ATOM     11  N   UNL     1      39.142  16.022 120.550 -0.16 -0.00    +0.000 N 
DOCKED: ATOM     12  H   UNL     1      39.750  16.692 120.162 +0.00 -0.00    +0.000 HD
DOCKED: BRANCH  10  12
DOCKED: ATOM     13  C   UNL     1      38.177  15.400 119.682 -0.18 -0.00    +0.000 A 
DOCKED: ATOM     14  C   UNL     1      37.261  16.154 118.922 -0.14 -0.00    +0.000 A 
DOCKED: ATOM     15  C   UNL     1      36.343  15.515 118.083 -0.19 -0.00    +0.000 A 
DOCKED: ATOM     16  C   UNL     1      36.325  14.121 117.996 -0.34 -0.00    +0.000 A 
DOCKED: ATOM     17  C   UNL     1      37.223  13.363 118.751 -0.38 -0.00    +0.000 A 
DOCKED: ATOM     18  C   UNL     1      38.144  13.998 119.590 -0.23 -0.00    +0.000 A 
DOCKED: ATOM     19  CM  UNL     1      37.246  14.759 118.837 +0.00 -0.00    +0.000 AC
DOCKED: ENDBRANCH  10  12
DOCKED: ENDBRANCH   8  10
DOCKED: ENDBRANCH   1   8
DOCKED: BRANCH   3  18
DOCKED: ATOM     20  C   UNL     1      36.165  11.524 122.816 -0.68 -0.00    +0.000 C 
DOCKED: ATOM     21  C   UNL     1      37.163  10.643 122.645 -0.43 -0.00    +0.000 C 
DOCKED: BRANCH  19  20
DOCKED: ATOM     22  C   UNL     1      36.943   9.206 122.380 -0.68 -0.00    +0.000 C 
DOCKED: ATOM     23  N   UNL     1      37.032   8.212 123.409 -0.72 -0.00    +0.000 N 
DOCKED: ATOM     24  O   UNL     1      36.697   8.845 121.197 -2.62 -0.00    +0.000 OA
DOCKED: ATOM     25  H   UNL     1      37.336   8.465 124.311 -0.50 -0.00    +0.000 HD
DOCKED: BRANCH  21  24
DOCKED: ATOM     26  O   UNL     1      36.698   6.926 123.145 -1.65 -0.00    +0.000 OA
DOCKED: ATOM     27  H   UNL     1      36.648   6.796 122.185 -0.10 -0.00    +0.000 HD
DOCKED: ENDBRANCH  21  24
DOCKED: ENDBRANCH  19  20
DOCKED: ENDBRANCH   3  18
DOCKED: TORSDOF 6DOCKED: TER
DOCKED: ENDMDL
________________________________________________________________________________


	BEGINNING GENETIC ALGORITHM DOCKING 32 of 100
Run: 32 Seed: 763068202 712139443 [ Run 32 of 100 GA/GALS ]
Beginning LAMARCKIAN GENETIC ALGORITHM (LGA), with a maximum of 2500000 energy evaluations.

Final-Value: -14.629


	FINAL GENETIC ALGORITHM DOCKED STATE
	_______________________________________________


Detailed state:  trans 37.984 13.196 122.500 quatxyzw 0.175598 -0.676913 0.676798 0.229996 center 0.320 0.169 0.303 ntor 6 -178.0317 -1.8700 150.3773 134.9495 128.9760 52.6475
State:	 37.984  13.196 122.500   0.180 -0.696  0.695 153.406   -178.03   -1.87  150.38  134.95  128.98   52.65

DOCKED: MODEL       32
DOCKED: USER    Run = 32
DOCKED: USER    DPF = ligand_dock.biased.dpf
DOCKED: USER  
DOCKED: USER    Estimated Free Energy of Binding    =  -11.51 kcal/mol  [=(1)+(2)+(3)-(4)]
DOCKED: USER    Estimated Inhibition Constant, Ki   =    3.65 nM (nanomolar)  [Temperature = 298.15 K]
DOCKED: USER    
DOCKED: USER    (1) Final Intermolecular Energy     =  -13.30 kcal/mol
DOCKED: USER        vdW + Hbond + desolv Energy     =  -13.30 kcal/mol
DOCKED: USER        Electrostatic Energy            =   +0.00 kcal/mol
DOCKED: USER    (2) Final Total Internal Energy     =   -1.33 kcal/mol
DOCKED: USER    (3) Torsional Free Energy           =   +1.79 kcal/mol
DOCKED: USER    (4) Unbound System's Energy  [=(2)] =   -1.33 kcal/mol
DOCKED: USER    
DOCKED: USER    
DOCKED: USER    NEWDPF move ligand.dum.pdbqt
DOCKED: USER    NEWDPF about 0.320000 0.169000 0.303000
DOCKED: USER    NEWDPF tran0 37.983667 13.196266 122.500066
DOCKED: USER    NEWDPF quaternion0 0.175598 -0.676913 0.676798 0.229996
DOCKED: USER    NEWDPF axisangle0 0.180435 -0.695560 0.695442 153.406293
DOCKED: USER    NEWDPF quat0 0.180435 -0.695560 0.695442 153.406293
DOCKED: USER    NEWDPF dihe0 -178.03 -1.87 150.38 134.95 128.98 52.65 
DOCKED: USER  keepresnum = 1 
DOCKED: USER  
DOCKED: REMARK  Name = 
DOCKED: REMARK  6 active torsions:
DOCKED: REMARK  status: ('A' for Active; 'I' for Inactive)
DOCKED: REMARK    1  A    between atoms: S_2  and  N_3
DOCKED: REMARK    2  A    between atoms: S_2  and  C_10
DOCKED: REMARK    3  A    between atoms: N_3  and  C_4
DOCKED: REMARK    4  A    between atoms: C_12  and  C_13
DOCKED: REMARK    5  A    between atoms: C_14  and  C_15
DOCKED: REMARK    6  A    between atoms: N_16  and  O_17
DOCKED: REMARK                            x       y       z     vdW  Elec       q    Type
DOCKED: REMARK                         _______ _______ _______ _____ _____    ______ ____
DOCKED: USER                              x       y       z     vdW  Elec       q    Type
DOCKED: USER                           _______ _______ _______ _____ _____    ______ ____
DOCKED: ROOT
DOCKED: ATOM      1  C   UNL     1      37.157  15.345 122.018 -0.27 -0.00    +0.000 A 
DOCKED: ATOM      2  C   UNL     1      37.200  13.946 122.084 -0.39 -0.00    +0.000 A 
DOCKED: ATOM      3  C   UNL     1      36.410  13.247 123.012 -0.51 -0.00    +0.000 A 
DOCKED: ATOM      4  C   UNL     1      35.583  13.978 123.889 -0.46 -0.00    +0.000 A 
DOCKED: ATOM      5  C   UNL     1      35.536  15.373 123.816 -0.46 -0.00    +0.000 A 
DOCKED: ATOM      6  C   UNL     1      36.315  16.056 122.881 -0.31 -0.00    +0.000 A 
DOCKED: ATOM      7  CM  UNL     1      36.366  14.658 122.950 +0.00 -0.00    +0.000 AC
DOCKED: ENDROOT
DOCKED: BRANCH   1   8
DOCKED: ATOM      8  O   UNL     1      39.366  16.800 121.529 -0.15 -0.00    +0.000 OA
DOCKED: ATOM      9  S   UNL     1      38.164  16.203 120.853 -0.22 -0.00    +0.000 S 
DOCKED: ATOM     10  O   UNL     1      37.353  17.303 120.232 -0.11 -0.00    +0.000 OA
DOCKED: BRANCH   8  10
DOCKED: ATOM     11  N   UNL     1      38.698  15.114 119.609 -0.20 -0.00    +0.000 N 
DOCKED: ATOM     12  H   UNL     1      39.629  14.797 119.642 -0.07 -0.00    +0.000 HD
DOCKED: BRANCH  10  12
DOCKED: ATOM     13  C   UNL     1      37.860  14.648 118.536 -0.23 -0.00    +0.000 A 
DOCKED: ATOM     14  C   UNL     1      38.335  14.531 117.215 -0.21 -0.00    +0.000 A 
DOCKED: ATOM     15  C   UNL     1      37.494  14.066 116.200 -0.32 -0.00    +0.000 A 
DOCKED: ATOM     16  C   UNL     1      36.173  13.718 116.489 -0.30 -0.00    +0.000 A 
DOCKED: ATOM     17  C   UNL     1      35.688  13.838 117.792 -0.31 -0.00    +0.000 A 
DOCKED: ATOM     18  C   UNL     1      36.527  14.301 118.811 -0.26 -0.00    +0.000 A 
DOCKED: ATOM     19  CM  UNL     1      37.013  14.183 117.507 +0.00 -0.00    +0.000 AC
DOCKED: ENDBRANCH  10  12
DOCKED: ENDBRANCH   8  10
DOCKED: ENDBRANCH   1   8
DOCKED: BRANCH   3  18
DOCKED: ATOM     20  C   UNL     1      36.511  11.767 123.055 -0.69 -0.00    +0.000 C 
DOCKED: ATOM     21  C   UNL     1      36.920  11.019 122.018 -0.58 -0.00    +0.000 C 
DOCKED: BRANCH  19  20
DOCKED: ATOM     22  C   UNL     1      37.019   9.546 122.066 -0.62 -0.00    +0.000 C 
DOCKED: ATOM     23  N   UNL     1      37.099   8.820 123.300 -0.64 -0.00    +0.000 N 
DOCKED: ATOM     24  O   UNL     1      37.063   8.912 120.977 -2.71 -0.00    +0.000 OA
DOCKED: ATOM     25  H   UNL     1      37.182   9.308 124.151 -0.58 -0.00    +0.000 HD
DOCKED: BRANCH  21  24
DOCKED: ATOM     26  O   UNL     1      37.060   7.466 123.298 -2.19 -0.00    +0.000 OA
DOCKED: ATOM     27  H   UNL     1      37.093   7.141 124.211 -0.51 -0.00    +0.000 HD
DOCKED: ENDBRANCH  21  24
DOCKED: ENDBRANCH  19  20
DOCKED: ENDBRANCH   3  18
DOCKED: TORSDOF 6DOCKED: TER
DOCKED: ENDMDL
________________________________________________________________________________


	BEGINNING GENETIC ALGORITHM DOCKING 33 of 100
Run: 33 Seed: 1641187394 1255596815 [ Run 33 of 100 GA/GALS ]
Beginning LAMARCKIAN GENETIC ALGORITHM (LGA), with a maximum of 2500000 energy evaluations.

Final-Value: -14.415


	FINAL GENETIC ALGORITHM DOCKED STATE
	_______________________________________________


Detailed state:  trans 36.529 13.157 122.069 quatxyzw -0.509135 -0.079424 0.365013 0.775396 center 0.320 0.169 0.303 ntor 6 21.4740 161.0109 106.5872 -161.0229 82.7109 103.6149
State:	 36.529  13.157 122.069  -0.806 -0.126  0.578 78.318     21.47  161.01  106.59 -161.02   82.71  103.61

DOCKED: MODEL       33
DOCKED: USER    Run = 33
DOCKED: USER    DPF = ligand_dock.biased.dpf
DOCKED: USER  
DOCKED: USER    Estimated Free Energy of Binding    =  -10.78 kcal/mol  [=(1)+(2)+(3)-(4)]
DOCKED: USER    Estimated Inhibition Constant, Ki   =   12.58 nM (nanomolar)  [Temperature = 298.15 K]
DOCKED: USER    
DOCKED: USER    (1) Final Intermolecular Energy     =  -12.57 kcal/mol
DOCKED: USER        vdW + Hbond + desolv Energy     =  -12.57 kcal/mol
DOCKED: USER        Electrostatic Energy            =   +0.00 kcal/mol
DOCKED: USER    (2) Final Total Internal Energy     =   -1.85 kcal/mol
DOCKED: USER    (3) Torsional Free Energy           =   +1.79 kcal/mol
DOCKED: USER    (4) Unbound System's Energy  [=(2)] =   -1.85 kcal/mol
DOCKED: USER    
DOCKED: USER    
DOCKED: USER    NEWDPF move ligand.dum.pdbqt
DOCKED: USER    NEWDPF about 0.320000 0.169000 0.303000
DOCKED: USER    NEWDPF tran0 36.528504 13.156873 122.069179
DOCKED: USER    NEWDPF quaternion0 -0.509135 -0.079424 0.365013 0.775396
DOCKED: USER    NEWDPF axisangle0 -0.806262 -0.125775 0.578032 78.318097
DOCKED: USER    NEWDPF quat0 -0.806262 -0.125775 0.578032 78.318097
DOCKED: USER    NEWDPF dihe0 21.47 161.01 106.59 -161.02 82.71 103.61 
DOCKED: USER  keepresnum = 1 
DOCKED: USER  
DOCKED: REMARK  Name = 
DOCKED: REMARK  6 active torsions:
DOCKED: REMARK  status: ('A' for Active; 'I' for Inactive)
DOCKED: REMARK    1  A    between atoms: S_2  and  N_3
DOCKED: REMARK    2  A    between atoms: S_2  and  C_10
DOCKED: REMARK    3  A    between atoms: N_3  and  C_4
DOCKED: REMARK    4  A    between atoms: C_12  and  C_13
DOCKED: REMARK    5  A    between atoms: C_14  and  C_15
DOCKED: REMARK    6  A    between atoms: N_16  and  O_17
DOCKED: REMARK                            x       y       z     vdW  Elec       q    Type
DOCKED: REMARK                         _______ _______ _______ _____ _____    ______ ____
DOCKED: USER                              x       y       z     vdW  Elec       q    Type
DOCKED: USER                           _______ _______ _______ _____ _____    ______ ____
DOCKED: ROOT
DOCKED: ATOM      1  C   UNL     1      37.064  15.394 121.577 -0.24 -0.00    +0.000 A 
DOCKED: ATOM      2  C   UNL     1      37.231  14.009 121.709 -0.35 -0.00    +0.000 A 
DOCKED: ATOM      3  C   UNL     1      37.244  13.177 120.576 -0.41 -0.00    +0.000 A 
DOCKED: ATOM      4  C   UNL     1      37.070  13.758 119.303 -0.36 -0.00    +0.000 A 
DOCKED: ATOM      5  C   UNL     1      36.911  15.141 119.174 -0.21 -0.00    +0.000 A 
DOCKED: ATOM      6  C   UNL     1      36.913  15.958 120.305 -0.17 -0.00    +0.000 A 
DOCKED: ATOM      7  CM  UNL     1      37.072  14.573 120.441 +0.00 -0.00    +0.000 AC
DOCKED: ENDROOT
DOCKED: BRANCH   1   8
DOCKED: ATOM      8  O   UNL     1      36.056  15.895 124.020 -0.44 -0.00    +0.000 OA
DOCKED: ATOM      9  S   UNL     1      37.041  16.418 123.011 -0.37 -0.00    +0.000 S 
DOCKED: ATOM     10  O   UNL     1      36.638  17.806 122.607 -0.18 -0.00    +0.000 OA
DOCKED: BRANCH   8  10
DOCKED: ATOM     11  N   UNL     1      38.619  16.468 123.735 -0.22 -0.00    +0.000 N 
DOCKED: ATOM     12  H   UNL     1      38.676  16.599 124.709 -0.00 -0.00    +0.000 HD
DOCKED: BRANCH  10  12
DOCKED: ATOM     13  C   UNL     1      39.846  16.330 122.996 -0.24 -0.00    +0.000 A 
DOCKED: ATOM     14  C   UNL     1      40.576  17.447 122.546 -0.18 -0.00    +0.000 A 
DOCKED: ATOM     15  C   UNL     1      41.770  17.274 121.838 -0.18 -0.00    +0.000 A 
DOCKED: ATOM     16  C   UNL     1      42.244  15.988 121.569 -0.30 -0.00    +0.000 A 
DOCKED: ATOM     17  C   UNL     1      41.525  14.873 122.004 -0.34 -0.00    +0.000 A 
DOCKED: ATOM     18  C   UNL     1      40.332  15.042 122.713 -0.37 -0.00    +0.000 A 
DOCKED: ATOM     19  CM  UNL     1      41.049  16.159 122.278 +0.00 -0.00    +0.000 AC
DOCKED: ENDBRANCH  10  12
DOCKED: ENDBRANCH   8  10
DOCKED: ENDBRANCH   1   8
DOCKED: BRANCH   3  18
DOCKED: ATOM     20  C   UNL     1      37.401  11.715 120.774 -0.50 -0.00    +0.000 C 
DOCKED: ATOM     21  C   UNL     1      36.806  11.030 121.762 -0.56 -0.00    +0.000 C 
DOCKED: BRANCH  19  20
DOCKED: ATOM     22  C   UNL     1      36.966   9.573 121.955 -0.63 -0.00    +0.000 C 
DOCKED: ATOM     23  N   UNL     1      37.047   8.975 123.255 -0.64 -0.00    +0.000 N 
DOCKED: ATOM     24  O   UNL     1      37.062   8.840 120.934 -2.71 -0.00    +0.000 OA
DOCKED: ATOM     25  H   UNL     1      37.089   9.545 124.057 -0.54 -0.00    +0.000 HD
DOCKED: BRANCH  21  24
DOCKED: ATOM     26  O   UNL     1      37.064   7.626 123.385 -2.26 -0.00    +0.000 OA
DOCKED: ATOM     27  H   UNL     1      37.354   7.225 122.550 -0.18 -0.00    +0.000 HD
DOCKED: ENDBRANCH  21  24
DOCKED: ENDBRANCH  19  20
DOCKED: ENDBRANCH   3  18
DOCKED: TORSDOF 6DOCKED: TER
DOCKED: ENDMDL
________________________________________________________________________________


	BEGINNING GENETIC ALGORITHM DOCKING 34 of 100
Run: 34 Seed: 815973345 693322583 [ Run 34 of 100 GA/GALS ]
Beginning LAMARCKIAN GENETIC ALGORITHM (LGA), with a maximum of 2500000 energy evaluations.

Final-Value: -14.515


	FINAL GENETIC ALGORITHM DOCKED STATE
	_______________________________________________


Detailed state:  trans 36.380 13.153 121.809 quatxyzw 0.547834 -0.005426 -0.324865 -0.770916 center 0.320 0.169 0.303 ntor 6 16.7775 163.1773 170.3793 -179.2212 24.0942 141.9717
State:	 36.380  13.153 121.809   0.860 -0.009 -0.510 -79.128     16.78  163.18  170.38 -179.22   24.09  141.97

DOCKED: MODEL       34
DOCKED: USER    Run = 34
DOCKED: USER    DPF = ligand_dock.biased.dpf
DOCKED: USER  
DOCKED: USER    Estimated Free Energy of Binding    =  -11.01 kcal/mol  [=(1)+(2)+(3)-(4)]
DOCKED: USER    Estimated Inhibition Constant, Ki   =    8.53 nM (nanomolar)  [Temperature = 298.15 K]
DOCKED: USER    
DOCKED: USER    (1) Final Intermolecular Energy     =  -12.80 kcal/mol
DOCKED: USER        vdW + Hbond + desolv Energy     =  -12.80 kcal/mol
DOCKED: USER        Electrostatic Energy            =   +0.00 kcal/mol
DOCKED: USER    (2) Final Total Internal Energy     =   -1.72 kcal/mol
DOCKED: USER    (3) Torsional Free Energy           =   +1.79 kcal/mol
DOCKED: USER    (4) Unbound System's Energy  [=(2)] =   -1.72 kcal/mol
DOCKED: USER    
DOCKED: USER    
DOCKED: USER    NEWDPF move ligand.dum.pdbqt
DOCKED: USER    NEWDPF about 0.320000 0.169000 0.303000
DOCKED: USER    NEWDPF tran0 36.379585 13.152580 121.809123
DOCKED: USER    NEWDPF quaternion0 0.547834 -0.005426 -0.324865 -0.770916
DOCKED: USER    NEWDPF axisangle0 0.860107 -0.008519 -0.510042 -79.127604
DOCKED: USER    NEWDPF quat0 0.860107 -0.008519 -0.510042 -79.127604
DOCKED: USER    NEWDPF dihe0 16.78 163.18 170.38 -179.22 24.09 141.97 
DOCKED: USER  keepresnum = 1 
DOCKED: USER  
DOCKED: REMARK  Name = 
DOCKED: REMARK  6 active torsions:
DOCKED: REMARK  status: ('A' for Active; 'I' for Inactive)
DOCKED: REMARK    1  A    between atoms: S_2  and  N_3
DOCKED: REMARK    2  A    between atoms: S_2  and  C_10
DOCKED: REMARK    3  A    between atoms: N_3  and  C_4
DOCKED: REMARK    4  A    between atoms: C_12  and  C_13
DOCKED: REMARK    5  A    between atoms: C_14  and  C_15
DOCKED: REMARK    6  A    between atoms: N_16  and  O_17
DOCKED: REMARK                            x       y       z     vdW  Elec       q    Type
DOCKED: REMARK                         _______ _______ _______ _____ _____    ______ ____
DOCKED: USER                              x       y       z     vdW  Elec       q    Type
DOCKED: USER                           _______ _______ _______ _____ _____    ______ ____
DOCKED: ROOT
DOCKED: ATOM      1  C   UNL     1      37.075  15.373 121.461 -0.23 -0.00    +0.000 A 
DOCKED: ATOM      2  C   UNL     1      37.167  13.982 121.606 -0.34 -0.00    +0.000 A 
DOCKED: ATOM      3  C   UNL     1      37.378  13.156 120.489 -0.42 -0.00    +0.000 A 
DOCKED: ATOM      4  C   UNL     1      37.480  13.750 119.214 -0.35 -0.00    +0.000 A 
DOCKED: ATOM      5  C   UNL     1      37.395  15.138 119.072 -0.21 -0.00    +0.000 A 
DOCKED: ATOM      6  C   UNL     1      37.199  15.949 120.192 -0.17 -0.00    +0.000 A 
DOCKED: ATOM      7  CM  UNL     1      37.283  14.558 120.339 +0.00 -0.00    +0.000 AC
DOCKED: ENDROOT
DOCKED: BRANCH   1   8
DOCKED: ATOM      8  O   UNL     1      36.382  15.555 124.054 -0.45 -0.00    +0.000 OA
DOCKED: ATOM      9  S   UNL     1      36.800  16.388 122.874 -0.37 -0.00    +0.000 S 
DOCKED: ATOM     10  O   UNL     1      35.710  17.371 122.558 -0.27 -0.00    +0.000 OA
DOCKED: BRANCH   8  10
DOCKED: ATOM     11  N   UNL     1      38.250  17.254 123.280 -0.21 -0.00    +0.000 N 
DOCKED: ATOM     12  H   UNL     1      38.157  18.129 123.722 -0.00 -0.00    +0.000 HD
DOCKED: BRANCH  10  12
DOCKED: ATOM     13  C   UNL     1      39.577  16.770 123.007 -0.23 -0.00    +0.000 A 
DOCKED: ATOM     14  C   UNL     1      40.688  17.633 122.940 -0.20 -0.00    +0.000 A 
DOCKED: ATOM     15  C   UNL     1      41.965  17.123 122.682 -0.30 -0.00    +0.000 A 
DOCKED: ATOM     16  C   UNL     1      42.145  15.753 122.484 -0.43 -0.00    +0.000 A 
DOCKED: ATOM     17  C   UNL     1      41.050  14.889 122.540 -0.47 -0.00    +0.000 A 
DOCKED: ATOM     18  C   UNL     1      39.772  15.394 122.799 -0.24 -0.00    +0.000 A 
DOCKED: ATOM     19  CM  UNL     1      40.866  16.260 122.743 +0.00 -0.00    +0.000 AC
DOCKED: ENDBRANCH  10  12
DOCKED: ENDBRANCH   8  10
DOCKED: ENDBRANCH   1   8
DOCKED: BRANCH   3  18
DOCKED: ATOM     20  C   UNL     1      37.446  11.689 120.696 -0.50 -0.00    +0.000 C 
DOCKED: ATOM     21  C   UNL     1      36.916  11.063 121.758 -0.55 -0.00    +0.000 C 
DOCKED: BRANCH  19  20
DOCKED: ATOM     22  C   UNL     1      36.986   9.600 121.959 -0.62 -0.00    +0.000 C 
DOCKED: ATOM     23  N   UNL     1      37.123   9.009 123.259 -0.61 -0.00    +0.000 N 
DOCKED: ATOM     24  O   UNL     1      36.951   8.853 120.945 -2.68 -0.00    +0.000 OA
DOCKED: ATOM     25  H   UNL     1      37.267   9.583 124.046 -0.55 -0.00    +0.000 HD
DOCKED: BRANCH  21  24
DOCKED: ATOM     26  O   UNL     1      37.053   7.664 123.406 -2.27 -0.00    +0.000 OA
DOCKED: ATOM     27  H   UNL     1      37.175   7.238 122.544 -0.12 -0.00    +0.000 HD
DOCKED: ENDBRANCH  21  24
DOCKED: ENDBRANCH  19  20
DOCKED: ENDBRANCH   3  18
DOCKED: TORSDOF 6DOCKED: TER
DOCKED: ENDMDL
________________________________________________________________________________


	BEGINNING GENETIC ALGORITHM DOCKING 35 of 100
Run: 35 Seed: 17645715 1762556328 [ Run 35 of 100 GA/GALS ]
Beginning LAMARCKIAN GENETIC ALGORITHM (LGA), with a maximum of 2500000 energy evaluations.

Final-Value: -15.247


	FINAL GENETIC ALGORITHM DOCKED STATE
	_______________________________________________


Detailed state:  trans 35.657 13.198 122.359 quatxyzw -0.729959 0.259579 0.004977 0.632261 center 0.320 0.169 0.303 ntor 6 21.5033 107.5039 102.1973 -178.1323 -121.7608 142.7215
State:	 35.657  13.198 122.359  -0.942  0.335  0.006 101.566     21.50  107.50  102.20 -178.13 -121.76  142.72

DOCKED: MODEL       35
DOCKED: USER    Run = 35
DOCKED: USER    DPF = ligand_dock.biased.dpf
DOCKED: USER  
DOCKED: USER    Estimated Free Energy of Binding    =  -12.02 kcal/mol  [=(1)+(2)+(3)-(4)]
DOCKED: USER    Estimated Inhibition Constant, Ki   =    1.55 nM (nanomolar)  [Temperature = 298.15 K]
DOCKED: USER    
DOCKED: USER    (1) Final Intermolecular Energy     =  -13.81 kcal/mol
DOCKED: USER        vdW + Hbond + desolv Energy     =  -13.81 kcal/mol
DOCKED: USER        Electrostatic Energy            =   +0.00 kcal/mol
DOCKED: USER    (2) Final Total Internal Energy     =   -1.44 kcal/mol
DOCKED: USER    (3) Torsional Free Energy           =   +1.79 kcal/mol
DOCKED: USER    (4) Unbound System's Energy  [=(2)] =   -1.44 kcal/mol
DOCKED: USER    
DOCKED: USER    
DOCKED: USER    NEWDPF move ligand.dum.pdbqt
DOCKED: USER    NEWDPF about 0.320000 0.169000 0.303000
DOCKED: USER    NEWDPF tran0 35.657211 13.198099 122.358574
DOCKED: USER    NEWDPF quaternion0 -0.729959 0.259579 0.004977 0.632261
DOCKED: USER    NEWDPF axisangle0 -0.942180 0.335047 0.006424 101.565734
DOCKED: USER    NEWDPF quat0 -0.942180 0.335047 0.006424 101.565734
DOCKED: USER    NEWDPF dihe0 21.50 107.50 102.20 -178.13 -121.76 142.72 
DOCKED: USER  keepresnum = 1 
DOCKED: USER  
DOCKED: REMARK  Name = 
DOCKED: REMARK  6 active torsions:
DOCKED: REMARK  status: ('A' for Active; 'I' for Inactive)
DOCKED: REMARK    1  A    between atoms: S_2  and  N_3
DOCKED: REMARK    2  A    between atoms: S_2  and  C_10
DOCKED: REMARK    3  A    between atoms: N_3  and  C_4
DOCKED: REMARK    4  A    between atoms: C_12  and  C_13
DOCKED: REMARK    5  A    between atoms: C_14  and  C_15
DOCKED: REMARK    6  A    between atoms: N_16  and  O_17
DOCKED: REMARK                            x       y       z     vdW  Elec       q    Type
DOCKED: REMARK                         _______ _______ _______ _____ _____    ______ ____
DOCKED: USER                              x       y       z     vdW  Elec       q    Type
DOCKED: USER                           _______ _______ _______ _____ _____    ______ ____
DOCKED: ROOT
DOCKED: ATOM      1  C   UNL     1      35.847  15.423 123.098 -0.37 -0.00    +0.000 A 
DOCKED: ATOM      2  C   UNL     1      36.110  14.050 123.005 -0.36 -0.00    +0.000 A 
DOCKED: ATOM      3  C   UNL     1      37.268  13.583 122.359 -0.45 -0.00    +0.000 A 
DOCKED: ATOM      4  C   UNL     1      38.153  14.521 121.789 -0.35 -0.00    +0.000 A 
DOCKED: ATOM      5  C   UNL     1      37.892  15.890 121.890 -0.22 -0.00    +0.000 A 
DOCKED: ATOM      6  C   UNL     1      36.746  16.342 122.546 -0.25 -0.00    +0.000 A 
DOCKED: ATOM      7  CM  UNL     1      37.003  14.968 122.448 +0.00 -0.00    +0.000 AC
DOCKED: ENDROOT
DOCKED: BRANCH   1   8
DOCKED: ATOM      8  O   UNL     1      33.436  14.844 124.143 -0.60 -0.00    +0.000 OA
DOCKED: ATOM      9  S   UNL     1      34.384  15.986 123.904 -0.69 -0.00    +0.000 S 
DOCKED: ATOM     10  O   UNL     1      33.714  17.006 123.031 -0.40 -0.00    +0.000 OA
DOCKED: BRANCH   8  10
DOCKED: ATOM     11  N   UNL     1      34.786  16.715 125.429 -0.36 -0.00    +0.000 N 
DOCKED: ATOM     12  H   UNL     1      35.738  16.817 125.656 -0.01 -0.00    +0.000 HD
DOCKED: BRANCH  10  12
DOCKED: ATOM     13  C   UNL     1      33.809  17.177 126.380 -0.36 -0.00    +0.000 A 
DOCKED: ATOM     14  C   UNL     1      33.309  16.345 127.401 -0.38 -0.00    +0.000 A 
DOCKED: ATOM     15  C   UNL     1      32.367  16.832 128.313 -0.39 -0.00    +0.000 A 
DOCKED: ATOM     16  C   UNL     1      31.911  18.149 128.213 -0.24 -0.00    +0.000 A 
DOCKED: ATOM     17  C   UNL     1      32.394  18.980 127.200 -0.22 -0.00    +0.000 A 
DOCKED: ATOM     18  C   UNL     1      33.337  18.497 126.287 -0.29 -0.00    +0.000 A 
DOCKED: ATOM     19  CM  UNL     1      32.855  17.663 127.299 +0.00 -0.00    +0.000 AC
DOCKED: ENDBRANCH  10  12
DOCKED: ENDBRANCH   8  10
DOCKED: ENDBRANCH   1   8
DOCKED: BRANCH   3  18
DOCKED: ATOM     20  C   UNL     1      37.486  12.118 122.270 -0.40 -0.00    +0.000 C 
DOCKED: ATOM     21  C   UNL     1      36.500  11.213 122.351 -0.66 -0.00    +0.000 C 
DOCKED: BRANCH  19  20
DOCKED: ATOM     22  C   UNL     1      36.723   9.755 122.261 -0.69 -0.00    +0.000 C 
DOCKED: ATOM     23  N   UNL     1      37.000   8.948 123.413 -0.60 -0.00    +0.000 N 
DOCKED: ATOM     24  O   UNL     1      36.694   9.212 121.124 -2.62 -0.00    +0.000 OA
DOCKED: ATOM     25  H   UNL     1      37.139   9.374 124.289 -0.56 -0.00    +0.000 HD
DOCKED: BRANCH  21  24
DOCKED: ATOM     26  O   UNL     1      37.070   7.599 123.300 -2.26 -0.00    +0.000 OA
DOCKED: ATOM     27  H   UNL     1      37.251   7.362 122.377 -0.11 -0.00    +0.000 HD
DOCKED: ENDBRANCH  21  24
DOCKED: ENDBRANCH  19  20
DOCKED: ENDBRANCH   3  18
DOCKED: TORSDOF 6DOCKED: TER
DOCKED: ENDMDL
________________________________________________________________________________


	BEGINNING GENETIC ALGORITHM DOCKING 36 of 100
Run: 36 Seed: 258550551 880652 [ Run 36 of 100 GA/GALS ]
Beginning LAMARCKIAN GENETIC ALGORITHM (LGA), with a maximum of 2500000 energy evaluations.

Final-Value: -14.845


	FINAL GENETIC ALGORITHM DOCKED STATE
	_______________________________________________


Detailed state:  trans 35.823 13.296 121.930 quatxyzw -0.772275 0.433618 -0.039766 0.462586 center 0.320 0.169 0.303 ntor 6 15.1425 173.0187 -43.3005 98.9809 145.4916 167.8794
State:	 35.823  13.296 121.930  -0.871  0.489 -0.045 124.892     15.14  173.02  -43.30   98.98  145.49  167.88

DOCKED: MODEL       36
DOCKED: USER    Run = 36
DOCKED: USER    DPF = ligand_dock.biased.dpf
DOCKED: USER  
DOCKED: USER    Estimated Free Energy of Binding    =  -11.51 kcal/mol  [=(1)+(2)+(3)-(4)]
DOCKED: USER    Estimated Inhibition Constant, Ki   =    3.68 nM (nanomolar)  [Temperature = 298.15 K]
DOCKED: USER    
DOCKED: USER    (1) Final Intermolecular Energy     =  -13.30 kcal/mol
DOCKED: USER        vdW + Hbond + desolv Energy     =  -13.30 kcal/mol
DOCKED: USER        Electrostatic Energy            =   +0.00 kcal/mol
DOCKED: USER    (2) Final Total Internal Energy     =   -1.55 kcal/mol
DOCKED: USER    (3) Torsional Free Energy           =   +1.79 kcal/mol
DOCKED: USER    (4) Unbound System's Energy  [=(2)] =   -1.55 kcal/mol
DOCKED: USER    
DOCKED: USER    
DOCKED: USER    NEWDPF move ligand.dum.pdbqt
DOCKED: USER    NEWDPF about 0.320000 0.169000 0.303000
DOCKED: USER    NEWDPF tran0 35.822704 13.295694 121.929525
DOCKED: USER    NEWDPF quaternion0 -0.772275 0.433618 -0.039766 0.462586
DOCKED: USER    NEWDPF axisangle0 -0.871077 0.489093 -0.044853 124.891825
DOCKED: USER    NEWDPF quat0 -0.871077 0.489093 -0.044853 124.891825
DOCKED: USER    NEWDPF dihe0 15.14 173.02 -43.30 98.98 145.49 167.88 
DOCKED: USER  keepresnum = 1 
DOCKED: USER  
DOCKED: REMARK  Name = 
DOCKED: REMARK  6 active torsions:
DOCKED: REMARK  status: ('A' for Active; 'I' for Inactive)
DOCKED: REMARK    1  A    between atoms: S_2  and  N_3
DOCKED: REMARK    2  A    between atoms: S_2  and  C_10
DOCKED: REMARK    3  A    between atoms: N_3  and  C_4
DOCKED: REMARK    4  A    between atoms: C_12  and  C_13
DOCKED: REMARK    5  A    between atoms: C_14  and  C_15
DOCKED: REMARK    6  A    between atoms: N_16  and  O_17
DOCKED: REMARK                            x       y       z     vdW  Elec       q    Type
DOCKED: REMARK                         _______ _______ _______ _____ _____    ______ ____
DOCKED: USER                              x       y       z     vdW  Elec       q    Type
DOCKED: USER                           _______ _______ _______ _____ _____    ______ ____
DOCKED: ROOT
DOCKED: ATOM      1  C   UNL     1      35.977  15.185 123.322 -0.41 -0.00    +0.000 A 
DOCKED: ATOM      2  C   UNL     1      36.089  13.849 122.916 -0.31 -0.00    +0.000 A 
DOCKED: ATOM      3  C   UNL     1      37.341  13.300 122.590 -0.48 -0.00    +0.000 A 
DOCKED: ATOM      4  C   UNL     1      38.484  14.124 122.662 -0.41 -0.00    +0.000 A 
DOCKED: ATOM      5  C   UNL     1      38.371  15.454 123.076 -0.28 -0.00    +0.000 A 
DOCKED: ATOM      6  C   UNL     1      37.123  15.983 123.410 -0.30 -0.00    +0.000 A 
DOCKED: ATOM      7  CM  UNL     1      37.231  14.649 122.996 +0.00 -0.00    +0.000 AC
DOCKED: ENDROOT
DOCKED: BRANCH   1   8
DOCKED: ATOM      8  O   UNL     1      33.374  14.761 123.850 -0.63 -0.00    +0.000 OA
DOCKED: ATOM      9  S   UNL     1      34.396  15.855 123.717 -0.68 -0.00    +0.000 S 
DOCKED: ATOM     10  O   UNL     1      33.978  16.786 122.616 -0.46 -0.00    +0.000 OA
DOCKED: BRANCH   8  10
DOCKED: ATOM     11  N   UNL     1      34.476  16.737 125.211 -0.44 -0.00    +0.000 N 
DOCKED: ATOM     12  H   UNL     1      34.337  16.240 126.049 -0.03 -0.00    +0.000 HD
DOCKED: BRANCH  10  12
DOCKED: ATOM     13  C   UNL     1      34.735  18.151 125.296 -0.30 -0.00    +0.000 A 
DOCKED: ATOM     14  C   UNL     1      35.869  18.740 124.704 -0.21 -0.00    +0.000 A 
DOCKED: ATOM     15  C   UNL     1      36.081  20.118 124.800 -0.15 -0.00    +0.000 A 
DOCKED: ATOM     16  C   UNL     1      35.170  20.921 125.490 -0.14 -0.00    +0.000 A 
DOCKED: ATOM     17  C   UNL     1      34.047  20.348 126.087 -0.17 -0.00    +0.000 A 
DOCKED: ATOM     18  C   UNL     1      33.829  18.969 125.992 -0.26 -0.00    +0.000 A 
DOCKED: ATOM     19  CM  UNL     1      34.955  19.541 125.394 -0.05 -0.00    +0.000 AC
DOCKED: ENDBRANCH  10  12
DOCKED: ENDBRANCH   8  10
DOCKED: ENDBRANCH   1   8
DOCKED: BRANCH   3  18
DOCKED: ATOM     20  C   UNL     1      37.400  11.886 122.143 -0.44 -0.00    +0.000 C 
DOCKED: ATOM     21  C   UNL     1      36.988  10.852 122.892 -0.63 -0.00    +0.000 C 
DOCKED: BRANCH  19  20
DOCKED: ATOM     22  C   UNL     1      37.049   9.446 122.443 -0.62 -0.00    +0.000 C 
DOCKED: ATOM     23  N   UNL     1      37.122   8.348 123.363 -0.70 -0.00    +0.000 N 
DOCKED: ATOM     24  O   UNL     1      37.065   9.212 121.205 -2.74 -0.00    +0.000 OA
DOCKED: ATOM     25  H   UNL     1      37.226   8.521 124.326 -0.49 -0.00    +0.000 HD
DOCKED: BRANCH  21  24
DOCKED: ATOM     26  O   UNL     1      37.046   7.073 122.909 -1.82 -0.00    +0.000 OA
DOCKED: ATOM     27  H   UNL     1      37.185   7.063 121.950 -0.15 -0.00    +0.000 HD
DOCKED: ENDBRANCH  21  24
DOCKED: ENDBRANCH  19  20
DOCKED: ENDBRANCH   3  18
DOCKED: TORSDOF 6DOCKED: TER
DOCKED: ENDMDL
________________________________________________________________________________


	BEGINNING GENETIC ALGORITHM DOCKING 37 of 100
Run: 37 Seed: 1275370174 1067547331 [ Run 37 of 100 GA/GALS ]
Beginning LAMARCKIAN GENETIC ALGORITHM (LGA), with a maximum of 2500000 energy evaluations.

Final-Value: -14.773


	FINAL GENETIC ALGORITHM DOCKED STATE
	_______________________________________________


Detailed state:  trans 38.506 13.139 123.598 quatxyzw -0.017269 0.649648 -0.623599 -0.434493 center 0.320 0.169 0.303 ntor 6 11.6324 62.1515 -124.6057 44.9728 -105.3675 42.8461
State:	 38.506  13.139 123.598  -0.019  0.721 -0.692 -128.494     11.63   62.15 -124.61   44.97 -105.37   42.85

DOCKED: MODEL       37
DOCKED: USER    Run = 37
DOCKED: USER    DPF = ligand_dock.biased.dpf
DOCKED: USER  
DOCKED: USER    Estimated Free Energy of Binding    =  -11.54 kcal/mol  [=(1)+(2)+(3)-(4)]
DOCKED: USER    Estimated Inhibition Constant, Ki   =    3.45 nM (nanomolar)  [Temperature = 298.15 K]
DOCKED: USER    
DOCKED: USER    (1) Final Intermolecular Energy     =  -13.33 kcal/mol
DOCKED: USER        vdW + Hbond + desolv Energy     =  -13.33 kcal/mol
DOCKED: USER        Electrostatic Energy            =   +0.00 kcal/mol
DOCKED: USER    (2) Final Total Internal Energy     =   -1.44 kcal/mol
DOCKED: USER    (3) Torsional Free Energy           =   +1.79 kcal/mol
DOCKED: USER    (4) Unbound System's Energy  [=(2)] =   -1.44 kcal/mol
DOCKED: USER    
DOCKED: USER    
DOCKED: USER    NEWDPF move ligand.dum.pdbqt
DOCKED: USER    NEWDPF about 0.320000 0.169000 0.303000
DOCKED: USER    NEWDPF tran0 38.505619 13.138504 123.598466
DOCKED: USER    NEWDPF quaternion0 -0.017269 0.649648 -0.623599 -0.434493
DOCKED: USER    NEWDPF axisangle0 -0.019173 0.721290 -0.692368 -128.493887
DOCKED: USER    NEWDPF quat0 -0.019173 0.721290 -0.692368 -128.493887
DOCKED: USER    NEWDPF dihe0 11.63 62.15 -124.61 44.97 -105.37 42.85 
DOCKED: USER  keepresnum = 1 
DOCKED: USER  
DOCKED: REMARK  Name = 
DOCKED: REMARK  6 active torsions:
DOCKED: REMARK  status: ('A' for Active; 'I' for Inactive)
DOCKED: REMARK    1  A    between atoms: S_2  and  N_3
DOCKED: REMARK    2  A    between atoms: S_2  and  C_10
DOCKED: REMARK    3  A    between atoms: N_3  and  C_4
DOCKED: REMARK    4  A    between atoms: C_12  and  C_13
DOCKED: REMARK    5  A    between atoms: C_14  and  C_15
DOCKED: REMARK    6  A    between atoms: N_16  and  O_17
DOCKED: REMARK                            x       y       z     vdW  Elec       q    Type
DOCKED: REMARK                         _______ _______ _______ _____ _____    ______ ____
DOCKED: USER                              x       y       z     vdW  Elec       q    Type
DOCKED: USER                           _______ _______ _______ _____ _____    ______ ____
DOCKED: ROOT
DOCKED: ATOM      1  C   UNL     1      37.708  15.297 123.109 -0.33 -0.00    +0.000 A 
DOCKED: ATOM      2  C   UNL     1      37.907  13.916 122.977 -0.45 -0.00    +0.000 A 
DOCKED: ATOM      3  C   UNL     1      36.882  13.009 123.299 -0.55 -0.00    +0.000 A 
DOCKED: ATOM      4  C   UNL     1      35.654  13.512 123.775 -0.44 -0.00    +0.000 A 
DOCKED: ATOM      5  C   UNL     1      35.455  14.890 123.898 -0.49 -0.00    +0.000 A 
DOCKED: ATOM      6  C   UNL     1      36.475  15.781 123.562 -0.34 -0.00    +0.000 A 
DOCKED: ATOM      7  CM  UNL     1      36.680  14.401 123.436 +0.00 -0.00    +0.000 AC
DOCKED: ENDROOT
DOCKED: BRANCH   1   8
DOCKED: ATOM      8  O   UNL     1      39.513  17.107 123.944 -0.30 -0.00    +0.000 OA
DOCKED: ATOM      9  S   UNL     1      39.009  16.415 122.709 -0.33 -0.00    +0.000 S 
DOCKED: ATOM     10  O   UNL     1      38.483  17.444 121.750 -0.11 -0.00    +0.000 OA
DOCKED: BRANCH   8  10
DOCKED: ATOM     11  N   UNL     1      40.324  15.560 121.963 -0.31 -0.00    +0.000 N 
DOCKED: ATOM     12  H   UNL     1      40.132  14.690 121.546 -0.02 -0.00    +0.000 HD
DOCKED: BRANCH  10  12
DOCKED: ATOM     13  C   UNL     1      41.677  16.047 121.921 -0.32 -0.00    +0.000 A 
DOCKED: ATOM     14  C   UNL     1      42.460  15.978 120.752 -0.22 -0.00    +0.000 A 
DOCKED: ATOM     15  C   UNL     1      43.769  16.470 120.746 -0.21 -0.00    +0.000 A 
DOCKED: ATOM     16  C   UNL     1      44.311  17.032 121.904 -0.27 -0.00    +0.000 A 
DOCKED: ATOM     17  C   UNL     1      43.547  17.099 123.071 -0.29 -0.00    +0.000 A 
DOCKED: ATOM     18  C   UNL     1      42.238  16.609 123.081 -0.38 -0.00    +0.000 A 
DOCKED: ATOM     19  CM  UNL     1      43.000  16.540 121.912 +0.00 -0.00    +0.000 AC
DOCKED: ENDBRANCH  10  12
DOCKED: ENDBRANCH   8  10
DOCKED: ENDBRANCH   1   8
DOCKED: BRANCH   3  18
DOCKED: ATOM     20  C   UNL     1      37.154  11.557 123.162 -0.60 -0.00    +0.000 C 
DOCKED: ATOM     21  C   UNL     1      36.540  10.766 122.269 -0.66 -0.00    +0.000 C 
DOCKED: BRANCH  19  20
DOCKED: ATOM     22  C   UNL     1      36.814   9.320 122.137 -0.69 -0.00    +0.000 C 
DOCKED: ATOM     23  N   UNL     1      36.939   8.455 123.273 -0.70 -0.00    +0.000 N 
DOCKED: ATOM     24  O   UNL     1      36.969   8.842 120.981 -2.68 -0.00    +0.000 OA
DOCKED: ATOM     25  H   UNL     1      36.935   8.834 124.182 -0.50 -0.00    +0.000 HD
DOCKED: BRANCH  21  24
DOCKED: ATOM     26  O   UNL     1      37.063   7.117 123.100 -1.93 -0.00    +0.000 OA
DOCKED: ATOM     27  H   UNL     1      37.232   6.926 122.165 -0.20 -0.00    +0.000 HD
DOCKED: ENDBRANCH  21  24
DOCKED: ENDBRANCH  19  20
DOCKED: ENDBRANCH   3  18
DOCKED: TORSDOF 6DOCKED: TER
DOCKED: ENDMDL
________________________________________________________________________________


	BEGINNING GENETIC ALGORITHM DOCKING 38 of 100
Run: 38 Seed: 420559376 87080807 [ Run 38 of 100 GA/GALS ]
Beginning LAMARCKIAN GENETIC ALGORITHM (LGA), with a maximum of 2500000 energy evaluations.

Final-Value: -14.611


	FINAL GENETIC ALGORITHM DOCKED STATE
	_______________________________________________


Detailed state:  trans 38.136 13.812 122.529 quatxyzw -0.212711 0.710740 -0.569974 -0.353174 center 0.320 0.169 0.303 ntor 6 9.2784 121.2779 107.5534 15.9463 -25.6764 20.5501
State:	 38.136  13.812 122.529  -0.227  0.760 -0.609 -138.637      9.28  121.28  107.55   15.95  -25.68   20.55

DOCKED: MODEL       38
DOCKED: USER    Run = 38
DOCKED: USER    DPF = ligand_dock.biased.dpf
DOCKED: USER  
DOCKED: USER    Estimated Free Energy of Binding    =  -11.14 kcal/mol  [=(1)+(2)+(3)-(4)]
DOCKED: USER    Estimated Inhibition Constant, Ki   =    6.84 nM (nanomolar)  [Temperature = 298.15 K]
DOCKED: USER    
DOCKED: USER    (1) Final Intermolecular Energy     =  -12.93 kcal/mol
DOCKED: USER        vdW + Hbond + desolv Energy     =  -12.93 kcal/mol
DOCKED: USER        Electrostatic Energy            =   +0.00 kcal/mol
DOCKED: USER    (2) Final Total Internal Energy     =   -1.68 kcal/mol
DOCKED: USER    (3) Torsional Free Energy           =   +1.79 kcal/mol
DOCKED: USER    (4) Unbound System's Energy  [=(2)] =   -1.68 kcal/mol
DOCKED: USER    
DOCKED: USER    
DOCKED: USER    NEWDPF move ligand.dum.pdbqt
DOCKED: USER    NEWDPF about 0.320000 0.169000 0.303000
DOCKED: USER    NEWDPF tran0 38.135603 13.811823 122.528594
DOCKED: USER    NEWDPF quaternion0 -0.212711 0.710740 -0.569974 -0.353174
DOCKED: USER    NEWDPF axisangle0 -0.227363 0.759697 -0.609235 -138.636880
DOCKED: USER    NEWDPF quat0 -0.227363 0.759697 -0.609235 -138.636880
DOCKED: USER    NEWDPF dihe0 9.28 121.28 107.55 15.95 -25.68 20.55 
DOCKED: USER  keepresnum = 1 
DOCKED: USER  
DOCKED: REMARK  Name = 
DOCKED: REMARK  6 active torsions:
DOCKED: REMARK  status: ('A' for Active; 'I' for Inactive)
DOCKED: REMARK    1  A    between atoms: S_2  and  N_3
DOCKED: REMARK    2  A    between atoms: S_2  and  C_10
DOCKED: REMARK    3  A    between atoms: N_3  and  C_4
DOCKED: REMARK    4  A    between atoms: C_12  and  C_13
DOCKED: REMARK    5  A    between atoms: C_14  and  C_15
DOCKED: REMARK    6  A    between atoms: N_16  and  O_17
DOCKED: REMARK                            x       y       z     vdW  Elec       q    Type
DOCKED: REMARK                         _______ _______ _______ _____ _____    ______ ____
DOCKED: USER                              x       y       z     vdW  Elec       q    Type
DOCKED: USER                           _______ _______ _______ _____ _____    ______ ____
DOCKED: ROOT
DOCKED: ATOM      1  C   UNL     1      36.801  15.746 122.425 -0.28 -0.00    +0.000 A 
DOCKED: ATOM      2  C   UNL     1      37.201  14.421 122.206 -0.37 -0.00    +0.000 A 
DOCKED: ATOM      3  C   UNL     1      36.585  13.362 122.896 -0.49 -0.00    +0.000 A 
DOCKED: ATOM      4  C   UNL     1      35.567  13.658 123.826 -0.44 -0.00    +0.000 A 
DOCKED: ATOM      5  C   UNL     1      35.165  14.979 124.038 -0.50 -0.00    +0.000 A 
DOCKED: ATOM      6  C   UNL     1      35.775  16.021 123.337 -0.37 -0.00    +0.000 A 
DOCKED: ATOM      7  CM  UNL     1      36.182  14.698 123.121 +0.00 -0.00    +0.000 AC
DOCKED: ENDROOT
DOCKED: BRANCH   1   8
DOCKED: ATOM      8  O   UNL     1      37.925  18.189 122.491 -0.12 -0.00    +0.000 OA
DOCKED: ATOM      9  S   UNL     1      37.593  17.059 121.557 -0.19 -0.00    +0.000 S 
DOCKED: ATOM     10  O   UNL     1      36.664  17.562 120.490 -0.14 -0.00    +0.000 OA
DOCKED: BRANCH   8  10
DOCKED: ATOM     11  N   UNL     1      39.058  16.488 120.818 -0.13 -0.00    +0.000 N 
DOCKED: ATOM     12  H   UNL     1      39.041  16.289 119.854 +0.00 -0.00    +0.000 HD
DOCKED: BRANCH  10  12
DOCKED: ATOM     13  C   UNL     1      40.292  16.290 121.530 -0.21 -0.00    +0.000 A 
DOCKED: ATOM     14  C   UNL     1      40.673  15.028 122.027 -0.38 -0.00    +0.000 A 
DOCKED: ATOM     15  C   UNL     1      41.885  14.872 122.707 -0.50 -0.00    +0.000 A 
DOCKED: ATOM     16  C   UNL     1      42.725  15.970 122.902 -0.38 -0.00    +0.000 A 
DOCKED: ATOM     17  C   UNL     1      42.354  17.227 122.421 -0.27 -0.00    +0.000 A 
DOCKED: ATOM     18  C   UNL     1      41.144  17.388 121.740 -0.14 -0.00    +0.000 A 
DOCKED: ATOM     19  CM  UNL     1      41.513  16.129 122.221 +0.00 -0.00    +0.000 AC
DOCKED: ENDBRANCH  10  12
DOCKED: ENDBRANCH   8  10
DOCKED: ENDBRANCH   1   8
DOCKED: BRANCH   3  18
DOCKED: ATOM     20  C   UNL     1      37.062  11.980 122.643 -0.62 -0.00    +0.000 C 
DOCKED: ATOM     21  C   UNL     1      36.253  10.911 122.598 -0.68 -0.00    +0.000 C 
DOCKED: BRANCH  19  20
DOCKED: ATOM     22  C   UNL     1      36.734   9.536 122.346 -0.70 -0.00    +0.000 C 
DOCKED: ATOM     23  N   UNL     1      36.877   8.568 123.393 -0.66 -0.00    +0.000 N 
DOCKED: ATOM     24  O   UNL     1      37.054   9.220 121.169 -2.74 -0.00    +0.000 OA
DOCKED: ATOM     25  H   UNL     1      36.741   8.835 124.331 -0.42 -0.00    +0.000 HD
DOCKED: BRANCH  21  24
DOCKED: ATOM     26  O   UNL     1      37.197   7.285 123.096 -2.02 -0.00    +0.000 OA
DOCKED: ATOM     27  H   UNL     1      37.437   7.221 122.159 -0.17 -0.00    +0.000 HD
DOCKED: ENDBRANCH  21  24
DOCKED: ENDBRANCH  19  20
DOCKED: ENDBRANCH   3  18
DOCKED: TORSDOF 6DOCKED: TER
DOCKED: ENDMDL
________________________________________________________________________________


	BEGINNING GENETIC ALGORITHM DOCKING 39 of 100
Run: 39 Seed: 760907164 1441024322 [ Run 39 of 100 GA/GALS ]
Beginning LAMARCKIAN GENETIC ALGORITHM (LGA), with a maximum of 2500000 energy evaluations.

Final-Value: -15.802


	FINAL GENETIC ALGORITHM DOCKED STATE
	_______________________________________________


Detailed state:  trans 35.476 13.043 122.817 quatxyzw 0.685824 -0.376477 0.014728 -0.622651 center 0.320 0.169 0.303 ntor 6 12.0749 13.0119 -87.3708 -91.9873 -103.2968 147.2667
State:	 35.476  13.043 122.817   0.876 -0.481  0.019 -102.980     12.07   13.01  -87.37  -91.99 -103.30  147.27

DOCKED: MODEL       39
DOCKED: USER    Run = 39
DOCKED: USER    DPF = ligand_dock.biased.dpf
DOCKED: USER  
DOCKED: USER    Estimated Free Energy of Binding    =  -12.54 kcal/mol  [=(1)+(2)+(3)-(4)]
DOCKED: USER    Estimated Inhibition Constant, Ki   =  640.08 pM (picomolar)  [Temperature = 298.15 K]
DOCKED: USER    
DOCKED: USER    (1) Final Intermolecular Energy     =  -14.33 kcal/mol
DOCKED: USER        vdW + Hbond + desolv Energy     =  -14.33 kcal/mol
DOCKED: USER        Electrostatic Energy            =   +0.00 kcal/mol
DOCKED: USER    (2) Final Total Internal Energy     =   -1.47 kcal/mol
DOCKED: USER    (3) Torsional Free Energy           =   +1.79 kcal/mol
DOCKED: USER    (4) Unbound System's Energy  [=(2)] =   -1.47 kcal/mol
DOCKED: USER    
DOCKED: USER    
DOCKED: USER    NEWDPF move ligand.dum.pdbqt
DOCKED: USER    NEWDPF about 0.320000 0.169000 0.303000
DOCKED: USER    NEWDPF tran0 35.476347 13.043449 122.816554
DOCKED: USER    NEWDPF quaternion0 0.685824 -0.376477 0.014728 -0.622651
DOCKED: USER    NEWDPF axisangle0 0.876452 -0.481121 0.018822 -102.980073
DOCKED: USER    NEWDPF quat0 0.876452 -0.481121 0.018822 -102.980073
DOCKED: USER    NEWDPF dihe0 12.07 13.01 -87.37 -91.99 -103.30 147.27 
DOCKED: USER  keepresnum = 1 
DOCKED: USER  
DOCKED: REMARK  Name = 
DOCKED: REMARK  6 active torsions:
DOCKED: REMARK  status: ('A' for Active; 'I' for Inactive)
DOCKED: REMARK    1  A    between atoms: S_2  and  N_3
DOCKED: REMARK    2  A    between atoms: S_2  and  C_10
DOCKED: REMARK    3  A    between atoms: N_3  and  C_4
DOCKED: REMARK    4  A    between atoms: C_12  and  C_13
DOCKED: REMARK    5  A    between atoms: C_14  and  C_15
DOCKED: REMARK    6  A    between atoms: N_16  and  O_17
DOCKED: REMARK                            x       y       z     vdW  Elec       q    Type
DOCKED: REMARK                         _______ _______ _______ _____ _____    ______ ____
DOCKED: USER                              x       y       z     vdW  Elec       q    Type
DOCKED: USER                           _______ _______ _______ _____ _____    ______ ____
DOCKED: ROOT
DOCKED: ATOM      1  C   UNL     1      35.913  15.253 123.495 -0.43 -0.00    +0.000 A 
DOCKED: ATOM      2  C   UNL     1      35.949  13.853 123.503 -0.50 -0.00    +0.000 A 
DOCKED: ATOM      3  C   UNL     1      37.104  13.161 123.099 -0.53 -0.00    +0.000 A 
DOCKED: ATOM      4  C   UNL     1      38.223  13.901 122.668 -0.42 -0.00    +0.000 A 
DOCKED: ATOM      5  C   UNL     1      38.189  15.298 122.667 -0.32 -0.00    +0.000 A 
DOCKED: ATOM      6  C   UNL     1      37.041  15.974 123.083 -0.29 -0.00    +0.000 A 
DOCKED: ATOM      7  CM  UNL     1      37.070  14.573 123.086 +0.00 -0.00    +0.000 AC
DOCKED: ENDROOT
DOCKED: BRANCH   1   8
DOCKED: ATOM      8  O   UNL     1      33.322  15.130 124.205 -0.49 -0.00    +0.000 OA
DOCKED: ATOM      9  S   UNL     1      34.452  16.100 123.996 -0.69 -0.00    +0.000 S 
DOCKED: ATOM     10  O   UNL     1      34.068  17.077 122.923 -0.48 -0.00    +0.000 OA
DOCKED: BRANCH   8  10
DOCKED: ATOM     11  N   UNL     1      34.738  16.961 125.477 -0.36 -0.00    +0.000 N 
DOCKED: ATOM     12  H   UNL     1      35.666  17.208 125.695 -0.02 -0.00    +0.000 HD
DOCKED: BRANCH  10  12
DOCKED: ATOM     13  C   UNL     1      33.701  17.335 126.402 -0.36 -0.00    +0.000 A 
DOCKED: ATOM     14  C   UNL     1      33.147  18.630 126.420 -0.27 -0.00    +0.000 A 
DOCKED: ATOM     15  C   UNL     1      32.134  18.953 127.328 -0.21 -0.00    +0.000 A 
DOCKED: ATOM     16  C   UNL     1      31.668  17.993 128.228 -0.26 -0.00    +0.000 A 
DOCKED: ATOM     17  C   UNL     1      32.215  16.709 128.225 -0.40 -0.00    +0.000 A 
DOCKED: ATOM     18  C   UNL     1      33.227  16.380 127.318 -0.37 -0.00    +0.000 A 
DOCKED: ATOM     19  CM  UNL     1      32.682  17.667 127.320 +0.00 -0.00    +0.000 AC
DOCKED: ENDBRANCH  10  12
DOCKED: ENDBRANCH   8  10
DOCKED: ENDBRANCH   1   8
DOCKED: BRANCH   3  18
DOCKED: ATOM     20  C   UNL     1      37.079  11.677 123.107 -0.65 -0.00    +0.000 C 
DOCKED: ATOM     21  C   UNL     1      37.064  10.928 121.993 -0.54 -0.00    +0.000 C 
DOCKED: BRANCH  19  20
DOCKED: ATOM     22  C   UNL     1      37.039   9.451 122.006 -0.63 -0.00    +0.000 C 
DOCKED: ATOM     23  N   UNL     1      37.141   8.691 123.218 -0.66 -0.00    +0.000 N 
DOCKED: ATOM     24  O   UNL     1      36.954   8.843 120.905 -2.69 -0.00    +0.000 OA
DOCKED: ATOM     25  H   UNL     1      37.323   9.148 124.070 -0.55 -0.00    +0.000 HD
DOCKED: BRANCH  21  24
DOCKED: ATOM     26  O   UNL     1      36.985   7.345 123.193 -2.11 -0.00    +0.000 OA
DOCKED: ATOM     27  H   UNL     1      37.003   7.035 122.275 -0.11 -0.00    +0.000 HD
DOCKED: ENDBRANCH  21  24
DOCKED: ENDBRANCH  19  20
DOCKED: ENDBRANCH   3  18
DOCKED: TORSDOF 6DOCKED: TER
DOCKED: ENDMDL
________________________________________________________________________________


	BEGINNING GENETIC ALGORITHM DOCKING 40 of 100
Run: 40 Seed: 1780620842 417589230 [ Run 40 of 100 GA/GALS ]
Beginning LAMARCKIAN GENETIC ALGORITHM (LGA), with a maximum of 2500000 energy evaluations.

Final-Value: -14.606


	FINAL GENETIC ALGORITHM DOCKED STATE
	_______________________________________________


Detailed state:  trans 35.879 13.320 122.179 quatxyzw 0.757209 -0.397146 0.086018 -0.511382 center 0.320 0.169 0.303 ntor 6 7.3547 112.1288 -127.4866 154.4000 108.0428 168.5369
State:	 35.879  13.320 122.179   0.881 -0.462  0.100 -118.488      7.35  112.13 -127.49  154.40  108.04  168.54

DOCKED: MODEL       40
DOCKED: USER    Run = 40
DOCKED: USER    DPF = ligand_dock.biased.dpf
DOCKED: USER  
DOCKED: USER    Estimated Free Energy of Binding    =  -11.13 kcal/mol  [=(1)+(2)+(3)-(4)]
DOCKED: USER    Estimated Inhibition Constant, Ki   =    6.89 nM (nanomolar)  [Temperature = 298.15 K]
DOCKED: USER    
DOCKED: USER    (1) Final Intermolecular Energy     =  -12.92 kcal/mol
DOCKED: USER        vdW + Hbond + desolv Energy     =  -12.92 kcal/mol
DOCKED: USER        Electrostatic Energy            =   +0.00 kcal/mol
DOCKED: USER    (2) Final Total Internal Energy     =   -1.68 kcal/mol
DOCKED: USER    (3) Torsional Free Energy           =   +1.79 kcal/mol
DOCKED: USER    (4) Unbound System's Energy  [=(2)] =   -1.68 kcal/mol
DOCKED: USER    
DOCKED: USER    
DOCKED: USER    NEWDPF move ligand.dum.pdbqt
DOCKED: USER    NEWDPF about 0.320000 0.169000 0.303000
DOCKED: USER    NEWDPF tran0 35.878508 13.320021 122.179352
DOCKED: USER    NEWDPF quaternion0 0.757209 -0.397146 0.086018 -0.511382
DOCKED: USER    NEWDPF axisangle0 0.881137 -0.462145 0.100096 -118.488142
DOCKED: USER    NEWDPF quat0 0.881137 -0.462145 0.100096 -118.488142
DOCKED: USER    NEWDPF dihe0 7.35 112.13 -127.49 154.40 108.04 168.54 
DOCKED: USER  keepresnum = 1 
DOCKED: USER  
DOCKED: REMARK  Name = 
DOCKED: REMARK  6 active torsions:
DOCKED: REMARK  status: ('A' for Active; 'I' for Inactive)
DOCKED: REMARK    1  A    between atoms: S_2  and  N_3
DOCKED: REMARK    2  A    between atoms: S_2  and  C_10
DOCKED: REMARK    3  A    between atoms: N_3  and  C_4
DOCKED: REMARK    4  A    between atoms: C_12  and  C_13
DOCKED: REMARK    5  A    between atoms: C_14  and  C_15
DOCKED: REMARK    6  A    between atoms: N_16  and  O_17
DOCKED: REMARK                            x       y       z     vdW  Elec       q    Type
DOCKED: REMARK                         _______ _______ _______ _____ _____    ______ ____
DOCKED: USER                              x       y       z     vdW  Elec       q    Type
DOCKED: USER                           _______ _______ _______ _____ _____    ______ ____
DOCKED: ROOT
DOCKED: ATOM      1  C   UNL     1      35.874  15.383 123.310 -0.40 -0.00    +0.000 A 
DOCKED: ATOM      2  C   UNL     1      36.096  14.019 123.082 -0.41 -0.00    +0.000 A 
DOCKED: ATOM      3  C   UNL     1      37.390  13.536 122.820 -0.48 -0.00    +0.000 A 
DOCKED: ATOM      4  C   UNL     1      38.461  14.452 122.773 -0.39 -0.00    +0.000 A 
DOCKED: ATOM      5  C   UNL     1      38.238  15.811 123.008 -0.28 -0.00    +0.000 A 
DOCKED: ATOM      6  C   UNL     1      36.951  16.277 123.281 -0.28 -0.00    +0.000 A 
DOCKED: ATOM      7  CM  UNL     1      37.169  14.913 123.046 +0.00 -0.00    +0.000 AC
DOCKED: ENDROOT
DOCKED: BRANCH   1   8
DOCKED: ATOM      8  O   UNL     1      33.317  14.822 123.927 -0.63 -0.00    +0.000 OA
DOCKED: ATOM      9  S   UNL     1      34.243  15.968 123.626 -0.63 -0.00    +0.000 S 
DOCKED: ATOM     10  O   UNL     1      33.745  16.694 122.410 -0.40 -0.00    +0.000 OA
DOCKED: BRANCH   8  10
DOCKED: ATOM     11  N   UNL     1      34.250  17.058 124.979 -0.43 -0.00    +0.000 N 
DOCKED: ATOM     12  H   UNL     1      33.650  16.862 125.734 -0.02 -0.00    +0.000 HD
DOCKED: BRANCH  10  12
DOCKED: ATOM     13  C   UNL     1      35.082  18.229 125.061 -0.27 -0.00    +0.000 A 
DOCKED: ATOM     14  C   UNL     1      35.736  18.599 126.253 -0.17 -0.00    +0.000 A 
DOCKED: ATOM     15  C   UNL     1      36.544  19.740 126.291 -0.12 -0.00    +0.000 A 
DOCKED: ATOM     16  C   UNL     1      36.703  20.525 125.148 -0.10 -0.00    +0.000 A 
DOCKED: ATOM     17  C   UNL     1      36.053  20.173 123.963 -0.16 -0.00    +0.000 A 
DOCKED: ATOM     18  C   UNL     1      35.246  19.032 123.919 -0.17 -0.00    +0.000 A 
DOCKED: ATOM     19  CM  UNL     1      35.894  19.383 125.106 -0.04 -0.00    +0.000 AC
DOCKED: ENDBRANCH  10  12
DOCKED: ENDBRANCH   8  10
DOCKED: ENDBRANCH   1   8
DOCKED: BRANCH   3  18
DOCKED: ATOM     20  C   UNL     1      37.566  12.085 122.563 -0.23 -0.00    +0.000 C 
DOCKED: ATOM     21  C   UNL     1      36.572  11.188 122.652 -0.67 -0.00    +0.000 C 
DOCKED: BRANCH  19  20
DOCKED: ATOM     22  C   UNL     1      36.752   9.744 122.395 -0.69 -0.00    +0.000 C 
DOCKED: ATOM     23  N   UNL     1      37.028   8.806 123.444 -0.62 -0.00    +0.000 N 
DOCKED: ATOM     24  O   UNL     1      36.686   9.334 121.205 -2.52 -0.00    +0.000 OA
DOCKED: ATOM     25  H   UNL     1      37.195   9.128 124.359 -0.54 -0.00    +0.000 HD
DOCKED: BRANCH  21  24
DOCKED: ATOM     26  O   UNL     1      37.058   7.478 123.179 -2.21 -0.00    +0.000 OA
DOCKED: ATOM     27  H   UNL     1      36.989   7.337 122.222 -0.07 -0.00    +0.000 HD
DOCKED: ENDBRANCH  21  24
DOCKED: ENDBRANCH  19  20
DOCKED: ENDBRANCH   3  18
DOCKED: TORSDOF 6DOCKED: TER
DOCKED: ENDMDL
________________________________________________________________________________


	BEGINNING GENETIC ALGORITHM DOCKING 41 of 100
Run: 41 Seed: 676447286 606247540 [ Run 41 of 100 GA/GALS ]
Beginning LAMARCKIAN GENETIC ALGORITHM (LGA), with a maximum of 2500000 energy evaluations.

Final-Value: -14.303


	FINAL GENETIC ALGORITHM DOCKED STATE
	_______________________________________________


Detailed state:  trans 35.904 13.141 122.641 quatxyzw 0.624445 -0.103895 -0.160786 -0.757246 center 0.320 0.169 0.303 ntor 6 17.1501 93.6180 -20.8612 -135.0860 6.8209 -87.2459
State:	 35.904  13.141 122.641   0.956 -0.159 -0.246 -81.556     17.15   93.62  -20.86 -135.09    6.82  -87.25

DOCKED: MODEL       41
DOCKED: USER    Run = 41
DOCKED: USER    DPF = ligand_dock.biased.dpf
DOCKED: USER  
DOCKED: USER    Estimated Free Energy of Binding    =  -11.00 kcal/mol  [=(1)+(2)+(3)-(4)]
DOCKED: USER    Estimated Inhibition Constant, Ki   =    8.63 nM (nanomolar)  [Temperature = 298.15 K]
DOCKED: USER    
DOCKED: USER    (1) Final Intermolecular Energy     =  -12.79 kcal/mol
DOCKED: USER        vdW + Hbond + desolv Energy     =  -12.79 kcal/mol
DOCKED: USER        Electrostatic Energy            =   +0.00 kcal/mol
DOCKED: USER    (2) Final Total Internal Energy     =   -1.51 kcal/mol
DOCKED: USER    (3) Torsional Free Energy           =   +1.79 kcal/mol
DOCKED: USER    (4) Unbound System's Energy  [=(2)] =   -1.51 kcal/mol
DOCKED: USER    
DOCKED: USER    
DOCKED: USER    NEWDPF move ligand.dum.pdbqt
DOCKED: USER    NEWDPF about 0.320000 0.169000 0.303000
DOCKED: USER    NEWDPF tran0 35.903685 13.140675 122.641423
DOCKED: USER    NEWDPF quaternion0 0.624445 -0.103895 -0.160786 -0.757246
DOCKED: USER    NEWDPF axisangle0 0.956082 -0.159072 -0.246178 -81.555937
DOCKED: USER    NEWDPF quat0 0.956082 -0.159072 -0.246178 -81.555937
DOCKED: USER    NEWDPF dihe0 17.15 93.62 -20.86 -135.09 6.82 -87.25 
DOCKED: USER  keepresnum = 1 
DOCKED: USER  
DOCKED: REMARK  Name = 
DOCKED: REMARK  6 active torsions:
DOCKED: REMARK  status: ('A' for Active; 'I' for Inactive)
DOCKED: REMARK    1  A    between atoms: S_2  and  N_3
DOCKED: REMARK    2  A    between atoms: S_2  and  C_10
DOCKED: REMARK    3  A    between atoms: N_3  and  C_4
DOCKED: REMARK    4  A    between atoms: C_12  and  C_13
DOCKED: REMARK    5  A    between atoms: C_14  and  C_15
DOCKED: REMARK    6  A    between atoms: N_16  and  O_17
DOCKED: REMARK                            x       y       z     vdW  Elec       q    Type
DOCKED: REMARK                         _______ _______ _______ _____ _____    ______ ____
DOCKED: USER                              x       y       z     vdW  Elec       q    Type
DOCKED: USER                           _______ _______ _______ _____ _____    ______ ____
DOCKED: ROOT
DOCKED: ATOM      1  C   UNL     1      36.344  15.452 122.671 -0.31 -0.00    +0.000 A 
DOCKED: ATOM      2  C   UNL     1      36.579  14.075 122.784 -0.42 -0.00    +0.000 A 
DOCKED: ATOM      3  C   UNL     1      37.307  13.387 121.798 -0.42 -0.00    +0.000 A 
DOCKED: ATOM      4  C   UNL     1      37.783  14.104 120.681 -0.33 -0.00    +0.000 A 
DOCKED: ATOM      5  C   UNL     1      37.553  15.478 120.573 -0.20 -0.00    +0.000 A 
DOCKED: ATOM      6  C   UNL     1      36.841  16.153 121.566 -0.20 -0.00    +0.000 A 
DOCKED: ATOM      7  CM  UNL     1      37.068  14.775 121.679 +0.00 -0.00    +0.000 AC
DOCKED: ENDROOT
DOCKED: BRANCH   1   8
DOCKED: ATOM      8  O   UNL     1      36.265  17.337 124.587 -0.30 -0.00    +0.000 OA
DOCKED: ATOM      9  S   UNL     1      35.421  16.292 123.914 -0.56 -0.00    +0.000 S 
DOCKED: ATOM     10  O   UNL     1      34.970  15.291 124.939 -0.58 -0.00    +0.000 OA
DOCKED: BRANCH   8  10
DOCKED: ATOM     11  N   UNL     1      34.029  17.056 123.211 -0.40 -0.00    +0.000 N 
DOCKED: ATOM     12  H   UNL     1      33.163  16.949 123.667 +0.07 -0.00    +0.000 HD
DOCKED: BRANCH  10  12
DOCKED: ATOM     13  C   UNL     1      34.066  17.837 122.003 -0.34 -0.00    +0.000 A 
DOCKED: ATOM     14  C   UNL     1      35.195  18.599 121.640 -0.24 -0.00    +0.000 A 
DOCKED: ATOM     15  C   UNL     1      35.197  19.338 120.453 -0.10 -0.00    +0.000 A 
DOCKED: ATOM     16  C   UNL     1      34.077  19.330 119.620 -0.19 -0.00    +0.000 A 
DOCKED: ATOM     17  C   UNL     1      32.950  18.585 119.973 -0.36 -0.00    +0.000 A 
DOCKED: ATOM     18  C   UNL     1      32.943  17.843 121.158 -0.20 -0.00    +0.000 A 
DOCKED: ATOM     19  CM  UNL     1      34.072  18.588 120.808 +0.00 -0.00    +0.000 AC
DOCKED: ENDBRANCH  10  12
DOCKED: ENDBRANCH   8  10
DOCKED: ENDBRANCH   1   8
DOCKED: BRANCH   3  18
DOCKED: ATOM     20  C   UNL     1      37.508  11.926 121.956 -0.29 -0.00    +0.000 C 
DOCKED: ATOM     21  C   UNL     1      36.511  11.029 121.910 -0.59 -0.00    +0.000 C 
DOCKED: BRANCH  19  20
DOCKED: ATOM     22  C   UNL     1      36.717   9.574 122.069 -0.69 -0.00    +0.000 C 
DOCKED: ATOM     23  N   UNL     1      36.975   8.969 123.342 -0.61 -0.00    +0.000 N 
DOCKED: ATOM     24  O   UNL     1      36.690   8.848 121.038 -2.61 -0.00    +0.000 OA
DOCKED: ATOM     25  H   UNL     1      37.113   9.535 124.136 -0.57 -0.00    +0.000 HD
DOCKED: BRANCH  21  24
DOCKED: ATOM     26  O   UNL     1      37.030   7.620 123.457 -2.23 -0.00    +0.000 OA
DOCKED: ATOM     27  H   UNL     1      37.145   7.225 122.579 -0.12 -0.00    +0.000 HD
DOCKED: ENDBRANCH  21  24
DOCKED: ENDBRANCH  19  20
DOCKED: ENDBRANCH   3  18
DOCKED: TORSDOF 6DOCKED: TER
DOCKED: ENDMDL
________________________________________________________________________________


	BEGINNING GENETIC ALGORITHM DOCKING 42 of 100
Run: 42 Seed: 1832612538 1449358563 [ Run 42 of 100 GA/GALS ]
Beginning LAMARCKIAN GENETIC ALGORITHM (LGA), with a maximum of 2500000 energy evaluations.

Final-Value: -14.735


	FINAL GENETIC ALGORITHM DOCKED STATE
	_______________________________________________


Detailed state:  trans 38.009 13.124 122.427 quatxyzw 0.232472 -0.696567 0.652523 0.186989 center 0.320 0.169 0.303 ntor 6 18.7753 12.0417 180.0000 129.0736 130.3803 -88.1347
State:	 38.009  13.124 122.427   0.237 -0.709  0.664 158.446     18.78   12.04  180.00  129.07  130.38  -88.13

DOCKED: MODEL       42
DOCKED: USER    Run = 42
DOCKED: USER    DPF = ligand_dock.biased.dpf
DOCKED: USER  
DOCKED: USER    Estimated Free Energy of Binding    =  -11.28 kcal/mol  [=(1)+(2)+(3)-(4)]
DOCKED: USER    Estimated Inhibition Constant, Ki   =    5.38 nM (nanomolar)  [Temperature = 298.15 K]
DOCKED: USER    
DOCKED: USER    (1) Final Intermolecular Energy     =  -13.07 kcal/mol
DOCKED: USER        vdW + Hbond + desolv Energy     =  -13.07 kcal/mol
DOCKED: USER        Electrostatic Energy            =   +0.00 kcal/mol
DOCKED: USER    (2) Final Total Internal Energy     =   -1.66 kcal/mol
DOCKED: USER    (3) Torsional Free Energy           =   +1.79 kcal/mol
DOCKED: USER    (4) Unbound System's Energy  [=(2)] =   -1.66 kcal/mol
DOCKED: USER    
DOCKED: USER    
DOCKED: USER    NEWDPF move ligand.dum.pdbqt
DOCKED: USER    NEWDPF about 0.320000 0.169000 0.303000
DOCKED: USER    NEWDPF tran0 38.008715 13.123702 122.427406
DOCKED: USER    NEWDPF quaternion0 0.232472 -0.696567 0.652523 0.186989
DOCKED: USER    NEWDPF axisangle0 0.236646 -0.709074 0.664239 158.445732
DOCKED: USER    NEWDPF quat0 0.236646 -0.709074 0.664239 158.445732
DOCKED: USER    NEWDPF dihe0 18.78 12.04 180.00 129.07 130.38 -88.13 
DOCKED: USER  keepresnum = 1 
DOCKED: USER  
DOCKED: REMARK  Name = 
DOCKED: REMARK  6 active torsions:
DOCKED: REMARK  status: ('A' for Active; 'I' for Inactive)
DOCKED: REMARK    1  A    between atoms: S_2  and  N_3
DOCKED: REMARK    2  A    between atoms: S_2  and  C_10
DOCKED: REMARK    3  A    between atoms: N_3  and  C_4
DOCKED: REMARK    4  A    between atoms: C_12  and  C_13
DOCKED: REMARK    5  A    between atoms: C_14  and  C_15
DOCKED: REMARK    6  A    between atoms: N_16  and  O_17
DOCKED: REMARK                            x       y       z     vdW  Elec       q    Type
DOCKED: REMARK                         _______ _______ _______ _____ _____    ______ ____
DOCKED: USER                              x       y       z     vdW  Elec       q    Type
DOCKED: USER                           _______ _______ _______ _____ _____    ______ ____
DOCKED: ROOT
DOCKED: ATOM      1  C   UNL     1      37.072  15.260 122.119 -0.29 -0.00    +0.000 A 
DOCKED: ATOM      2  C   UNL     1      37.155  13.861 122.150 -0.40 -0.00    +0.000 A 
DOCKED: ATOM      3  C   UNL     1      36.531  13.127 123.174 -0.54 -0.00    +0.000 A 
DOCKED: ATOM      4  C   UNL     1      35.832  13.824 124.180 -0.37 -0.00    +0.000 A 
DOCKED: ATOM      5  C   UNL     1      35.744  15.218 124.144 -0.42 -0.00    +0.000 A 
DOCKED: ATOM      6  C   UNL     1      36.356  15.935 123.114 -0.33 -0.00    +0.000 A 
DOCKED: ATOM      7  CM  UNL     1      36.448  14.538 123.147 +0.00 -0.00    +0.000 AC
DOCKED: ENDROOT
DOCKED: BRANCH   1   8
DOCKED: ATOM      8  O   UNL     1      36.862  16.897 119.996 -0.15 -0.00    +0.000 OA
DOCKED: ATOM      9  S   UNL     1      37.870  16.160 120.833 -0.23 -0.00    +0.000 S 
DOCKED: ATOM     10  O   UNL     1      38.619  15.194 119.961 -0.23 -0.00    +0.000 OA
DOCKED: BRANCH   8  10
DOCKED: ATOM     11  N   UNL     1      38.988  17.304 121.509 -0.10 -0.00    +0.000 N 
DOCKED: ATOM     12  H   UNL     1      38.718  18.250 121.541 +0.00 -0.00    +0.000 HD
DOCKED: BRANCH  10  12
DOCKED: ATOM     13  C   UNL     1      40.285  16.952 122.025 -0.18 -0.00    +0.000 A 
DOCKED: ATOM     14  C   UNL     1      41.250  17.925 122.348 -0.15 -0.00    +0.000 A 
DOCKED: ATOM     15  C   UNL     1      42.496  17.545 122.855 -0.28 -0.00    +0.000 A 
DOCKED: ATOM     16  C   UNL     1      42.794  16.193 123.041 -0.37 -0.00    +0.000 A 
DOCKED: ATOM     17  C   UNL     1      41.848  15.219 122.716 -0.50 -0.00    +0.000 A 
DOCKED: ATOM     18  C   UNL     1      40.600  15.595 122.210 -0.36 -0.00    +0.000 A 
DOCKED: ATOM     19  CM  UNL     1      41.545  16.572 122.533 +0.00 -0.00    +0.000 AC
DOCKED: ENDBRANCH  10  12
DOCKED: ENDBRANCH   8  10
DOCKED: ENDBRANCH   1   8
DOCKED: BRANCH   3  18
DOCKED: ATOM     20  C   UNL     1      36.669  11.650 123.171 -0.69 -0.00    +0.000 C 
DOCKED: ATOM     21  C   UNL     1      36.818  10.919 122.056 -0.60 -0.00    +0.000 C 
DOCKED: BRANCH  19  20
DOCKED: ATOM     22  C   UNL     1      36.956   9.448 122.058 -0.65 -0.00    +0.000 C 
DOCKED: ATOM     23  N   UNL     1      37.071   8.689 123.269 -0.67 -0.00    +0.000 N 
DOCKED: ATOM     24  O   UNL     1      37.001   8.847 120.951 -2.69 -0.00    +0.000 OA
DOCKED: ATOM     25  H   UNL     1      37.153   9.153 124.134 -0.56 -0.00    +0.000 HD
DOCKED: BRANCH  21  24
DOCKED: ATOM     26  O   UNL     1      37.066   7.334 123.228 -2.13 -0.00    +0.000 OA
DOCKED: ATOM     27  H   UNL     1      37.276   7.038 122.329 -0.17 -0.00    +0.000 HD
DOCKED: ENDBRANCH  21  24
DOCKED: ENDBRANCH  19  20
DOCKED: ENDBRANCH   3  18
DOCKED: TORSDOF 6DOCKED: TER
DOCKED: ENDMDL
________________________________________________________________________________


	BEGINNING GENETIC ALGORITHM DOCKING 43 of 100
Run: 43 Seed: 2124238967 1012318798 [ Run 43 of 100 GA/GALS ]
Beginning LAMARCKIAN GENETIC ALGORITHM (LGA), with a maximum of 2500000 energy evaluations.

Final-Value: -14.542


	FINAL GENETIC ALGORITHM DOCKED STATE
	_______________________________________________


Detailed state:  trans 36.468 13.147 121.848 quatxyzw -0.524992 -0.032764 0.348719 0.775696 center 0.320 0.169 0.303 ntor 6 15.0444 166.1929 19.5264 -173.4589 -97.3531 -14.8713
State:	 36.468  13.147 121.848  -0.832 -0.052  0.553 78.264     15.04  166.19   19.53 -173.46  -97.35  -14.87

DOCKED: MODEL       43
DOCKED: USER    Run = 43
DOCKED: USER    DPF = ligand_dock.biased.dpf
DOCKED: USER  
DOCKED: USER    Estimated Free Energy of Binding    =  -11.35 kcal/mol  [=(1)+(2)+(3)-(4)]
DOCKED: USER    Estimated Inhibition Constant, Ki   =    4.82 nM (nanomolar)  [Temperature = 298.15 K]
DOCKED: USER    
DOCKED: USER    (1) Final Intermolecular Energy     =  -13.14 kcal/mol
DOCKED: USER        vdW + Hbond + desolv Energy     =  -13.14 kcal/mol
DOCKED: USER        Electrostatic Energy            =   +0.00 kcal/mol
DOCKED: USER    (2) Final Total Internal Energy     =   -1.41 kcal/mol
DOCKED: USER    (3) Torsional Free Energy           =   +1.79 kcal/mol
DOCKED: USER    (4) Unbound System's Energy  [=(2)] =   -1.41 kcal/mol
DOCKED: USER    
DOCKED: USER    
DOCKED: USER    NEWDPF move ligand.dum.pdbqt
DOCKED: USER    NEWDPF about 0.320000 0.169000 0.303000
DOCKED: USER    NEWDPF tran0 36.467500 13.147427 121.847645
DOCKED: USER    NEWDPF quaternion0 -0.524992 -0.032764 0.348719 0.775696
DOCKED: USER    NEWDPF axisangle0 -0.831860 -0.051915 0.552553 78.263563
DOCKED: USER    NEWDPF quat0 -0.831860 -0.051915 0.552553 78.263563
DOCKED: USER    NEWDPF dihe0 15.04 166.19 19.53 -173.46 -97.35 -14.87 
DOCKED: USER  keepresnum = 1 
DOCKED: USER  
DOCKED: REMARK  Name = 
DOCKED: REMARK  6 active torsions:
DOCKED: REMARK  status: ('A' for Active; 'I' for Inactive)
DOCKED: REMARK    1  A    between atoms: S_2  and  N_3
DOCKED: REMARK    2  A    between atoms: S_2  and  C_10
DOCKED: REMARK    3  A    between atoms: N_3  and  C_4
DOCKED: REMARK    4  A    between atoms: C_12  and  C_13
DOCKED: REMARK    5  A    between atoms: C_14  and  C_15
DOCKED: REMARK    6  A    between atoms: N_16  and  O_17
DOCKED: REMARK                            x       y       z     vdW  Elec       q    Type
DOCKED: REMARK                         _______ _______ _______ _____ _____    ______ ____
DOCKED: USER                              x       y       z     vdW  Elec       q    Type
DOCKED: USER                           _______ _______ _______ _____ _____    ______ ____
DOCKED: ROOT
DOCKED: ATOM      1  C   UNL     1      37.105  15.367 121.399 -0.23 -0.00    +0.000 A 
DOCKED: ATOM      2  C   UNL     1      37.223  13.980 121.555 -0.34 -0.00    +0.000 A 
DOCKED: ATOM      3  C   UNL     1      37.330  13.138 120.434 -0.42 -0.00    +0.000 A 
DOCKED: ATOM      4  C   UNL     1      37.298  13.712 119.147 -0.36 -0.00    +0.000 A 
DOCKED: ATOM      5  C   UNL     1      37.188  15.097 118.994 -0.22 -0.00    +0.000 A 
DOCKED: ATOM      6  C   UNL     1      37.097  15.924 120.115 -0.17 -0.00    +0.000 A 
DOCKED: ATOM      7  CM  UNL     1      37.207  14.536 120.274 +0.00 -0.00    +0.000 AC
DOCKED: ENDROOT
DOCKED: BRANCH   1   8
DOCKED: ATOM      8  O   UNL     1      36.606  17.807 122.416 -0.18 -0.00    +0.000 OA
DOCKED: ATOM      9  S   UNL     1      36.964  16.403 122.817 -0.36 -0.00    +0.000 S 
DOCKED: ATOM     10  O   UNL     1      38.281  16.418 123.537 -0.32 -0.00    +0.000 OA
DOCKED: BRANCH   8  10
DOCKED: ATOM     11  N   UNL     1      35.737  15.790 123.884 -0.42 -0.00    +0.000 N 
DOCKED: ATOM     12  H   UNL     1      35.575  14.820 123.893 -0.03 -0.00    +0.000 HD
DOCKED: BRANCH  10  12
DOCKED: ATOM     13  C   UNL     1      34.944  16.618 124.754 -0.39 -0.00    +0.000 A 
DOCKED: ATOM     14  C   UNL     1      34.984  18.024 124.689 -0.30 -0.00    +0.000 A 
DOCKED: ATOM     15  C   UNL     1      34.192  18.795 125.546 -0.27 -0.00    +0.000 A 
DOCKED: ATOM     16  C   UNL     1      33.358  18.173 126.477 -0.30 -0.00    +0.000 A 
DOCKED: ATOM     17  C   UNL     1      33.316  16.780 126.557 -0.32 -0.00    +0.000 A 
DOCKED: ATOM     18  C   UNL     1      34.105  16.005 125.701 -0.35 -0.00    +0.000 A 
DOCKED: ATOM     19  CM  UNL     1      34.150  17.399 125.620 -0.24 -0.00    +0.000 AC
DOCKED: ENDBRANCH  10  12
DOCKED: ENDBRANCH   8  10
DOCKED: ENDBRANCH   1   8
DOCKED: BRANCH   3  18
DOCKED: ATOM     20  C   UNL     1      37.430  11.674 120.655 -0.49 -0.00    +0.000 C 
DOCKED: ATOM     21  C   UNL     1      36.915  11.046 121.724 -0.54 -0.00    +0.000 C 
DOCKED: BRANCH  19  20
DOCKED: ATOM     22  C   UNL     1      37.018   9.588 121.940 -0.61 -0.00    +0.000 C 
DOCKED: ATOM     23  N   UNL     1      37.105   9.009 123.249 -0.62 -0.00    +0.000 N 
DOCKED: ATOM     24  O   UNL     1      37.057   8.834 120.931 -2.70 -0.00    +0.000 OA
DOCKED: ATOM     25  H   UNL     1      37.191   9.591 124.038 -0.54 -0.00    +0.000 HD
DOCKED: BRANCH  21  24
DOCKED: ATOM     26  O   UNL     1      37.068   7.663 123.402 -2.27 -0.00    +0.000 OA
DOCKED: ATOM     27  H   UNL     1      37.220   7.236 122.545 -0.13 -0.00    +0.000 HD
DOCKED: ENDBRANCH  21  24
DOCKED: ENDBRANCH  19  20
DOCKED: ENDBRANCH   3  18
DOCKED: TORSDOF 6DOCKED: TER
DOCKED: ENDMDL
________________________________________________________________________________


	BEGINNING GENETIC ALGORITHM DOCKING 44 of 100
Run: 44 Seed: 12366383 700218758 [ Run 44 of 100 GA/GALS ]
Beginning LAMARCKIAN GENETIC ALGORITHM (LGA), with a maximum of 2500000 energy evaluations.

Final-Value: -14.223


	FINAL GENETIC ALGORITHM DOCKED STATE
	_______________________________________________


Detailed state:  trans 39.101 13.093 122.736 quatxyzw -0.146112 -0.667228 0.627790 0.373280 center 0.320 0.169 0.303 ntor 6 9.5077 174.5961 -178.2812 -85.4208 -102.4127 90.0321
State:	 39.101  13.093 122.736  -0.157 -0.719  0.677 136.164      9.51  174.60 -178.28  -85.42 -102.41   90.03

DOCKED: MODEL       44
DOCKED: USER    Run = 44
DOCKED: USER    DPF = ligand_dock.biased.dpf
DOCKED: USER  
DOCKED: USER    Estimated Free Energy of Binding    =  -11.01 kcal/mol  [=(1)+(2)+(3)-(4)]
DOCKED: USER    Estimated Inhibition Constant, Ki   =    8.46 nM (nanomolar)  [Temperature = 298.15 K]
DOCKED: USER    
DOCKED: USER    (1) Final Intermolecular Energy     =  -12.80 kcal/mol
DOCKED: USER        vdW + Hbond + desolv Energy     =  -12.80 kcal/mol
DOCKED: USER        Electrostatic Energy            =   +0.00 kcal/mol
DOCKED: USER    (2) Final Total Internal Energy     =   -1.42 kcal/mol
DOCKED: USER    (3) Torsional Free Energy           =   +1.79 kcal/mol
DOCKED: USER    (4) Unbound System's Energy  [=(2)] =   -1.42 kcal/mol
DOCKED: USER    
DOCKED: USER    
DOCKED: USER    NEWDPF move ligand.dum.pdbqt
DOCKED: USER    NEWDPF about 0.320000 0.169000 0.303000
DOCKED: USER    NEWDPF tran0 39.101173 13.093347 122.735803
DOCKED: USER    NEWDPF quaternion0 -0.146112 -0.667228 0.627790 0.373280
DOCKED: USER    NEWDPF axisangle0 -0.157496 -0.719214 0.676703 136.163945
DOCKED: USER    NEWDPF quat0 -0.157496 -0.719214 0.676703 136.163945
DOCKED: USER    NEWDPF dihe0 9.51 174.60 -178.28 -85.42 -102.41 90.03 
DOCKED: USER  keepresnum = 1 
DOCKED: USER  
DOCKED: REMARK  Name = 
DOCKED: REMARK  6 active torsions:
DOCKED: REMARK  status: ('A' for Active; 'I' for Inactive)
DOCKED: REMARK    1  A    between atoms: S_2  and  N_3
DOCKED: REMARK    2  A    between atoms: S_2  and  C_10
DOCKED: REMARK    3  A    between atoms: N_3  and  C_4
DOCKED: REMARK    4  A    between atoms: C_12  and  C_13
DOCKED: REMARK    5  A    between atoms: C_14  and  C_15
DOCKED: REMARK    6  A    between atoms: N_16  and  O_17
DOCKED: REMARK                            x       y       z     vdW  Elec       q    Type
DOCKED: REMARK                         _______ _______ _______ _____ _____    ______ ____
DOCKED: USER                              x       y       z     vdW  Elec       q    Type
DOCKED: USER                           _______ _______ _______ _____ _____    ______ ____
DOCKED: ROOT
DOCKED: ATOM      1  C   UNL     1      39.010  15.437 122.554 -0.31 -0.00    +0.000 A 
DOCKED: ATOM      2  C   UNL     1      38.830  14.092 122.207 -0.33 -0.00    +0.000 A 
DOCKED: ATOM      3  C   UNL     1      37.560  13.494 122.283 -0.45 -0.00    +0.000 A 
DOCKED: ATOM      4  C   UNL     1      36.470  14.269 122.731 -0.38 -0.00    +0.000 A 
DOCKED: ATOM      5  C   UNL     1      36.650  15.612 123.070 -0.34 -0.00    +0.000 A 
DOCKED: ATOM      6  C   UNL     1      37.914  16.198 122.978 -0.26 -0.00    +0.000 A 
DOCKED: ATOM      7  CM  UNL     1      37.739  14.850 122.637 +0.00 -0.00    +0.000 AC
DOCKED: ENDROOT
DOCKED: BRANCH   1   8
DOCKED: ATOM      8  O   UNL     1      41.544  15.523 123.454 -1.02 +0.00    +0.000 OA
DOCKED: ATOM      9  S   UNL     1      40.613  16.163 122.462 -0.43 -0.00    +0.000 S 
DOCKED: ATOM     10  O   UNL     1      40.498  17.628 122.770 -0.19 -0.00    +0.000 OA
DOCKED: BRANCH   8  10
DOCKED: ATOM     11  N   UNL     1      41.267  15.965 120.864 -0.22 -0.00    +0.000 N 
DOCKED: ATOM     12  H   UNL     1      40.636  15.847 120.118 -0.01 -0.00    +0.000 HD
DOCKED: BRANCH  10  12
DOCKED: ATOM     13  C   UNL     1      42.675  15.963 120.568 -0.21 -0.00    +0.000 A 
DOCKED: ATOM     14  C   UNL     1      43.171  15.605 119.299 -0.13 -0.00    +0.000 A 
DOCKED: ATOM     15  C   UNL     1      44.546  15.624 119.046 -0.27 -0.00    +0.000 A 
DOCKED: ATOM     16  C   UNL     1      45.439  15.995 120.054 -0.24 +0.00    +0.000 A 
DOCKED: ATOM     17  C   UNL     1      44.960  16.345 121.317 -0.22 +0.00    +0.000 A 
DOCKED: ATOM     18  C   UNL     1      43.585  16.329 121.575 -0.28 -0.00    +0.000 A 
DOCKED: ATOM     19  CM  UNL     1      44.062  15.977 120.310 +0.00 -0.00    +0.000 AC
DOCKED: ENDBRANCH  10  12
DOCKED: ENDBRANCH   8  10
DOCKED: ENDBRANCH   1   8
DOCKED: BRANCH   3  18
DOCKED: ATOM     20  C   UNL     1      37.430  12.060 121.925 -0.47 -0.00    +0.000 C 
DOCKED: ATOM     21  C   UNL     1      37.067  11.106 122.796 -0.61 -0.00    +0.000 C 
DOCKED: BRANCH  19  20
DOCKED: ATOM     22  C   UNL     1      36.939   9.679 122.434 -0.63 -0.00    +0.000 C 
DOCKED: ATOM     23  N   UNL     1      37.043   8.628 123.404 -0.66 -0.00    +0.000 N 
DOCKED: ATOM     24  O   UNL     1      36.759   9.381 121.223 -2.50 -0.00    +0.000 OA
DOCKED: ATOM     25  H   UNL     1      37.297   8.840 124.331 -0.56 -0.00    +0.000 HD
DOCKED: BRANCH  21  24
DOCKED: ATOM     26  O   UNL     1      36.791   7.345 123.048 -2.04 -0.00    +0.000 OA
DOCKED: ATOM     27  H   UNL     1      36.704   7.289 122.084 -0.05 -0.00    +0.000 HD
DOCKED: ENDBRANCH  21  24
DOCKED: ENDBRANCH  19  20
DOCKED: ENDBRANCH   3  18
DOCKED: TORSDOF 6DOCKED: TER
DOCKED: ENDMDL
________________________________________________________________________________


	BEGINNING GENETIC ALGORITHM DOCKING 45 of 100
Run: 45 Seed: 2021738088 1194773165 [ Run 45 of 100 GA/GALS ]
Beginning LAMARCKIAN GENETIC ALGORITHM (LGA), with a maximum of 2500000 energy evaluations.

Final-Value: -14.396


	FINAL GENETIC ALGORITHM DOCKED STATE
	_______________________________________________


Detailed state:  trans 39.054 13.103 122.892 quatxyzw 0.242219 0.599572 -0.650640 -0.398135 center 0.320 0.169 0.303 ntor 6 7.9286 -177.3178 -47.4285 -109.3875 -61.6031 134.9385
State:	 39.054  13.103 122.892   0.264  0.654 -0.709 -133.077      7.93 -177.32  -47.43 -109.39  -61.60  134.94

DOCKED: MODEL       45
DOCKED: USER    Run = 45
DOCKED: USER    DPF = ligand_dock.biased.dpf
DOCKED: USER  
DOCKED: USER    Estimated Free Energy of Binding    =  -11.09 kcal/mol  [=(1)+(2)+(3)-(4)]
DOCKED: USER    Estimated Inhibition Constant, Ki   =    7.46 nM (nanomolar)  [Temperature = 298.15 K]
DOCKED: USER    
DOCKED: USER    (1) Final Intermolecular Energy     =  -12.88 kcal/mol
DOCKED: USER        vdW + Hbond + desolv Energy     =  -12.88 kcal/mol
DOCKED: USER        Electrostatic Energy            =   +0.00 kcal/mol
DOCKED: USER    (2) Final Total Internal Energy     =   -1.52 kcal/mol
DOCKED: USER    (3) Torsional Free Energy           =   +1.79 kcal/mol
DOCKED: USER    (4) Unbound System's Energy  [=(2)] =   -1.52 kcal/mol
DOCKED: USER    
DOCKED: USER    
DOCKED: USER    NEWDPF move ligand.dum.pdbqt
DOCKED: USER    NEWDPF about 0.320000 0.169000 0.303000
DOCKED: USER    NEWDPF tran0 39.053548 13.103117 122.891963
DOCKED: USER    NEWDPF quaternion0 0.242219 0.599572 -0.650640 -0.398135
DOCKED: USER    NEWDPF axisangle0 0.264049 0.653607 -0.709278 -133.076768
DOCKED: USER    NEWDPF quat0 0.264049 0.653607 -0.709278 -133.076768
DOCKED: USER    NEWDPF dihe0 7.93 -177.32 -47.43 -109.39 -61.60 134.94 
DOCKED: USER  keepresnum = 1 
DOCKED: USER  
DOCKED: REMARK  Name = 
DOCKED: REMARK  6 active torsions:
DOCKED: REMARK  status: ('A' for Active; 'I' for Inactive)
DOCKED: REMARK    1  A    between atoms: S_2  and  N_3
DOCKED: REMARK    2  A    between atoms: S_2  and  C_10
DOCKED: REMARK    3  A    between atoms: N_3  and  C_4
DOCKED: REMARK    4  A    between atoms: C_12  and  C_13
DOCKED: REMARK    5  A    between atoms: C_14  and  C_15
DOCKED: REMARK    6  A    between atoms: N_16  and  O_17
DOCKED: REMARK                            x       y       z     vdW  Elec       q    Type
DOCKED: REMARK                         _______ _______ _______ _____ _____    ______ ____
DOCKED: USER                              x       y       z     vdW  Elec       q    Type
DOCKED: USER                           _______ _______ _______ _____ _____    ______ ____
DOCKED: ROOT
DOCKED: ATOM      1  C   UNL     1      39.323  15.423 122.609 -0.31 -0.00    +0.000 A 
DOCKED: ATOM      2  C   UNL     1      39.030  14.092 122.283 -0.24 -0.00    +0.000 A 
DOCKED: ATOM      3  C   UNL     1      37.699  13.668 122.126 -0.43 -0.00    +0.000 A 
DOCKED: ATOM      4  C   UNL     1      36.660  14.602 122.318 -0.30 -0.00    +0.000 A 
DOCKED: ATOM      5  C   UNL     1      36.956  15.931 122.636 -0.28 -0.00    +0.000 A 
DOCKED: ATOM      6  C   UNL     1      38.282  16.343 122.776 -0.24 -0.00    +0.000 A 
DOCKED: ATOM      7  CM  UNL     1      37.991  15.010 122.458 +0.00 -0.00    +0.000 AC
DOCKED: ENDROOT
DOCKED: BRANCH   1   8
DOCKED: ATOM      8  O   UNL     1      41.884  14.745 123.076 -1.02 +0.00    +0.000 OA
DOCKED: ATOM      9  S   UNL     1      40.998  15.930 122.810 -0.51 -0.00    +0.000 S 
DOCKED: ATOM     10  O   UNL     1      41.080  16.874 123.976 -0.70 -0.00    +0.000 OA
DOCKED: BRANCH   8  10
DOCKED: ATOM     11  N   UNL     1      41.554  16.742 121.378 -0.18 -0.00    +0.000 N 
DOCKED: ATOM     12  H   UNL     1      41.132  17.599 121.140 +0.01 -0.00    +0.000 HD
DOCKED: BRANCH  10  12
DOCKED: ATOM     13  C   UNL     1      42.592  16.235 120.521 -0.20 -0.00    +0.000 A 
DOCKED: ATOM     14  C   UNL     1      43.893  15.974 120.995 -0.24 -0.00    +0.000 A 
DOCKED: ATOM     15  C   UNL     1      44.873  15.474 120.134 -0.29 +0.00    +0.000 A 
DOCKED: ATOM     16  C   UNL     1      44.570  15.234 118.792 -0.32 -0.00    +0.000 A 
DOCKED: ATOM     17  C   UNL     1      43.287  15.496 118.308 -0.23 -0.00    +0.000 A 
DOCKED: ATOM     18  C   UNL     1      42.303  15.995 119.167 -0.13 -0.00    +0.000 A 
DOCKED: ATOM     19  CM  UNL     1      43.586  15.734 119.653 +0.00 -0.00    +0.000 AC
DOCKED: ENDBRANCH  10  12
DOCKED: ENDBRANCH   8  10
DOCKED: ENDBRANCH   1   8
DOCKED: BRANCH   3  18
DOCKED: ATOM     20  C   UNL     1      37.443  12.242 121.803 -0.50 -0.00    +0.000 C 
DOCKED: ATOM     21  C   UNL     1      37.230  11.297 122.730 -0.46 -0.00    +0.000 C 
DOCKED: BRANCH  19  20
DOCKED: ATOM     22  C   UNL     1      36.976   9.878 122.403 -0.61 -0.00    +0.000 C 
DOCKED: ATOM     23  N   UNL     1      37.073   8.835 123.382 -0.62 -0.00    +0.000 N 
DOCKED: ATOM     24  O   UNL     1      36.692   9.579 121.212 -2.31 -0.00    +0.000 OA
DOCKED: ATOM     25  H   UNL     1      37.405   9.039 124.286 -0.60 -0.00    +0.000 HD
DOCKED: BRANCH  21  24
DOCKED: ATOM     26  O   UNL     1      36.707   7.569 123.067 -2.12 -0.00    +0.000 OA
DOCKED: ATOM     27  H   UNL     1      36.525   7.512 122.116 -0.03 -0.00    +0.000 HD
DOCKED: ENDBRANCH  21  24
DOCKED: ENDBRANCH  19  20
DOCKED: ENDBRANCH   3  18
DOCKED: TORSDOF 6DOCKED: TER
DOCKED: ENDMDL
________________________________________________________________________________


	BEGINNING GENETIC ALGORITHM DOCKING 46 of 100
Run: 46 Seed: 4577435 1464182610 [ Run 46 of 100 GA/GALS ]
Beginning LAMARCKIAN GENETIC ALGORITHM (LGA), with a maximum of 2500000 energy evaluations.

Final-Value: -15.269


	FINAL GENETIC ALGORITHM DOCKED STATE
	_______________________________________________


Detailed state:  trans 38.285 12.985 123.491 quatxyzw -0.015477 0.646158 -0.680555 -0.345087 center 0.320 0.169 0.303 ntor 6 14.9555 -5.5831 108.8640 106.2742 72.5891 93.3536
State:	 38.285  12.985 123.491  -0.016  0.688 -0.725 -139.626     14.96   -5.58  108.86  106.27   72.59   93.35

DOCKED: MODEL       46
DOCKED: USER    Run = 46
DOCKED: USER    DPF = ligand_dock.biased.dpf
DOCKED: USER  
DOCKED: USER    Estimated Free Energy of Binding    =  -11.45 kcal/mol  [=(1)+(2)+(3)-(4)]
DOCKED: USER    Estimated Inhibition Constant, Ki   =    4.04 nM (nanomolar)  [Temperature = 298.15 K]
DOCKED: USER    
DOCKED: USER    (1) Final Intermolecular Energy     =  -13.24 kcal/mol
DOCKED: USER        vdW + Hbond + desolv Energy     =  -13.24 kcal/mol
DOCKED: USER        Electrostatic Energy            =   +0.00 kcal/mol
DOCKED: USER    (2) Final Total Internal Energy     =   -2.03 kcal/mol
DOCKED: USER    (3) Torsional Free Energy           =   +1.79 kcal/mol
DOCKED: USER    (4) Unbound System's Energy  [=(2)] =   -2.03 kcal/mol
DOCKED: USER    
DOCKED: USER    
DOCKED: USER    NEWDPF move ligand.dum.pdbqt
DOCKED: USER    NEWDPF about 0.320000 0.169000 0.303000
DOCKED: USER    NEWDPF tran0 38.284912 12.985218 123.490628
DOCKED: USER    NEWDPF quaternion0 -0.015477 0.646158 -0.680555 -0.345087
DOCKED: USER    NEWDPF axisangle0 -0.016490 0.688449 -0.725098 -139.625762
DOCKED: USER    NEWDPF quat0 -0.016490 0.688449 -0.725098 -139.625762
DOCKED: USER    NEWDPF dihe0 14.96 -5.58 108.86 106.27 72.59 93.35 
DOCKED: USER  keepresnum = 1 
DOCKED: USER  
DOCKED: REMARK  Name = 
DOCKED: REMARK  6 active torsions:
DOCKED: REMARK  status: ('A' for Active; 'I' for Inactive)
DOCKED: REMARK    1  A    between atoms: S_2  and  N_3
DOCKED: REMARK    2  A    between atoms: S_2  and  C_10
DOCKED: REMARK    3  A    between atoms: N_3  and  C_4
DOCKED: REMARK    4  A    between atoms: C_12  and  C_13
DOCKED: REMARK    5  A    between atoms: C_14  and  C_15
DOCKED: REMARK    6  A    between atoms: N_16  and  O_17
DOCKED: REMARK                            x       y       z     vdW  Elec       q    Type
DOCKED: REMARK                         _______ _______ _______ _____ _____    ______ ____
DOCKED: USER                              x       y       z     vdW  Elec       q    Type
DOCKED: USER                           _______ _______ _______ _____ _____    ______ ____
DOCKED: ROOT
DOCKED: ATOM      1  C   UNL     1      37.787  15.206 122.896 -0.34 -0.00    +0.000 A 
DOCKED: ATOM      2  C   UNL     1      37.749  13.806 122.867 -0.46 -0.00    +0.000 A 
DOCKED: ATOM      3  C   UNL     1      36.638  13.107 123.371 -0.55 -0.00    +0.000 A 
DOCKED: ATOM      4  C   UNL     1      35.567  13.840 123.922 -0.43 -0.00    +0.000 A 
DOCKED: ATOM      5  C   UNL     1      35.604  15.237 123.944 -0.45 -0.00    +0.000 A 
DOCKED: ATOM      6  C   UNL     1      36.707  15.920 123.428 -0.32 -0.00    +0.000 A 
DOCKED: ATOM      7  CM  UNL     1      36.675  14.519 123.405 +0.00 -0.00    +0.000 AC
DOCKED: ENDROOT
DOCKED: BRANCH   1   8
DOCKED: ATOM      8  O   UNL     1      40.427  15.700 123.049 -0.46 -0.00    +0.000 OA
DOCKED: ATOM      9  S   UNL     1      39.194  16.061 122.268 -0.35 -0.00    +0.000 S 
DOCKED: ATOM     10  O   UNL     1      38.954  17.538 122.388 -0.14 -0.00    +0.000 OA
DOCKED: BRANCH   8  10
DOCKED: ATOM     11  N   UNL     1      39.443  15.656 120.598 -0.20 -0.00    +0.000 N 
DOCKED: ATOM     12  H   UNL     1      40.333  15.819 120.211 -0.01 -0.00    +0.000 HD
DOCKED: BRANCH  10  12
DOCKED: ATOM     13  C   UNL     1      38.426  15.096 119.747 -0.20 -0.00    +0.000 A 
DOCKED: ATOM     14  C   UNL     1      37.664  15.893 118.871 -0.15 -0.00    +0.000 A 
DOCKED: ATOM     15  C   UNL     1      36.690  15.312 118.052 -0.20 -0.00    +0.000 A 
DOCKED: ATOM     16  C   UNL     1      36.464  13.935 118.102 -0.35 -0.00    +0.000 A 
DOCKED: ATOM     17  C   UNL     1      37.208  13.136 118.972 -0.38 -0.00    +0.000 A 
DOCKED: ATOM     18  C   UNL     1      38.184  13.713 119.791 -0.24 -0.00    +0.000 A 
DOCKED: ATOM     19  CM  UNL     1      37.440  14.514 118.922 +0.00 -0.00    +0.000 AC
DOCKED: ENDBRANCH  10  12
DOCKED: ENDBRANCH   8  10
DOCKED: ENDBRANCH   1   8
DOCKED: BRANCH   3  18
DOCKED: ATOM     20  C   UNL     1      36.659  11.624 123.336 -0.70 -0.00    +0.000 C 
DOCKED: ATOM     21  C   UNL     1      36.911  10.910 122.228 -0.59 -0.00    +0.000 C 
DOCKED: BRANCH  19  20
DOCKED: ATOM     22  C   UNL     1      36.931   9.432 122.199 -0.66 -0.00    +0.000 C 
DOCKED: ATOM     23  N   UNL     1      37.180   8.644 123.370 -0.64 -0.00    +0.000 N 
DOCKED: ATOM     24  O   UNL     1      36.750   8.852 121.095 -2.63 -0.00    +0.000 OA
DOCKED: ATOM     25  H   UNL     1      37.436   9.084 124.213 -0.62 -0.00    +0.000 HD
DOCKED: BRANCH  21  24
DOCKED: ATOM     26  O   UNL     1      37.062   7.295 123.321 -2.07 -0.00    +0.000 OA
DOCKED: ATOM     27  H   UNL     1      37.039   7.006 122.396 -0.11 -0.00    +0.000 HD
DOCKED: ENDBRANCH  21  24
DOCKED: ENDBRANCH  19  20
DOCKED: ENDBRANCH   3  18
DOCKED: TORSDOF 6DOCKED: TER
DOCKED: ENDMDL
________________________________________________________________________________


	BEGINNING GENETIC ALGORITHM DOCKING 47 of 100
Run: 47 Seed: 1361622927 1278825107 [ Run 47 of 100 GA/GALS ]
Beginning LAMARCKIAN GENETIC ALGORITHM (LGA), with a maximum of 2500000 energy evaluations.

Final-Value: -14.185


	FINAL GENETIC ALGORITHM DOCKED STATE
	_______________________________________________


Detailed state:  trans 38.491 12.443 122.740 quatxyzw 0.021140 -0.765289 0.549501 0.334566 center 0.320 0.169 0.303 ntor 6 26.6261 172.4649 134.9878 -54.4905 30.6245 116.2552
State:	 38.491  12.443 122.740   0.022 -0.812  0.583 140.908     26.63  172.46  134.99  -54.49   30.62  116.26

DOCKED: MODEL       47
DOCKED: USER    Run = 47
DOCKED: USER    DPF = ligand_dock.biased.dpf
DOCKED: USER  
DOCKED: USER    Estimated Free Energy of Binding    =  -10.61 kcal/mol  [=(1)+(2)+(3)-(4)]
DOCKED: USER    Estimated Inhibition Constant, Ki   =   16.64 nM (nanomolar)  [Temperature = 298.15 K]
DOCKED: USER    
DOCKED: USER    (1) Final Intermolecular Energy     =  -12.40 kcal/mol
DOCKED: USER        vdW + Hbond + desolv Energy     =  -12.40 kcal/mol
DOCKED: USER        Electrostatic Energy            =   +0.00 kcal/mol
DOCKED: USER    (2) Final Total Internal Energy     =   -1.78 kcal/mol
DOCKED: USER    (3) Torsional Free Energy           =   +1.79 kcal/mol
DOCKED: USER    (4) Unbound System's Energy  [=(2)] =   -1.78 kcal/mol
DOCKED: USER    
DOCKED: USER    
DOCKED: USER    NEWDPF move ligand.dum.pdbqt
DOCKED: USER    NEWDPF about 0.320000 0.169000 0.303000
DOCKED: USER    NEWDPF tran0 38.491310 12.443379 122.739573
DOCKED: USER    NEWDPF quaternion0 0.021140 -0.765289 0.549501 0.334566
DOCKED: USER    NEWDPF axisangle0 0.022432 -0.812088 0.583104 140.907750
DOCKED: USER    NEWDPF quat0 0.022432 -0.812088 0.583104 140.907750
DOCKED: USER    NEWDPF dihe0 26.63 172.46 134.99 -54.49 30.62 116.26 
DOCKED: USER  keepresnum = 1 
DOCKED: USER  
DOCKED: REMARK  Name = 
DOCKED: REMARK  6 active torsions:
DOCKED: REMARK  status: ('A' for Active; 'I' for Inactive)
DOCKED: REMARK    1  A    between atoms: S_2  and  N_3
DOCKED: REMARK    2  A    between atoms: S_2  and  C_10
DOCKED: REMARK    3  A    between atoms: N_3  and  C_4
DOCKED: REMARK    4  A    between atoms: C_12  and  C_13
DOCKED: REMARK    5  A    between atoms: C_14  and  C_15
DOCKED: REMARK    6  A    between atoms: N_16  and  O_17
DOCKED: REMARK                            x       y       z     vdW  Elec       q    Type
DOCKED: REMARK                         _______ _______ _______ _____ _____    ______ ____
DOCKED: USER                              x       y       z     vdW  Elec       q    Type
DOCKED: USER                           _______ _______ _______ _____ _____    ______ ____
DOCKED: ROOT
DOCKED: ATOM      1  C   UNL     1      37.792  14.680 122.951 -0.39 -0.00    +0.000 A 
DOCKED: ATOM      2  C   UNL     1      37.836  13.364 122.471 -0.44 -0.00    +0.000 A 
DOCKED: ATOM      3  C   UNL     1      36.837  12.438 122.820 -0.56 -0.00    +0.000 A 
DOCKED: ATOM      4  C   UNL     1      35.797  12.851 123.677 -0.46 -0.00    +0.000 A 
DOCKED: ATOM      5  C   UNL     1      35.751  14.166 124.150 -0.43 -0.00    +0.000 A 
DOCKED: ATOM      6  C   UNL     1      36.741  15.080 123.785 -0.33 -0.00    +0.000 A 
DOCKED: ATOM      7  CM  UNL     1      36.792  13.763 123.309 +0.00 -0.00    +0.000 AC
DOCKED: ENDROOT
DOCKED: BRANCH   1   8
DOCKED: ATOM      8  O   UNL     1      40.401  15.143 122.492 -0.60 -0.00    +0.000 OA
DOCKED: ATOM      9  S   UNL     1      39.059  15.821 122.509 -0.39 -0.00    +0.000 S 
DOCKED: ATOM     10  O   UNL     1      39.083  16.931 123.520 -0.28 -0.00    +0.000 OA
DOCKED: BRANCH   8  10
DOCKED: ATOM     11  N   UNL     1      38.742  16.486 120.937 -0.13 -0.00    +0.000 N 
DOCKED: ATOM     12  H   UNL     1      39.155  17.351 120.709 +0.00 -0.00    +0.000 HD
DOCKED: BRANCH  10  12
DOCKED: ATOM     13  C   UNL     1      37.913  15.850 119.948 -0.16 -0.00    +0.000 A 
DOCKED: ATOM     14  C   UNL     1      36.798  16.497 119.379 -0.14 -0.00    +0.000 A 
DOCKED: ATOM     15  C   UNL     1      36.021  15.849 118.414 -0.15 -0.00    +0.000 A 
DOCKED: ATOM     16  C   UNL     1      36.344  14.551 118.010 -0.29 -0.00    +0.000 A 
DOCKED: ATOM     17  C   UNL     1      37.442  13.898 118.572 -0.34 -0.00    +0.000 A 
DOCKED: ATOM     18  C   UNL     1      38.222  14.542 119.537 -0.22 -0.00    +0.000 A 
DOCKED: ATOM     19  CM  UNL     1      37.124  15.198 118.976 +0.00 -0.00    +0.000 AC
DOCKED: ENDBRANCH  10  12
DOCKED: ENDBRANCH   8  10
DOCKED: ENDBRANCH   1   8
DOCKED: BRANCH   3  18
DOCKED: ATOM     20  C   UNL     1      36.945  11.052 122.301 -0.59 -0.00    +0.000 C 
DOCKED: ATOM     21  C   UNL     1      36.532   9.971 122.978 -0.68 -0.00    +0.000 C 
DOCKED: BRANCH  19  20
DOCKED: ATOM     22  C   UNL     1      36.641   8.592 122.457 -0.77 -0.00    +0.000 C 
DOCKED: ATOM     23  N   UNL     1      36.719   7.449 123.319 -0.75 -0.00    +0.000 N 
DOCKED: ATOM     24  O   UNL     1      36.694   8.425 121.209 -2.19 -0.00    +0.000 OA
DOCKED: ATOM     25  H   UNL     1      36.794   7.572 124.292 -0.42 -0.00    +0.000 HD
DOCKED: BRANCH  21  24
DOCKED: ATOM     26  O   UNL     1      36.689   6.199 122.796 -1.21 -0.00    +0.000 OA
DOCKED: ATOM     27  H   UNL     1      37.028   6.220 121.888 -0.49 -0.00    +0.000 HD
DOCKED: ENDBRANCH  21  24
DOCKED: ENDBRANCH  19  20
DOCKED: ENDBRANCH   3  18
DOCKED: TORSDOF 6DOCKED: TER
DOCKED: ENDMDL
________________________________________________________________________________


	BEGINNING GENETIC ALGORITHM DOCKING 48 of 100
Run: 48 Seed: 1941604241 256319768 [ Run 48 of 100 GA/GALS ]
Beginning LAMARCKIAN GENETIC ALGORITHM (LGA), with a maximum of 2500000 energy evaluations.

Final-Value: -15.366


	FINAL GENETIC ALGORITHM DOCKED STATE
	_______________________________________________


Detailed state:  trans 38.177 12.765 123.313 quatxyzw -0.000550 -0.670994 0.681026 0.293207 center 0.320 0.169 0.303 ntor 6 12.5562 -27.7366 147.1364 134.9703 25.9929 118.9401
State:	 38.177  12.765 123.313  -0.001 -0.702  0.712 145.900     12.56  -27.74  147.14  134.97   25.99  118.94

DOCKED: MODEL       48
DOCKED: USER    Run = 48
DOCKED: USER    DPF = ligand_dock.biased.dpf
DOCKED: USER  
DOCKED: USER    Estimated Free Energy of Binding    =  -11.60 kcal/mol  [=(1)+(2)+(3)-(4)]
DOCKED: USER    Estimated Inhibition Constant, Ki   =    3.13 nM (nanomolar)  [Temperature = 298.15 K]
DOCKED: USER    
DOCKED: USER    (1) Final Intermolecular Energy     =  -13.39 kcal/mol
DOCKED: USER        vdW + Hbond + desolv Energy     =  -13.39 kcal/mol
DOCKED: USER        Electrostatic Energy            =   +0.00 kcal/mol
DOCKED: USER    (2) Final Total Internal Energy     =   -1.97 kcal/mol
DOCKED: USER    (3) Torsional Free Energy           =   +1.79 kcal/mol
DOCKED: USER    (4) Unbound System's Energy  [=(2)] =   -1.97 kcal/mol
DOCKED: USER    
DOCKED: USER    
DOCKED: USER    NEWDPF move ligand.dum.pdbqt
DOCKED: USER    NEWDPF about 0.320000 0.169000 0.303000
DOCKED: USER    NEWDPF tran0 38.176516 12.764953 123.312698
DOCKED: USER    NEWDPF quaternion0 -0.000550 -0.670994 0.681026 0.293207
DOCKED: USER    NEWDPF axisangle0 -0.000575 -0.701840 0.712334 145.899945
DOCKED: USER    NEWDPF quat0 -0.000575 -0.701840 0.712334 145.899945
DOCKED: USER    NEWDPF dihe0 12.56 -27.74 147.14 134.97 25.99 118.94 
DOCKED: USER  keepresnum = 1 
DOCKED: USER  
DOCKED: REMARK  Name = 
DOCKED: REMARK  6 active torsions:
DOCKED: REMARK  status: ('A' for Active; 'I' for Inactive)
DOCKED: REMARK    1  A    between atoms: S_2  and  N_3
DOCKED: REMARK    2  A    between atoms: S_2  and  C_10
DOCKED: REMARK    3  A    between atoms: N_3  and  C_4
DOCKED: REMARK    4  A    between atoms: C_12  and  C_13
DOCKED: REMARK    5  A    between atoms: C_14  and  C_15
DOCKED: REMARK    6  A    between atoms: N_16  and  O_17
DOCKED: REMARK                            x       y       z     vdW  Elec       q    Type
DOCKED: REMARK                         _______ _______ _______ _____ _____    ______ ____
DOCKED: USER                              x       y       z     vdW  Elec       q    Type
DOCKED: USER                           _______ _______ _______ _____ _____    ______ ____
DOCKED: ROOT
DOCKED: ATOM      1  C   UNL     1      37.854  15.047 122.840 -0.35 -0.00    +0.000 A 
DOCKED: ATOM      2  C   UNL     1      37.683  13.659 122.758 -0.46 -0.00    +0.000 A 
DOCKED: ATOM      3  C   UNL     1      36.544  13.042 123.304 -0.55 -0.00    +0.000 A 
DOCKED: ATOM      4  C   UNL     1      35.582  13.843 123.952 -0.42 -0.00    +0.000 A 
DOCKED: ATOM      5  C   UNL     1      35.750  15.228 124.026 -0.43 -0.00    +0.000 A 
DOCKED: ATOM      6  C   UNL     1      36.879  15.831 123.468 -0.32 -0.00    +0.000 A 
DOCKED: ATOM      7  CM  UNL     1      36.715  14.442 123.391 +0.00 -0.00    +0.000 AC
DOCKED: ENDROOT
DOCKED: BRANCH   1   8
DOCKED: ATOM      8  O   UNL     1      40.495  14.914 122.348 -0.77 -0.00    +0.000 OA
DOCKED: ATOM      9  S   UNL     1      39.294  15.798 122.158 -0.38 -0.00    +0.000 S 
DOCKED: ATOM     10  O   UNL     1      39.533  17.106 122.855 -0.22 -0.00    +0.000 OA
DOCKED: BRANCH   8  10
DOCKED: ATOM     11  N   UNL     1      39.069  16.088 120.460 -0.15 -0.00    +0.000 N 
DOCKED: ATOM     12  H   UNL     1      39.572  16.827 120.047 +0.00 -0.00    +0.000 HD
DOCKED: BRANCH  10  12
DOCKED: ATOM     13  C   UNL     1      38.192  15.314 119.622 -0.19 -0.00    +0.000 A 
DOCKED: ATOM     14  C   UNL     1      37.329  15.917 118.686 -0.15 -0.00    +0.000 A 
DOCKED: ATOM     15  C   UNL     1      36.497  15.131 117.882 -0.22 -0.00    +0.000 A 
DOCKED: ATOM     16  C   UNL     1      36.513  13.740 118.007 -0.37 -0.00    +0.000 A 
DOCKED: ATOM     17  C   UNL     1      37.358  13.132 118.937 -0.38 -0.00    +0.000 A 
DOCKED: ATOM     18  C   UNL     1      38.193  13.914 119.742 -0.24 -0.00    +0.000 A 
DOCKED: ATOM     19  CM  UNL     1      37.348  14.525 118.812 +0.00 -0.00    +0.000 AC
DOCKED: ENDBRANCH  10  12
DOCKED: ENDBRANCH   8  10
DOCKED: ENDBRANCH   1   8
DOCKED: BRANCH   3  18
DOCKED: ATOM     20  C   UNL     1      36.424  11.566 123.209 -0.70 -0.00    +0.000 C 
DOCKED: ATOM     21  C   UNL     1      37.047  10.828 122.277 -0.56 -0.00    +0.000 C 
DOCKED: BRANCH  19  20
DOCKED: ATOM     22  C   UNL     1      36.924   9.358 122.187 -0.67 -0.00    +0.000 C 
DOCKED: ATOM     23  N   UNL     1      37.032   8.506 123.335 -0.69 -0.00    +0.000 N 
DOCKED: ATOM     24  O   UNL     1      36.746   8.839 121.052 -2.63 -0.00    +0.000 OA
DOCKED: ATOM     25  H   UNL     1      37.285   8.886 124.207 -0.57 -0.00    +0.000 HD
DOCKED: BRANCH  21  24
DOCKED: ATOM     26  O   UNL     1      36.786   7.178 123.224 -1.88 -0.00    +0.000 OA
DOCKED: ATOM     27  H   UNL     1      36.747   6.934 122.286 -0.08 -0.00    +0.000 HD
DOCKED: ENDBRANCH  21  24
DOCKED: ENDBRANCH  19  20
DOCKED: ENDBRANCH   3  18
DOCKED: TORSDOF 6DOCKED: TER
DOCKED: ENDMDL
________________________________________________________________________________


	BEGINNING GENETIC ALGORITHM DOCKING 49 of 100
Run: 49 Seed: 2121335938 679825873 [ Run 49 of 100 GA/GALS ]
Beginning LAMARCKIAN GENETIC ALGORITHM (LGA), with a maximum of 2500000 energy evaluations.

Final-Value: -15.339


	FINAL GENETIC ALGORITHM DOCKED STATE
	_______________________________________________


Detailed state:  trans 38.222 12.740 123.473 quatxyzw -0.018928 -0.650676 0.686540 0.323921 center 0.320 0.169 0.303 ntor 6 12.2135 -19.7435 156.0847 121.3417 23.7865 126.1761
State:	 38.222  12.740 123.473  -0.020 -0.688  0.726 142.200     12.21  -19.74  156.08  121.34   23.79  126.18

DOCKED: MODEL       49
DOCKED: USER    Run = 49
DOCKED: USER    DPF = ligand_dock.biased.dpf
DOCKED: USER  
DOCKED: USER    Estimated Free Energy of Binding    =  -11.63 kcal/mol  [=(1)+(2)+(3)-(4)]
DOCKED: USER    Estimated Inhibition Constant, Ki   =    2.96 nM (nanomolar)  [Temperature = 298.15 K]
DOCKED: USER    
DOCKED: USER    (1) Final Intermolecular Energy     =  -13.42 kcal/mol
DOCKED: USER        vdW + Hbond + desolv Energy     =  -13.42 kcal/mol
DOCKED: USER        Electrostatic Energy            =   +0.00 kcal/mol
DOCKED: USER    (2) Final Total Internal Energy     =   -1.91 kcal/mol
DOCKED: USER    (3) Torsional Free Energy           =   +1.79 kcal/mol
DOCKED: USER    (4) Unbound System's Energy  [=(2)] =   -1.91 kcal/mol
DOCKED: USER    
DOCKED: USER    
DOCKED: USER    NEWDPF move ligand.dum.pdbqt
DOCKED: USER    NEWDPF about 0.320000 0.169000 0.303000
DOCKED: USER    NEWDPF tran0 38.221658 12.740117 123.473034
DOCKED: USER    NEWDPF quaternion0 -0.018928 -0.650676 0.686540 0.323921
DOCKED: USER    NEWDPF axisangle0 -0.020007 -0.687757 0.725665 142.199521
DOCKED: USER    NEWDPF quat0 -0.020007 -0.687757 0.725665 142.199521
DOCKED: USER    NEWDPF dihe0 12.21 -19.74 156.08 121.34 23.79 126.18 
DOCKED: USER  keepresnum = 1 
DOCKED: USER  
DOCKED: REMARK  Name = 
DOCKED: REMARK  6 active torsions:
DOCKED: REMARK  status: ('A' for Active; 'I' for Inactive)
DOCKED: REMARK    1  A    between atoms: S_2  and  N_3
DOCKED: REMARK    2  A    between atoms: S_2  and  C_10
DOCKED: REMARK    3  A    between atoms: N_3  and  C_4
DOCKED: REMARK    4  A    between atoms: C_12  and  C_13
DOCKED: REMARK    5  A    between atoms: C_14  and  C_15
DOCKED: REMARK    6  A    between atoms: N_16  and  O_17
DOCKED: REMARK                            x       y       z     vdW  Elec       q    Type
DOCKED: REMARK                         _______ _______ _______ _____ _____    ______ ____
DOCKED: USER                              x       y       z     vdW  Elec       q    Type
DOCKED: USER                           _______ _______ _______ _____ _____    ______ ____
DOCKED: ROOT
DOCKED: ATOM      1  C   UNL     1      37.907  15.005 122.920 -0.35 -0.00    +0.000 A 
DOCKED: ATOM      2  C   UNL     1      37.762  13.613 122.860 -0.46 -0.00    +0.000 A 
DOCKED: ATOM      3  C   UNL     1      36.591  12.992 123.330 -0.56 -0.00    +0.000 A 
DOCKED: ATOM      4  C   UNL     1      35.571  13.794 123.881 -0.44 -0.00    +0.000 A 
DOCKED: ATOM      5  C   UNL     1      35.715  15.183 123.934 -0.45 -0.00    +0.000 A 
DOCKED: ATOM      6  C   UNL     1      36.876  15.789 123.451 -0.33 -0.00    +0.000 A 
DOCKED: ATOM      7  CM  UNL     1      36.737  14.396 123.396 +0.00 -0.00    +0.000 AC
DOCKED: ENDROOT
DOCKED: BRANCH   1   8
DOCKED: ATOM      8  O   UNL     1      40.555  14.826 122.479 -0.84 -0.00    +0.000 OA
DOCKED: ATOM      9  S   UNL     1      39.387  15.761 122.334 -0.40 -0.00    +0.000 S 
DOCKED: ATOM     10  O   UNL     1      39.648  17.001 123.140 -0.26 -0.00    +0.000 OA
DOCKED: BRANCH   8  10
DOCKED: ATOM     11  N   UNL     1      39.214  16.193 120.660 -0.15 -0.00    +0.000 N 
DOCKED: ATOM     12  H   UNL     1      39.725  16.966 120.328 +0.00 -0.00    +0.000 HD
DOCKED: BRANCH  10  12
DOCKED: ATOM     13  C   UNL     1      38.370  15.489 119.732 -0.17 -0.00    +0.000 A 
DOCKED: ATOM     14  C   UNL     1      37.675  16.153 118.702 -0.13 -0.00    +0.000 A 
DOCKED: ATOM     15  C   UNL     1      36.870  15.433 117.813 -0.19 -0.00    +0.000 A 
DOCKED: ATOM     16  C   UNL     1      36.746  14.048 117.944 -0.34 -0.00    +0.000 A 
DOCKED: ATOM     17  C   UNL     1      37.424  13.381 118.966 -0.38 -0.00    +0.000 A 
DOCKED: ATOM     18  C   UNL     1      38.231  14.096 119.856 -0.25 -0.00    +0.000 A 
DOCKED: ATOM     19  CM  UNL     1      37.553  14.767 118.835 +0.00 -0.00    +0.000 AC
DOCKED: ENDBRANCH  10  12
DOCKED: ENDBRANCH   8  10
DOCKED: ENDBRANCH   1   8
DOCKED: BRANCH   3  18
DOCKED: ATOM     20  C   UNL     1      36.499  11.513 123.263 -0.70 -0.00    +0.000 C 
DOCKED: ATOM     21  C   UNL     1      36.986  10.783 122.248 -0.57 -0.00    +0.000 C 
DOCKED: BRANCH  19  20
DOCKED: ATOM     22  C   UNL     1      36.891   9.309 122.186 -0.68 -0.00    +0.000 C 
DOCKED: ATOM     23  N   UNL     1      37.039   8.480 123.346 -0.69 -0.00    +0.000 N 
DOCKED: ATOM     24  O   UNL     1      36.701   8.767 121.064 -2.55 -0.00    +0.000 OA
DOCKED: ATOM     25  H   UNL     1      37.301   8.881 124.206 -0.57 -0.00    +0.000 HD
DOCKED: BRANCH  21  24
DOCKED: ATOM     26  O   UNL     1      36.816   7.146 123.263 -1.86 -0.00    +0.000 OA
DOCKED: ATOM     27  H   UNL     1      36.759   6.886 122.331 -0.09 -0.00    +0.000 HD
DOCKED: ENDBRANCH  21  24
DOCKED: ENDBRANCH  19  20
DOCKED: ENDBRANCH   3  18
DOCKED: TORSDOF 6DOCKED: TER
DOCKED: ENDMDL
________________________________________________________________________________


	BEGINNING GENETIC ALGORITHM DOCKING 50 of 100
Run: 50 Seed: 1527940066 935448606 [ Run 50 of 100 GA/GALS ]
Beginning LAMARCKIAN GENETIC ALGORITHM (LGA), with a maximum of 2500000 energy evaluations.

Final-Value: -15.125


	FINAL GENETIC ALGORITHM DOCKED STATE
	_______________________________________________


Detailed state:  trans 38.308 13.110 123.442 quatxyzw 0.045425 -0.656054 0.666576 0.351008 center 0.320 0.169 0.303 ntor 6 12.8304 11.5558 111.3797 97.4238 85.8607 78.3152
State:	 38.308  13.110 123.442   0.049 -0.701  0.712 138.902     12.83   11.56  111.38   97.42   85.86   78.32

DOCKED: MODEL       50
DOCKED: USER    Run = 50
DOCKED: USER    DPF = ligand_dock.biased.dpf
DOCKED: USER  
DOCKED: USER    Estimated Free Energy of Binding    =  -11.46 kcal/mol  [=(1)+(2)+(3)-(4)]
DOCKED: USER    Estimated Inhibition Constant, Ki   =    4.00 nM (nanomolar)  [Temperature = 298.15 K]
DOCKED: USER    
DOCKED: USER    (1) Final Intermolecular Energy     =  -13.25 kcal/mol
DOCKED: USER        vdW + Hbond + desolv Energy     =  -13.25 kcal/mol
DOCKED: USER        Electrostatic Energy            =   +0.00 kcal/mol
DOCKED: USER    (2) Final Total Internal Energy     =   -1.88 kcal/mol
DOCKED: USER    (3) Torsional Free Energy           =   +1.79 kcal/mol
DOCKED: USER    (4) Unbound System's Energy  [=(2)] =   -1.88 kcal/mol
DOCKED: USER    
DOCKED: USER    
DOCKED: USER    NEWDPF move ligand.dum.pdbqt
DOCKED: USER    NEWDPF about 0.320000 0.169000 0.303000
DOCKED: USER    NEWDPF tran0 38.308247 13.110243 123.442369
DOCKED: USER    NEWDPF quaternion0 0.045425 -0.656054 0.666576 0.351008
DOCKED: USER    NEWDPF axisangle0 0.048512 -0.700634 0.711870 138.902006
DOCKED: USER    NEWDPF quat0 0.048512 -0.700634 0.711870 138.902006
DOCKED: USER    NEWDPF dihe0 12.83 11.56 111.38 97.42 85.86 78.32 
DOCKED: USER  keepresnum = 1 
DOCKED: USER  
DOCKED: REMARK  Name = 
DOCKED: REMARK  6 active torsions:
DOCKED: REMARK  status: ('A' for Active; 'I' for Inactive)
DOCKED: REMARK    1  A    between atoms: S_2  and  N_3
DOCKED: REMARK    2  A    between atoms: S_2  and  C_10
DOCKED: REMARK    3  A    between atoms: N_3  and  C_4
DOCKED: REMARK    4  A    between atoms: C_12  and  C_13
DOCKED: REMARK    5  A    between atoms: C_14  and  C_15
DOCKED: REMARK    6  A    between atoms: N_16  and  O_17
DOCKED: REMARK                            x       y       z     vdW  Elec       q    Type
DOCKED: REMARK                         _______ _______ _______ _____ _____    ______ ____
DOCKED: USER                              x       y       z     vdW  Elec       q    Type
DOCKED: USER                           _______ _______ _______ _____ _____    ______ ____
DOCKED: ROOT
DOCKED: ATOM      1  C   UNL     1      37.663  15.306 122.895 -0.33 -0.00    +0.000 A 
DOCKED: ATOM      2  C   UNL     1      37.702  13.906 122.851 -0.45 -0.00    +0.000 A 
DOCKED: ATOM      3  C   UNL     1      36.654  13.141 123.390 -0.55 -0.00    +0.000 A 
DOCKED: ATOM      4  C   UNL     1      35.567  13.807 123.993 -0.39 -0.00    +0.000 A 
DOCKED: ATOM      5  C   UNL     1      35.526  15.203 124.030 -0.46 -0.00    +0.000 A 
DOCKED: ATOM      6  C   UNL     1      36.567  15.952 123.479 -0.33 -0.00    +0.000 A 
DOCKED: ATOM      7  CM  UNL     1      36.613  14.552 123.439 +0.00 -0.00    +0.000 AC
DOCKED: ENDROOT
DOCKED: BRANCH   1   8
DOCKED: ATOM      8  O   UNL     1      40.175  16.234 123.152 -0.36 -0.00    +0.000 OA
DOCKED: ATOM      9  S   UNL     1      38.994  16.244 122.222 -0.31 -0.00    +0.000 S 
DOCKED: ATOM     10  O   UNL     1      38.535  17.661 122.028 -0.12 -0.00    +0.000 OA
DOCKED: BRANCH   8  10
DOCKED: ATOM     11  N   UNL     1      39.475  15.584 120.689 -0.21 -0.00    +0.000 N 
DOCKED: ATOM     12  H   UNL     1      40.425  15.644 120.439 -0.01 -0.00    +0.000 HD
DOCKED: BRANCH  10  12
DOCKED: ATOM     13  C   UNL     1      38.569  14.957 119.765 -0.20 -0.00    +0.000 A 
DOCKED: ATOM     14  C   UNL     1      38.057  15.637 118.642 -0.15 -0.00    +0.000 A 
DOCKED: ATOM     15  C   UNL     1      37.185  14.990 117.761 -0.22 -0.00    +0.000 A 
DOCKED: ATOM     16  C   UNL     1      36.811  13.665 117.991 -0.37 -0.00    +0.000 A 
DOCKED: ATOM     17  C   UNL     1      37.306  12.983 119.105 -0.39 -0.00    +0.000 A 
DOCKED: ATOM     18  C   UNL     1      38.179  13.625 119.988 -0.28 -0.00    +0.000 A 
DOCKED: ATOM     19  CM  UNL     1      37.685  14.309 118.875 +0.00 -0.00    +0.000 AC
DOCKED: ENDBRANCH  10  12
DOCKED: ENDBRANCH   8  10
DOCKED: ENDBRANCH   1   8
DOCKED: BRANCH   3  18
DOCKED: ATOM     20  C   UNL     1      36.756  11.661 123.336 -0.69 -0.00    +0.000 C 
DOCKED: ATOM     21  C   UNL     1      36.831  10.962 122.194 -0.61 -0.00    +0.000 C 
DOCKED: BRANCH  19  20
DOCKED: ATOM     22  C   UNL     1      36.933   9.489 122.145 -0.65 -0.00    +0.000 C 
DOCKED: ATOM     23  N   UNL     1      37.102   8.691 123.325 -0.65 -0.00    +0.000 N 
DOCKED: ATOM     24  O   UNL     1      36.898   8.922 121.021 -2.67 -0.00    +0.000 OA
DOCKED: ATOM     25  H   UNL     1      37.245   9.127 124.196 -0.59 -0.00    +0.000 HD
DOCKED: BRANCH  21  24
DOCKED: ATOM     26  O   UNL     1      37.061   7.339 123.245 -2.13 -0.00    +0.000 OA
DOCKED: ATOM     27  H   UNL     1      37.116   7.069 122.315 -0.12 -0.00    +0.000 HD
DOCKED: ENDBRANCH  21  24
DOCKED: ENDBRANCH  19  20
DOCKED: ENDBRANCH   3  18
DOCKED: TORSDOF 6DOCKED: TER
DOCKED: ENDMDL
________________________________________________________________________________


	BEGINNING GENETIC ALGORITHM DOCKING 51 of 100
Run: 51 Seed: 2108309030 1669754478 [ Run 51 of 100 GA/GALS ]
Beginning LAMARCKIAN GENETIC ALGORITHM (LGA), with a maximum of 2500000 energy evaluations.

Final-Value: -14.356


	FINAL GENETIC ALGORITHM DOCKED STATE
	_______________________________________________


Detailed state:  trans 35.575 13.436 122.183 quatxyzw 0.751707 -0.411001 -0.072633 -0.510627 center 0.320 0.169 0.303 ntor 6 12.5100 -162.6797 165.5179 78.7974 -100.4296 -144.5997
State:	 35.575  13.436 122.183   0.874 -0.478 -0.084 -118.589     12.51 -162.68  165.52   78.80 -100.43 -144.60

DOCKED: MODEL       51
DOCKED: USER    Run = 51
DOCKED: USER    DPF = ligand_dock.biased.dpf
DOCKED: USER  
DOCKED: USER    Estimated Free Energy of Binding    =  -11.12 kcal/mol  [=(1)+(2)+(3)-(4)]
DOCKED: USER    Estimated Inhibition Constant, Ki   =    7.01 nM (nanomolar)  [Temperature = 298.15 K]
DOCKED: USER    
DOCKED: USER    (1) Final Intermolecular Energy     =  -12.91 kcal/mol
DOCKED: USER        vdW + Hbond + desolv Energy     =  -12.91 kcal/mol
DOCKED: USER        Electrostatic Energy            =   +0.00 kcal/mol
DOCKED: USER    (2) Final Total Internal Energy     =   -1.44 kcal/mol
DOCKED: USER    (3) Torsional Free Energy           =   +1.79 kcal/mol
DOCKED: USER    (4) Unbound System's Energy  [=(2)] =   -1.44 kcal/mol
DOCKED: USER    
DOCKED: USER    
DOCKED: USER    NEWDPF move ligand.dum.pdbqt
DOCKED: USER    NEWDPF about 0.320000 0.169000 0.303000
DOCKED: USER    NEWDPF tran0 35.574794 13.436249 122.183458
DOCKED: USER    NEWDPF quaternion0 0.751707 -0.411001 -0.072633 -0.510627
DOCKED: USER    NEWDPF axisangle0 0.874278 -0.478018 -0.084476 -118.588838
DOCKED: USER    NEWDPF quat0 0.874278 -0.478018 -0.084476 -118.588838
DOCKED: USER    NEWDPF dihe0 12.51 -162.68 165.52 78.80 -100.43 -144.60 
DOCKED: USER  keepresnum = 1 
DOCKED: USER  
DOCKED: REMARK  Name = 
DOCKED: REMARK  6 active torsions:
DOCKED: REMARK  status: ('A' for Active; 'I' for Inactive)
DOCKED: REMARK    1  A    between atoms: S_2  and  N_3
DOCKED: REMARK    2  A    between atoms: S_2  and  C_10
DOCKED: REMARK    3  A    between atoms: N_3  and  C_4
DOCKED: REMARK    4  A    between atoms: C_12  and  C_13
DOCKED: REMARK    5  A    between atoms: C_14  and  C_15
DOCKED: REMARK    6  A    between atoms: N_16  and  O_17
DOCKED: REMARK                            x       y       z     vdW  Elec       q    Type
DOCKED: REMARK                         _______ _______ _______ _____ _____    ______ ____
DOCKED: USER                              x       y       z     vdW  Elec       q    Type
DOCKED: USER                           _______ _______ _______ _____ _____    ______ ____
DOCKED: ROOT
DOCKED: ATOM      1  C   UNL     1      36.219  15.286 123.487 -0.40 -0.00    +0.000 A 
DOCKED: ATOM      2  C   UNL     1      36.112  13.951 123.076 -0.41 -0.00    +0.000 A 
DOCKED: ATOM      3  C   UNL     1      37.199  13.296 122.472 -0.47 -0.00    +0.000 A 
DOCKED: ATOM      4  C   UNL     1      38.397  14.012 122.270 -0.39 -0.00    +0.000 A 
DOCKED: ATOM      5  C   UNL     1      38.504  15.342 122.687 -0.32 -0.00    +0.000 A 
DOCKED: ATOM      6  C   UNL     1      37.421  15.977 123.298 -0.29 -0.00    +0.000 A 
DOCKED: ATOM      7  CM  UNL     1      37.309  14.644 122.882 +0.00 -0.00    +0.000 AC
DOCKED: ENDROOT
DOCKED: BRANCH   1   8
DOCKED: ATOM      8  O   UNL     1      34.429  15.380 125.493 -0.59 -0.00    +0.000 OA
DOCKED: ATOM      9  S   UNL     1      34.840  16.090 124.233 -0.66 -0.00    +0.000 S 
DOCKED: ATOM     10  O   UNL     1      33.691  16.076 123.266 -0.45 -0.00    +0.000 OA
DOCKED: BRANCH   8  10
DOCKED: ATOM     11  N   UNL     1      35.243  17.735 124.617 -0.30 -0.00    +0.000 N 
DOCKED: ATOM     12  H   UNL     1      35.940  18.177 124.081 -0.00 -0.00    +0.000 HD
DOCKED: BRANCH  10  12
DOCKED: ATOM     13  C   UNL     1      34.619  18.490 125.672 -0.27 -0.00    +0.000 A 
DOCKED: ATOM     14  C   UNL     1      35.272  19.563 126.309 -0.15 -0.00    +0.000 A 
DOCKED: ATOM     15  C   UNL     1      34.630  20.279 127.324 -0.10 -0.00    +0.000 A 
DOCKED: ATOM     16  C   UNL     1      33.336  19.930 127.717 -0.12 -0.00    +0.000 A 
DOCKED: ATOM     17  C   UNL     1      32.682  18.863 127.098 -0.23 -0.00    +0.000 A 
DOCKED: ATOM     18  C   UNL     1      33.320  18.145 126.081 -0.29 -0.00    +0.000 A 
DOCKED: ATOM     19  CM  UNL     1      33.976  19.212 126.700 -0.01 -0.00    +0.000 AC
DOCKED: ENDBRANCH  10  12
DOCKED: ENDBRANCH   8  10
DOCKED: ENDBRANCH   1   8
DOCKED: BRANCH   3  18
DOCKED: ATOM     20  C   UNL     1      37.025  11.889 122.036 -0.58 -0.00    +0.000 C 
DOCKED: ATOM     21  C   UNL     1      37.095  10.838 122.867 -0.57 -0.00    +0.000 C 
DOCKED: BRANCH  19  20
DOCKED: ATOM     22  C   UNL     1      36.921   9.438 122.428 -0.66 -0.00    +0.000 C 
DOCKED: ATOM     23  N   UNL     1      37.020   8.331 123.333 -0.71 -0.00    +0.000 N 
DOCKED: ATOM     24  O   UNL     1      36.704   9.215 121.206 -2.64 -0.00    +0.000 OA
DOCKED: ATOM     25  H   UNL     1      37.302   8.481 124.264 -0.50 -0.00    +0.000 HD
DOCKED: BRANCH  21  24
DOCKED: ATOM     26  O   UNL     1      36.726   7.077 122.911 -1.73 -0.00    +0.000 OA
DOCKED: ATOM     27  H   UNL     1      36.661   7.069 121.943 -0.07 -0.00    +0.000 HD
DOCKED: ENDBRANCH  21  24
DOCKED: ENDBRANCH  19  20
DOCKED: ENDBRANCH   3  18
DOCKED: TORSDOF 6DOCKED: TER
DOCKED: ENDMDL
________________________________________________________________________________


	BEGINNING GENETIC ALGORITHM DOCKING 52 of 100
Run: 52 Seed: 515734490 980596940 [ Run 52 of 100 GA/GALS ]
Beginning LAMARCKIAN GENETIC ALGORITHM (LGA), with a maximum of 2500000 energy evaluations.

Final-Value: -14.499


	FINAL GENETIC ALGORITHM DOCKED STATE
	_______________________________________________


Detailed state:  trans 37.508 13.293 122.199 quatxyzw -0.226205 0.738886 -0.619870 -0.136530 center 0.320 0.169 0.303 ntor 6 6.5159 -40.9673 171.7819 -173.1917 119.0375 -80.0293
State:	 37.508  13.293 122.199  -0.228  0.746 -0.626 -164.306      6.52  -40.97  171.78 -173.19  119.04  -80.03

DOCKED: MODEL       52
DOCKED: USER    Run = 52
DOCKED: USER    DPF = ligand_dock.biased.dpf
DOCKED: USER  
DOCKED: USER    Estimated Free Energy of Binding    =  -10.92 kcal/mol  [=(1)+(2)+(3)-(4)]
DOCKED: USER    Estimated Inhibition Constant, Ki   =    9.93 nM (nanomolar)  [Temperature = 298.15 K]
DOCKED: USER    
DOCKED: USER    (1) Final Intermolecular Energy     =  -12.71 kcal/mol
DOCKED: USER        vdW + Hbond + desolv Energy     =  -12.71 kcal/mol
DOCKED: USER        Electrostatic Energy            =   +0.00 kcal/mol
DOCKED: USER    (2) Final Total Internal Energy     =   -1.79 kcal/mol
DOCKED: USER    (3) Torsional Free Energy           =   +1.79 kcal/mol
DOCKED: USER    (4) Unbound System's Energy  [=(2)] =   -1.79 kcal/mol
DOCKED: USER    
DOCKED: USER    
DOCKED: USER    NEWDPF move ligand.dum.pdbqt
DOCKED: USER    NEWDPF about 0.320000 0.169000 0.303000
DOCKED: USER    NEWDPF tran0 37.507775 13.293470 122.199313
DOCKED: USER    NEWDPF quaternion0 -0.226205 0.738886 -0.619870 -0.136530
DOCKED: USER    NEWDPF axisangle0 -0.228343 0.745870 -0.625729 -164.305777
DOCKED: USER    NEWDPF quat0 -0.228343 0.745870 -0.625729 -164.305777
DOCKED: USER    NEWDPF dihe0 6.52 -40.97 171.78 -173.19 119.04 -80.03 
DOCKED: USER  keepresnum = 1 
DOCKED: USER  
DOCKED: REMARK  Name = 
DOCKED: REMARK  6 active torsions:
DOCKED: REMARK  status: ('A' for Active; 'I' for Inactive)
DOCKED: REMARK    1  A    between atoms: S_2  and  N_3
DOCKED: REMARK    2  A    between atoms: S_2  and  C_10
DOCKED: REMARK    3  A    between atoms: N_3  and  C_4
DOCKED: REMARK    4  A    between atoms: C_12  and  C_13
DOCKED: REMARK    5  A    between atoms: C_14  and  C_15
DOCKED: REMARK    6  A    between atoms: N_16  and  O_17
DOCKED: REMARK                            x       y       z     vdW  Elec       q    Type
DOCKED: REMARK                         _______ _______ _______ _____ _____    ______ ____
DOCKED: USER                              x       y       z     vdW  Elec       q    Type
DOCKED: USER                           _______ _______ _______ _____ _____    ______ ____
DOCKED: ROOT
DOCKED: ATOM      1  C   UNL     1      36.733  15.514 122.145 -0.26 -0.00    +0.000 A 
DOCKED: ATOM      2  C   UNL     1      36.699  14.116 122.062 -0.28 -0.00    +0.000 A 
DOCKED: ATOM      3  C   UNL     1      36.108  13.350 123.082 -0.46 -0.00    +0.000 A 
DOCKED: ATOM      4  C   UNL     1      35.564  14.013 124.201 -0.37 -0.00    +0.000 A 
DOCKED: ATOM      5  C   UNL     1      35.593  15.409 124.279 -0.40 -0.00    +0.000 A 
DOCKED: ATOM      6  C   UNL     1      36.170  16.158 123.253 -0.33 -0.00    +0.000 A 
DOCKED: ATOM      7  CM  UNL     1      36.144  14.760 123.170 +0.00 -0.00    +0.000 AC
DOCKED: ENDROOT
DOCKED: BRANCH   1   8
DOCKED: ATOM      8  O   UNL     1      36.527  17.473 120.313 -0.15 -0.00    +0.000 OA
DOCKED: ATOM      9  S   UNL     1      37.487  16.453 120.859 -0.22 -0.00    +0.000 S 
DOCKED: ATOM     10  O   UNL     1      37.893  15.521 119.754 -0.20 -0.00    +0.000 OA
DOCKED: BRANCH   8  10
DOCKED: ATOM     11  N   UNL     1      38.896  17.270 121.463 -0.10 -0.00    +0.000 N 
DOCKED: ATOM     12  H   UNL     1      38.880  18.254 121.500 +0.00 -0.00    +0.000 HD
DOCKED: BRANCH  10  12
DOCKED: ATOM     13  C   UNL     1      40.085  16.595 121.913 -0.19 -0.00    +0.000 A 
DOCKED: ATOM     14  C   UNL     1      41.326  17.254 122.012 -0.18 -0.00    +0.000 A 
DOCKED: ATOM     15  C   UNL     1      42.457  16.567 122.462 -0.36 -0.00    +0.000 A 
DOCKED: ATOM     16  C   UNL     1      42.365  15.218 122.813 -0.33 +0.00    +0.000 A 
DOCKED: ATOM     17  C   UNL     1      41.142  14.553 122.711 -0.45 -0.00    +0.000 A 
DOCKED: ATOM     18  C   UNL     1      40.007  15.236 122.263 -0.37 -0.00    +0.000 A 
DOCKED: ATOM     19  CM  UNL     1      41.230  15.904 122.363 +0.00 -0.00    +0.000 AC
DOCKED: ENDBRANCH  10  12
DOCKED: ENDBRANCH   8  10
DOCKED: ENDBRANCH   1   8
DOCKED: BRANCH   3  18
DOCKED: ATOM     20  C   UNL     1      36.119  11.872 122.955 -0.66 -0.00    +0.000 C 
DOCKED: ATOM     21  C   UNL     1      37.058  11.191 122.281 -0.57 -0.00    +0.000 C 
DOCKED: BRANCH  19  20
DOCKED: ATOM     22  C   UNL     1      37.065   9.718 122.156 -0.59 -0.00    +0.000 C 
DOCKED: ATOM     23  N   UNL     1      37.121   8.851 123.297 -0.62 -0.00    +0.000 N 
DOCKED: ATOM     24  O   UNL     1      37.048   9.214 121.002 -2.73 -0.00    +0.000 OA
DOCKED: ATOM     25  H   UNL     1      37.250   9.231 124.196 -0.60 -0.00    +0.000 HD
DOCKED: BRANCH  21  24
DOCKED: ATOM     26  O   UNL     1      36.995   7.511 123.141 -2.21 -0.00    +0.000 OA
DOCKED: ATOM     27  H   UNL     1      36.978   7.296 122.196 -0.07 -0.00    +0.000 HD
DOCKED: ENDBRANCH  21  24
DOCKED: ENDBRANCH  19  20
DOCKED: ENDBRANCH   3  18
DOCKED: TORSDOF 6DOCKED: TER
DOCKED: ENDMDL
________________________________________________________________________________


	BEGINNING GENETIC ALGORITHM DOCKING 53 of 100
Run: 53 Seed: 555705436 724157304 [ Run 53 of 100 GA/GALS ]
Beginning LAMARCKIAN GENETIC ALGORITHM (LGA), with a maximum of 2500000 energy evaluations.

Final-Value: -15.030


	FINAL GENETIC ALGORITHM DOCKED STATE
	_______________________________________________


Detailed state:  trans 38.071 12.557 123.132 quatxyzw 0.035414 0.689003 -0.672955 -0.266744 center 0.320 0.169 0.303 ntor 6 12.4090 -54.1545 -132.3909 162.5650 -10.5642 131.8207
State:	 38.071  12.557 123.132   0.037  0.715 -0.698 -149.059     12.41  -54.15 -132.39  162.56  -10.56  131.82

DOCKED: MODEL       53
DOCKED: USER    Run = 53
DOCKED: USER    DPF = ligand_dock.biased.dpf
DOCKED: USER  
DOCKED: USER    Estimated Free Energy of Binding    =  -11.45 kcal/mol  [=(1)+(2)+(3)-(4)]
DOCKED: USER    Estimated Inhibition Constant, Ki   =    4.02 nM (nanomolar)  [Temperature = 298.15 K]
DOCKED: USER    
DOCKED: USER    (1) Final Intermolecular Energy     =  -13.24 kcal/mol
DOCKED: USER        vdW + Hbond + desolv Energy     =  -13.24 kcal/mol
DOCKED: USER        Electrostatic Energy            =   +0.00 kcal/mol
DOCKED: USER    (2) Final Total Internal Energy     =   -1.79 kcal/mol
DOCKED: USER    (3) Torsional Free Energy           =   +1.79 kcal/mol
DOCKED: USER    (4) Unbound System's Energy  [=(2)] =   -1.79 kcal/mol
DOCKED: USER    
DOCKED: USER    
DOCKED: USER    NEWDPF move ligand.dum.pdbqt
DOCKED: USER    NEWDPF about 0.320000 0.169000 0.303000
DOCKED: USER    NEWDPF tran0 38.071356 12.557263 123.131537
DOCKED: USER    NEWDPF quaternion0 0.035414 0.689003 -0.672955 -0.266744
DOCKED: USER    NEWDPF axisangle0 0.036745 0.714906 -0.698254 -149.058825
DOCKED: USER    NEWDPF quat0 0.036745 0.714906 -0.698254 -149.058825
DOCKED: USER    NEWDPF dihe0 12.41 -54.15 -132.39 162.56 -10.56 131.82 
DOCKED: USER  keepresnum = 1 
DOCKED: USER  
DOCKED: REMARK  Name = 
DOCKED: REMARK  6 active torsions:
DOCKED: REMARK  status: ('A' for Active; 'I' for Inactive)
DOCKED: REMARK    1  A    between atoms: S_2  and  N_3
DOCKED: REMARK    2  A    between atoms: S_2  and  C_10
DOCKED: REMARK    3  A    between atoms: N_3  and  C_4
DOCKED: REMARK    4  A    between atoms: C_12  and  C_13
DOCKED: REMARK    5  A    between atoms: C_14  and  C_15
DOCKED: REMARK    6  A    between atoms: N_16  and  O_17
DOCKED: REMARK                            x       y       z     vdW  Elec       q    Type
DOCKED: REMARK                         _______ _______ _______ _____ _____    ______ ____
DOCKED: USER                              x       y       z     vdW  Elec       q    Type
DOCKED: USER                           _______ _______ _______ _____ _____    ______ ____
DOCKED: ROOT
DOCKED: ATOM      1  C   UNL     1      37.929  14.880 122.787 -0.37 -0.00    +0.000 A 
DOCKED: ATOM      2  C   UNL     1      37.651  13.516 122.628 -0.46 -0.00    +0.000 A 
DOCKED: ATOM      3  C   UNL     1      36.465  12.961 123.139 -0.55 -0.00    +0.000 A 
DOCKED: ATOM      4  C   UNL     1      35.566  13.797 123.832 -0.46 -0.00    +0.000 A 
DOCKED: ATOM      5  C   UNL     1      35.842  15.159 123.983 -0.43 -0.00    +0.000 A 
DOCKED: ATOM      6  C   UNL     1      37.016  15.702 123.459 -0.32 -0.00    +0.000 A 
DOCKED: ATOM      7  CM  UNL     1      36.745  14.336 123.305 +0.00 -0.00    +0.000 AC
DOCKED: ENDROOT
DOCKED: BRANCH   1   8
DOCKED: ATOM      8  O   UNL     1      40.469  14.481 121.995 -1.06 -0.00    +0.000 OA
DOCKED: ATOM      9  S   UNL     1      39.426  15.553 122.147 -0.42 -0.00    +0.000 S 
DOCKED: ATOM     10  O   UNL     1      39.932  16.598 123.099 -0.31 -0.00    +0.000 OA
DOCKED: BRANCH   8  10
DOCKED: ATOM     11  N   UNL     1      39.138  16.284 120.597 -0.14 -0.00    +0.000 N 
DOCKED: ATOM     12  H   UNL     1      39.279  17.254 120.511 +0.00 -0.00    +0.000 HD
DOCKED: BRANCH  10  12
DOCKED: ATOM     13  C   UNL     1      38.706  15.556 119.434 -0.16 -0.00    +0.000 A 
DOCKED: ATOM     14  C   UNL     1      39.157  15.879 118.140 -0.13 -0.00    +0.000 A 
DOCKED: ATOM     15  C   UNL     1      38.722  15.142 117.034 -0.18 -0.00    +0.000 A 
DOCKED: ATOM     16  C   UNL     1      37.830  14.081 117.206 -0.30 -0.00    +0.000 A 
DOCKED: ATOM     17  C   UNL     1      37.369  13.757 118.483 -0.35 -0.00    +0.000 A 
DOCKED: ATOM     18  C   UNL     1      37.803  14.490 119.592 -0.27 -0.00    +0.000 A 
DOCKED: ATOM     19  CM  UNL     1      38.265  14.817 118.315 +0.00 -0.00    +0.000 AC
DOCKED: ENDBRANCH  10  12
DOCKED: ENDBRANCH   8  10
DOCKED: ENDBRANCH   1   8
DOCKED: BRANCH   3  18
DOCKED: ATOM     20  C   UNL     1      36.231  11.506 122.962 -0.69 -0.00    +0.000 C 
DOCKED: ATOM     21  C   UNL     1      37.121  10.673 122.402 -0.46 -0.00    +0.000 C 
DOCKED: BRANCH  19  20
DOCKED: ATOM     22  C   UNL     1      36.883   9.224 122.228 -0.69 -0.00    +0.000 C 
DOCKED: ATOM     23  N   UNL     1      36.894   8.306 123.328 -0.71 -0.00    +0.000 N 
DOCKED: ATOM     24  O   UNL     1      36.691   8.784 121.062 -2.56 -0.00    +0.000 OA
DOCKED: ATOM     25  H   UNL     1      37.156   8.618 124.225 -0.51 -0.00    +0.000 HD
DOCKED: BRANCH  21  24
DOCKED: ATOM     26  O   UNL     1      36.545   7.011 123.139 -1.63 -0.00    +0.000 OA
DOCKED: ATOM     27  H   UNL     1      36.507   6.822 122.188 -0.07 -0.00    +0.000 HD
DOCKED: ENDBRANCH  21  24
DOCKED: ENDBRANCH  19  20
DOCKED: ENDBRANCH   3  18
DOCKED: TORSDOF 6DOCKED: TER
DOCKED: ENDMDL
________________________________________________________________________________


	BEGINNING GENETIC ALGORITHM DOCKING 54 of 100
Run: 54 Seed: 701734069 416282657 [ Run 54 of 100 GA/GALS ]
Beginning LAMARCKIAN GENETIC ALGORITHM (LGA), with a maximum of 2500000 energy evaluations.

Final-Value: -13.588


	FINAL GENETIC ALGORITHM DOCKED STATE
	_______________________________________________


Detailed state:  trans 37.196 12.511 118.630 quatxyzw -0.533180 0.592734 -0.541438 0.266891 center 0.320 0.169 0.303 ntor 6 34.2414 159.2914 117.8122 46.8044 4.5938 -29.4101
State:	 37.196  12.511 118.630  -0.553  0.615 -0.562 149.041     34.24  159.29  117.81   46.80    4.59  -29.41

DOCKED: MODEL       54
DOCKED: USER    Run = 54
DOCKED: USER    DPF = ligand_dock.biased.dpf
DOCKED: USER  
DOCKED: USER    Estimated Free Energy of Binding    =  -10.19 kcal/mol  [=(1)+(2)+(3)-(4)]
DOCKED: USER    Estimated Inhibition Constant, Ki   =   33.70 nM (nanomolar)  [Temperature = 298.15 K]
DOCKED: USER    
DOCKED: USER    (1) Final Intermolecular Energy     =  -11.98 kcal/mol
DOCKED: USER        vdW + Hbond + desolv Energy     =  -11.98 kcal/mol
DOCKED: USER        Electrostatic Energy            =   +0.00 kcal/mol
DOCKED: USER    (2) Final Total Internal Energy     =   -1.60 kcal/mol
DOCKED: USER    (3) Torsional Free Energy           =   +1.79 kcal/mol
DOCKED: USER    (4) Unbound System's Energy  [=(2)] =   -1.60 kcal/mol
DOCKED: USER    
DOCKED: USER    
DOCKED: USER    NEWDPF move ligand.dum.pdbqt
DOCKED: USER    NEWDPF about 0.320000 0.169000 0.303000
DOCKED: USER    NEWDPF tran0 37.195915 12.511076 118.630190
DOCKED: USER    NEWDPF quaternion0 -0.533180 0.592734 -0.541438 0.266891
DOCKED: USER    NEWDPF axisangle0 -0.553248 0.615043 -0.561817 149.041359
DOCKED: USER    NEWDPF quat0 -0.553248 0.615043 -0.561817 149.041359
DOCKED: USER    NEWDPF dihe0 34.24 159.29 117.81 46.80 4.59 -29.41 
DOCKED: USER  keepresnum = 1 
DOCKED: USER  
DOCKED: REMARK  Name = 
DOCKED: REMARK  6 active torsions:
DOCKED: REMARK  status: ('A' for Active; 'I' for Inactive)
DOCKED: REMARK    1  A    between atoms: S_2  and  N_3
DOCKED: REMARK    2  A    between atoms: S_2  and  C_10
DOCKED: REMARK    3  A    between atoms: N_3  and  C_4
DOCKED: REMARK    4  A    between atoms: C_12  and  C_13
DOCKED: REMARK    5  A    between atoms: C_14  and  C_15
DOCKED: REMARK    6  A    between atoms: N_16  and  O_17
DOCKED: REMARK                            x       y       z     vdW  Elec       q    Type
DOCKED: REMARK                         _______ _______ _______ _____ _____    ______ ____
DOCKED: USER                              x       y       z     vdW  Elec       q    Type
DOCKED: USER                           _______ _______ _______ _____ _____    ______ ____
DOCKED: ROOT
DOCKED: ATOM      1  C   UNL     1      36.307  14.689 118.668 -0.21 -0.00    +0.000 A 
DOCKED: ATOM      2  C   UNL     1      36.495  13.348 119.028 -0.30 -0.00    +0.000 A 
DOCKED: ATOM      3  C   UNL     1      37.178  13.010 120.209 -0.42 -0.00    +0.000 A 
DOCKED: ATOM      4  C   UNL     1      37.688  14.045 121.019 -0.35 -0.00    +0.000 A 
DOCKED: ATOM      5  C   UNL     1      37.492  15.382 120.663 -0.21 -0.00    +0.000 A 
DOCKED: ATOM      6  C   UNL     1      36.800  15.705 119.494 -0.17 -0.00    +0.000 A 
DOCKED: ATOM      7  CM  UNL     1      36.993  14.363 119.847 +0.00 -0.00    +0.000 AC
DOCKED: ENDROOT
DOCKED: BRANCH   1   8
DOCKED: ATOM      8  O   UNL     1      35.277  16.577 117.053 -0.14 -0.00    +0.000 OA
DOCKED: ATOM      9  S   UNL     1      35.456  15.089 117.179 -0.32 -0.00    +0.000 S 
DOCKED: ATOM     10  O   UNL     1      34.106  14.433 117.203 -0.33 -0.00    +0.000 OA
DOCKED: BRANCH   8  10
DOCKED: ATOM     11  N   UNL     1      36.349  14.509 115.806 -0.24 -0.00    +0.000 N 
DOCKED: ATOM     12  H   UNL     1      35.861  14.000 115.119 -0.01 -0.00    +0.000 HD
DOCKED: BRANCH  10  12
DOCKED: ATOM     13  C   UNL     1      37.758  14.729 115.614 -0.24 -0.00    +0.000 A 
DOCKED: ATOM     14  C   UNL     1      38.704  13.699 115.781 -0.42 -0.00    +0.000 A 
DOCKED: ATOM     15  C   UNL     1      40.065  13.949 115.576 -0.27 -0.00    +0.000 A 
DOCKED: ATOM     16  C   UNL     1      40.495  15.225 115.209 -0.28 -0.00    +0.000 A 
DOCKED: ATOM     17  C   UNL     1      39.568  16.256 115.048 -0.16 -0.00    +0.000 A 
DOCKED: ATOM     18  C   UNL     1      38.206  16.011 115.250 -0.12 -0.00    +0.000 A 
DOCKED: ATOM     19  CM  UNL     1      39.132  14.978 115.413 +0.00 -0.00    +0.000 AC
DOCKED: ENDBRANCH  10  12
DOCKED: ENDBRANCH   8  10
DOCKED: ENDBRANCH   1   8
DOCKED: BRANCH   3  18
DOCKED: ATOM     20  C   UNL     1      37.369  11.574 120.531 -0.42 -0.00    +0.000 C 
DOCKED: ATOM     21  C   UNL     1      36.772  10.957 121.562 -0.49 -0.00    +0.000 C 
DOCKED: BRANCH  19  20
DOCKED: ATOM     22  C   UNL     1      36.965   9.527 121.878 -0.62 -0.00    +0.000 C 
DOCKED: ATOM     23  N   UNL     1      37.071   9.045 123.224 -0.64 -0.00    +0.000 N 
DOCKED: ATOM     24  O   UNL     1      37.067   8.710 120.923 -2.57 -0.00    +0.000 OA
DOCKED: ATOM     25  H   UNL     1      37.108   9.683 123.972 -0.50 -0.00    +0.000 HD
DOCKED: BRANCH  21  24
DOCKED: ATOM     26  O   UNL     1      37.118   7.713 123.469 -2.26 -0.00    +0.000 OA
DOCKED: ATOM     27  H   UNL     1      37.593   7.269 122.750 -0.30 -0.00    +0.000 HD
DOCKED: ENDBRANCH  21  24
DOCKED: ENDBRANCH  19  20
DOCKED: ENDBRANCH   3  18
DOCKED: TORSDOF 6DOCKED: TER
DOCKED: ENDMDL
________________________________________________________________________________


	BEGINNING GENETIC ALGORITHM DOCKING 55 of 100
Run: 55 Seed: 624162215 192868306 [ Run 55 of 100 GA/GALS ]
Beginning LAMARCKIAN GENETIC ALGORITHM (LGA), with a maximum of 2500000 energy evaluations.

Final-Value: -14.727


	FINAL GENETIC ALGORITHM DOCKED STATE
	_______________________________________________


Detailed state:  trans 37.543 13.142 121.906 quatxyzw -0.421005 -0.147379 0.596963 0.666835 center 0.320 0.169 0.303 ntor 6 7.0011 -163.9295 -94.2547 -179.2666 48.5850 -45.1464
State:	 37.543  13.142 121.906  -0.565 -0.198  0.801 96.353      7.00 -163.93  -94.25 -179.27   48.58  -45.15

DOCKED: MODEL       55
DOCKED: USER    Run = 55
DOCKED: USER    DPF = ligand_dock.biased.dpf
DOCKED: USER  
DOCKED: USER    Estimated Free Energy of Binding    =  -10.89 kcal/mol  [=(1)+(2)+(3)-(4)]
DOCKED: USER    Estimated Inhibition Constant, Ki   =   10.47 nM (nanomolar)  [Temperature = 298.15 K]
DOCKED: USER    
DOCKED: USER    (1) Final Intermolecular Energy     =  -12.68 kcal/mol
DOCKED: USER        vdW + Hbond + desolv Energy     =  -12.68 kcal/mol
DOCKED: USER        Electrostatic Energy            =   +0.00 kcal/mol
DOCKED: USER    (2) Final Total Internal Energy     =   -2.05 kcal/mol
DOCKED: USER    (3) Torsional Free Energy           =   +1.79 kcal/mol
DOCKED: USER    (4) Unbound System's Energy  [=(2)] =   -2.05 kcal/mol
DOCKED: USER    
DOCKED: USER    
DOCKED: USER    NEWDPF move ligand.dum.pdbqt
DOCKED: USER    NEWDPF about 0.320000 0.169000 0.303000
DOCKED: USER    NEWDPF tran0 37.543486 13.141759 121.905720
DOCKED: USER    NEWDPF quaternion0 -0.421005 -0.147379 0.596963 0.666835
DOCKED: USER    NEWDPF axisangle0 -0.564952 -0.197769 0.801072 96.353469
DOCKED: USER    NEWDPF quat0 -0.564952 -0.197769 0.801072 96.353469
DOCKED: USER    NEWDPF dihe0 7.00 -163.93 -94.25 -179.27 48.58 -45.15 
DOCKED: USER  keepresnum = 1 
DOCKED: USER  
DOCKED: REMARK  Name = 
DOCKED: REMARK  6 active torsions:
DOCKED: REMARK  status: ('A' for Active; 'I' for Inactive)
DOCKED: REMARK    1  A    between atoms: S_2  and  N_3
DOCKED: REMARK    2  A    between atoms: S_2  and  C_10
DOCKED: REMARK    3  A    between atoms: N_3  and  C_4
DOCKED: REMARK    4  A    between atoms: C_12  and  C_13
DOCKED: REMARK    5  A    between atoms: C_14  and  C_15
DOCKED: REMARK    6  A    between atoms: N_16  and  O_17
DOCKED: REMARK                            x       y       z     vdW  Elec       q    Type
DOCKED: REMARK                         _______ _______ _______ _____ _____    ______ ____
DOCKED: USER                              x       y       z     vdW  Elec       q    Type
DOCKED: USER                           _______ _______ _______ _____ _____    ______ ____
DOCKED: ROOT
DOCKED: ATOM      1  C   UNL     1      38.555  15.083 121.044 -0.26 -0.00    +0.000 A 
DOCKED: ATOM      2  C   UNL     1      38.280  13.721 121.219 -0.37 -0.00    +0.000 A 
DOCKED: ATOM      3  C   UNL     1      37.546  13.007 120.255 -0.43 -0.00    +0.000 A 
DOCKED: ATOM      4  C   UNL     1      37.074  13.691 119.116 -0.37 -0.00    +0.000 A 
DOCKED: ATOM      5  C   UNL     1      37.356  15.049 118.941 -0.22 -0.00    +0.000 A 
DOCKED: ATOM      6  C   UNL     1      38.098  15.743 119.898 -0.17 -0.00    +0.000 A 
DOCKED: ATOM      7  CM  UNL     1      37.818  14.382 120.078 +0.00 -0.00    +0.000 AC
DOCKED: ENDROOT
DOCKED: BRANCH   1   8
DOCKED: ATOM      8  O   UNL     1      40.062  17.215 121.692 -0.14 -0.00    +0.000 OA
DOCKED: ATOM      9  S   UNL     1      39.468  15.960 122.269 -0.37 -0.00    +0.000 S 
DOCKED: ATOM     10  O   UNL     1      40.576  15.078 122.769 -0.66 -0.00    +0.000 OA
DOCKED: BRANCH   8  10
DOCKED: ATOM     11  N   UNL     1      38.433  16.385 123.597 -0.25 -0.00    +0.000 N 
DOCKED: ATOM     12  H   UNL     1      38.840  16.822 124.379 -0.02 -0.00    +0.000 HD
DOCKED: BRANCH  10  12
DOCKED: ATOM     13  C   UNL     1      37.015  16.136 123.622 -0.27 -0.00    +0.000 A 
DOCKED: ATOM     14  C   UNL     1      36.073  17.169 123.449 -0.27 -0.00    +0.000 A 
DOCKED: ATOM     15  C   UNL     1      34.703  16.887 123.470 -0.40 -0.00    +0.000 A 
DOCKED: ATOM     16  C   UNL     1      34.260  15.577 123.667 -0.46 -0.00    +0.000 A 
DOCKED: ATOM     17  C   UNL     1      35.185  14.547 123.847 -0.49 -0.00    +0.000 A 
DOCKED: ATOM     18  C   UNL     1      36.556  14.824 123.825 -0.37 -0.00    +0.000 A 
DOCKED: ATOM     19  CM  UNL     1      35.632  15.857 123.646 -0.00 -0.00    +0.000 AC
DOCKED: ENDBRANCH  10  12
DOCKED: ENDBRANCH   8  10
DOCKED: ENDBRANCH   1   8
DOCKED: BRANCH   3  18
DOCKED: ATOM     20  C   UNL     1      37.264  11.571 120.501 -0.34 -0.00    +0.000 C 
DOCKED: ATOM     21  C   UNL     1      37.280  11.008 121.718 -0.26 -0.00    +0.000 C 
DOCKED: BRANCH  19  20
DOCKED: ATOM     22  C   UNL     1      36.999   9.577 121.957 -0.62 -0.00    +0.000 C 
DOCKED: ATOM     23  N   UNL     1      37.066   8.988 123.263 -0.63 -0.00    +0.000 N 
DOCKED: ATOM     24  O   UNL     1      36.717   8.847 120.969 -2.62 -0.00    +0.000 OA
DOCKED: ATOM     25  H   UNL     1      37.395   9.518 124.024 -0.54 -0.00    +0.000 HD
DOCKED: BRANCH  21  24
DOCKED: ATOM     26  O   UNL     1      36.676   7.704 123.453 -2.11 -0.00    +0.000 OA
DOCKED: ATOM     27  H   UNL     1      36.486   7.294 122.595 -0.03 -0.00    +0.000 HD
DOCKED: ENDBRANCH  21  24
DOCKED: ENDBRANCH  19  20
DOCKED: ENDBRANCH   3  18
DOCKED: TORSDOF 6DOCKED: TER
DOCKED: ENDMDL
________________________________________________________________________________


	BEGINNING GENETIC ALGORITHM DOCKING 56 of 100
Run: 56 Seed: 40541058 1286813750 [ Run 56 of 100 GA/GALS ]
Beginning LAMARCKIAN GENETIC ALGORITHM (LGA), with a maximum of 2500000 energy evaluations.

Final-Value: -14.327


	FINAL GENETIC ALGORITHM DOCKED STATE
	_______________________________________________


Detailed state:  trans 37.916 13.100 121.512 quatxyzw 0.323005 -0.680634 0.657280 0.019699 center 0.320 0.169 0.303 ntor 6 25.3713 6.1514 152.9348 154.3286 -179.4974 23.1485
State:	 37.916  13.100 121.512   0.323 -0.681  0.657 177.743     25.37    6.15  152.93  154.33 -179.50   23.15

DOCKED: MODEL       56
DOCKED: USER    Run = 56
DOCKED: USER    DPF = ligand_dock.biased.dpf
DOCKED: USER  
DOCKED: USER    Estimated Free Energy of Binding    =  -11.05 kcal/mol  [=(1)+(2)+(3)-(4)]
DOCKED: USER    Estimated Inhibition Constant, Ki   =    8.01 nM (nanomolar)  [Temperature = 298.15 K]
DOCKED: USER    
DOCKED: USER    (1) Final Intermolecular Energy     =  -12.83 kcal/mol
DOCKED: USER        vdW + Hbond + desolv Energy     =  -12.83 kcal/mol
DOCKED: USER        Electrostatic Energy            =   +0.00 kcal/mol
DOCKED: USER    (2) Final Total Internal Energy     =   -1.49 kcal/mol
DOCKED: USER    (3) Torsional Free Energy           =   +1.79 kcal/mol
DOCKED: USER    (4) Unbound System's Energy  [=(2)] =   -1.49 kcal/mol
DOCKED: USER    
DOCKED: USER    
DOCKED: USER    NEWDPF move ligand.dum.pdbqt
DOCKED: USER    NEWDPF about 0.320000 0.169000 0.303000
DOCKED: USER    NEWDPF tran0 37.916440 13.099999 121.512118
DOCKED: USER    NEWDPF quaternion0 0.323005 -0.680634 0.657280 0.019699
DOCKED: USER    NEWDPF axisangle0 0.323068 -0.680767 0.657407 177.742539
DOCKED: USER    NEWDPF quat0 0.323068 -0.680767 0.657407 177.742539
DOCKED: USER    NEWDPF dihe0 25.37 6.15 152.93 154.33 -179.50 23.15 
DOCKED: USER  keepresnum = 1 
DOCKED: USER  
DOCKED: REMARK  Name = 
DOCKED: REMARK  6 active torsions:
DOCKED: REMARK  status: ('A' for Active; 'I' for Inactive)
DOCKED: REMARK    1  A    between atoms: S_2  and  N_3
DOCKED: REMARK    2  A    between atoms: S_2  and  C_10
DOCKED: REMARK    3  A    between atoms: N_3  and  C_4
DOCKED: REMARK    4  A    between atoms: C_12  and  C_13
DOCKED: REMARK    5  A    between atoms: C_14  and  C_15
DOCKED: REMARK    6  A    between atoms: N_16  and  O_17
DOCKED: REMARK                            x       y       z     vdW  Elec       q    Type
DOCKED: REMARK                         _______ _______ _______ _____ _____    ______ ____
DOCKED: USER                              x       y       z     vdW  Elec       q    Type
DOCKED: USER                           _______ _______ _______ _____ _____    ______ ____
DOCKED: ROOT
DOCKED: ATOM      1  C   UNL     1      37.063  15.272 121.212 -0.22 -0.00    +0.000 A 
DOCKED: ATOM      2  C   UNL     1      37.066  13.887 121.425 -0.33 -0.00    +0.000 A 
DOCKED: ATOM      3  C   UNL     1      36.787  13.355 122.696 -0.49 -0.00    +0.000 A 
DOCKED: ATOM      4  C   UNL     1      36.519  14.241 123.759 -0.42 -0.00    +0.000 A 
DOCKED: ATOM      5  C   UNL     1      36.509  15.622 123.543 -0.35 -0.00    +0.000 A 
DOCKED: ATOM      6  C   UNL     1      36.775  16.137 122.273 -0.24 -0.00    +0.000 A 
DOCKED: ATOM      7  CM  UNL     1      36.786  14.752 122.485 +0.00 -0.00    +0.000 AC
DOCKED: ENDROOT
DOCKED: BRANCH   1   8
DOCKED: ATOM      8  O   UNL     1      38.437  17.025 119.704 -0.09 -0.00    +0.000 OA
DOCKED: ATOM      9  S   UNL     1      37.426  15.917 119.613 -0.23 -0.00    +0.000 S 
DOCKED: ATOM     10  O   UNL     1      36.160  16.456 119.011 -0.18 -0.00    +0.000 OA
DOCKED: BRANCH   8  10
DOCKED: ATOM     11  N   UNL     1      38.055  14.661 118.590 -0.23 -0.00    +0.000 N 
DOCKED: ATOM     12  H   UNL     1      38.816  14.133 118.922 -0.11 -0.00    +0.000 HD
DOCKED: BRANCH  10  12
DOCKED: ATOM     13  C   UNL     1      37.529  14.347 117.288 -0.28 -0.00    +0.000 A 
DOCKED: ATOM     14  C   UNL     1      38.364  13.991 116.211 -0.34 -0.00    +0.000 A 
DOCKED: ATOM     15  C   UNL     1      37.816  13.684 114.962 -0.38 -0.00    +0.000 A 
DOCKED: ATOM     16  C   UNL     1      36.433  13.733 114.773 -0.30 -0.00    +0.000 A 
DOCKED: ATOM     17  C   UNL     1      35.596  14.093 115.831 -0.28 -0.00    +0.000 A 
DOCKED: ATOM     18  C   UNL     1      36.140  14.399 117.082 -0.30 -0.00    +0.000 A 
DOCKED: ATOM     19  CM  UNL     1      36.980  14.041 116.025 +0.00 -0.00    +0.000 AC
DOCKED: ENDBRANCH  10  12
DOCKED: ENDBRANCH   8  10
DOCKED: ENDBRANCH   1   8
DOCKED: BRANCH   3  18
DOCKED: ATOM     20  C   UNL     1      36.825  11.882 122.871 -0.66 -0.00    +0.000 C 
DOCKED: ATOM     21  C   UNL     1      37.026  11.018 121.864 -0.54 -0.00    +0.000 C 
DOCKED: BRANCH  19  20
DOCKED: ATOM     22  C   UNL     1      37.063   9.552 122.044 -0.61 -0.00    +0.000 C 
DOCKED: ATOM     23  N   UNL     1      37.141   8.938 123.337 -0.60 -0.00    +0.000 N 
DOCKED: ATOM     24  O   UNL     1      37.054   8.822 121.017 -2.68 -0.00    +0.000 OA
DOCKED: ATOM     25  H   UNL     1      37.265   9.496 124.139 -0.58 -0.00    +0.000 HD
DOCKED: BRANCH  21  24
DOCKED: ATOM     26  O   UNL     1      37.044   7.592 123.460 -2.22 -0.00    +0.000 OA
DOCKED: ATOM     27  H   UNL     1      37.323   7.172 122.632 -0.18 -0.00    +0.000 HD
DOCKED: ENDBRANCH  21  24
DOCKED: ENDBRANCH  19  20
DOCKED: ENDBRANCH   3  18
DOCKED: TORSDOF 6DOCKED: TER
DOCKED: ENDMDL
________________________________________________________________________________


	BEGINNING GENETIC ALGORITHM DOCKING 57 of 100
Run: 57 Seed: 52562385 1841509330 [ Run 57 of 100 GA/GALS ]
Beginning LAMARCKIAN GENETIC ALGORITHM (LGA), with a maximum of 2500000 energy evaluations.

Final-Value: -14.272


	FINAL GENETIC ALGORITHM DOCKED STATE
	_______________________________________________


Detailed state:  trans 37.250 13.247 121.585 quatxyzw -0.430265 -0.096386 0.513209 0.736341 center 0.320 0.169 0.303 ntor 6 8.8390 -178.4935 -173.2371 -169.6589 119.7842 -72.5372
State:	 37.250  13.247 121.585  -0.636 -0.142  0.758 85.159      8.84 -178.49 -173.24 -169.66  119.78  -72.54

DOCKED: MODEL       57
DOCKED: USER    Run = 57
DOCKED: USER    DPF = ligand_dock.biased.dpf
DOCKED: USER  
DOCKED: USER    Estimated Free Energy of Binding    =  -10.67 kcal/mol  [=(1)+(2)+(3)-(4)]
DOCKED: USER    Estimated Inhibition Constant, Ki   =   14.97 nM (nanomolar)  [Temperature = 298.15 K]
DOCKED: USER    
DOCKED: USER    (1) Final Intermolecular Energy     =  -12.46 kcal/mol
DOCKED: USER        vdW + Hbond + desolv Energy     =  -12.46 kcal/mol
DOCKED: USER        Electrostatic Energy            =   +0.00 kcal/mol
DOCKED: USER    (2) Final Total Internal Energy     =   -1.81 kcal/mol
DOCKED: USER    (3) Torsional Free Energy           =   +1.79 kcal/mol
DOCKED: USER    (4) Unbound System's Energy  [=(2)] =   -1.81 kcal/mol
DOCKED: USER    
DOCKED: USER    
DOCKED: USER    NEWDPF move ligand.dum.pdbqt
DOCKED: USER    NEWDPF about 0.320000 0.169000 0.303000
DOCKED: USER    NEWDPF tran0 37.249734 13.247255 121.584654
DOCKED: USER    NEWDPF quaternion0 -0.430265 -0.096386 0.513209 0.736341
DOCKED: USER    NEWDPF axisangle0 -0.635913 -0.142454 0.758500 85.158626
DOCKED: USER    NEWDPF quat0 -0.635913 -0.142454 0.758500 85.158626
DOCKED: USER    NEWDPF dihe0 8.84 -178.49 -173.24 -169.66 119.78 -72.54 
DOCKED: USER  keepresnum = 1 
DOCKED: USER  
DOCKED: REMARK  Name = 
DOCKED: REMARK  6 active torsions:
DOCKED: REMARK  status: ('A' for Active; 'I' for Inactive)
DOCKED: REMARK    1  A    between atoms: S_2  and  N_3
DOCKED: REMARK    2  A    between atoms: S_2  and  C_10
DOCKED: REMARK    3  A    between atoms: N_3  and  C_4
DOCKED: REMARK    4  A    between atoms: C_12  and  C_13
DOCKED: REMARK    5  A    between atoms: C_14  and  C_15
DOCKED: REMARK    6  A    between atoms: N_16  and  O_17
DOCKED: REMARK                            x       y       z     vdW  Elec       q    Type
DOCKED: REMARK                         _______ _______ _______ _____ _____    ______ ____
DOCKED: USER                              x       y       z     vdW  Elec       q    Type
DOCKED: USER                           _______ _______ _______ _____ _____    ______ ____
DOCKED: ROOT
DOCKED: ATOM      1  C   UNL     1      38.112  15.258 120.720 -0.23 -0.00    +0.000 A 
DOCKED: ATOM      2  C   UNL     1      38.006  13.884 120.975 -0.36 -0.00    +0.000 A 
DOCKED: ATOM      3  C   UNL     1      37.560  13.001 119.977 -0.42 -0.00    +0.000 A 
DOCKED: ATOM      4  C   UNL     1      37.203  13.523 118.717 -0.37 -0.00    +0.000 A 
DOCKED: ATOM      5  C   UNL     1      37.317  14.893 118.462 -0.23 -0.00    +0.000 A 
DOCKED: ATOM      6  C   UNL     1      37.775  15.758 119.457 -0.16 -0.00    +0.000 A 
DOCKED: ATOM      7  CM  UNL     1      37.662  14.386 119.718 +0.00 -0.00    +0.000 AC
DOCKED: ENDROOT
DOCKED: BRANCH   1   8
DOCKED: ATOM      8  O   UNL     1      39.724  17.278 121.466 -0.12 -0.00    +0.000 OA
DOCKED: ATOM      9  S   UNL     1      38.665  16.348 121.989 -0.28 -0.00    +0.000 S 
DOCKED: ATOM     10  O   UNL     1      39.238  15.532 123.111 -0.35 -0.00    +0.000 OA
DOCKED: BRANCH   8  10
DOCKED: ATOM     11  N   UNL     1      37.334  17.290 122.589 -0.16 -0.00    +0.000 N 
DOCKED: ATOM     12  H   UNL     1      37.341  18.259 122.420 +0.00 -0.00    +0.000 HD
DOCKED: BRANCH  10  12
DOCKED: ATOM     13  C   UNL     1      36.223  16.737 123.317 -0.28 -0.00    +0.000 A 
DOCKED: ATOM     14  C   UNL     1      35.212  17.548 123.867 -0.32 -0.00    +0.000 A 
DOCKED: ATOM     15  C   UNL     1      34.143  16.974 124.561 -0.40 -0.00    +0.000 A 
DOCKED: ATOM     16  C   UNL     1      34.073  15.588 124.718 -0.49 -0.00    +0.000 A 
DOCKED: ATOM     17  C   UNL     1      35.074  14.774 124.185 -0.46 -0.00    +0.000 A 
DOCKED: ATOM     18  C   UNL     1      36.144  15.344 123.488 -0.40 -0.00    +0.000 A 
DOCKED: ATOM     19  CM  UNL     1      35.145  16.161 124.022 -0.04 -0.00    +0.000 AC
DOCKED: ENDBRANCH  10  12
DOCKED: ENDBRANCH   8  10
DOCKED: ENDBRANCH   1   8
DOCKED: BRANCH   3  18
DOCKED: ATOM     20  C   UNL     1      37.445  11.559 120.308 -0.38 -0.00    +0.000 C 
DOCKED: ATOM     21  C   UNL     1      37.142  11.098 121.531 -0.44 -0.00    +0.000 C 
DOCKED: BRANCH  19  20
DOCKED: ATOM     22  C   UNL     1      37.028   9.661 121.855 -0.59 -0.00    +0.000 C 
DOCKED: ATOM     23  N   UNL     1      37.053   9.173 123.203 -0.63 -0.00    +0.000 N 
DOCKED: ATOM     24  O   UNL     1      36.935   8.838 120.906 -2.68 -0.00    +0.000 OA
DOCKED: ATOM     25  H   UNL     1      37.241   9.792 123.946 -0.47 -0.00    +0.000 HD
DOCKED: BRANCH  21  24
DOCKED: ATOM     26  O   UNL     1      36.818   7.863 123.458 -2.15 -0.00    +0.000 OA
DOCKED: ATOM     27  H   UNL     1      36.790   7.372 122.623 -0.05 -0.00    +0.000 HD
DOCKED: ENDBRANCH  21  24
DOCKED: ENDBRANCH  19  20
DOCKED: ENDBRANCH   3  18
DOCKED: TORSDOF 6DOCKED: TER
DOCKED: ENDMDL
________________________________________________________________________________


	BEGINNING GENETIC ALGORITHM DOCKING 58 of 100
Run: 58 Seed: 170922321 1623352131 [ Run 58 of 100 GA/GALS ]
Beginning LAMARCKIAN GENETIC ALGORITHM (LGA), with a maximum of 2500000 energy evaluations.

Final-Value: -15.242


	FINAL GENETIC ALGORITHM DOCKED STATE
	_______________________________________________


Detailed state:  trans 36.604 12.220 119.880 quatxyzw -0.954995 -0.270182 0.109985 -0.053753 center 0.320 0.169 0.303 ntor 6 4.6178 140.9019 110.5213 179.4490 -142.5346 -70.8727
State:	 36.604  12.220 119.880  -0.956 -0.271  0.110 -173.837      4.62  140.90  110.52  179.45 -142.53  -70.87

DOCKED: MODEL       58
DOCKED: USER    Run = 58
DOCKED: USER    DPF = ligand_dock.biased.dpf
DOCKED: USER  
DOCKED: USER    Estimated Free Energy of Binding    =  -11.96 kcal/mol  [=(1)+(2)+(3)-(4)]
DOCKED: USER    Estimated Inhibition Constant, Ki   =    1.71 nM (nanomolar)  [Temperature = 298.15 K]
DOCKED: USER    
DOCKED: USER    (1) Final Intermolecular Energy     =  -13.75 kcal/mol
DOCKED: USER        vdW + Hbond + desolv Energy     =  -13.75 kcal/mol
DOCKED: USER        Electrostatic Energy            =   +0.00 kcal/mol
DOCKED: USER    (2) Final Total Internal Energy     =   -1.49 kcal/mol
DOCKED: USER    (3) Torsional Free Energy           =   +1.79 kcal/mol
DOCKED: USER    (4) Unbound System's Energy  [=(2)] =   -1.49 kcal/mol
DOCKED: USER    
DOCKED: USER    
DOCKED: USER    NEWDPF move ligand.dum.pdbqt
DOCKED: USER    NEWDPF about 0.320000 0.169000 0.303000
DOCKED: USER    NEWDPF tran0 36.604328 12.220259 119.879737
DOCKED: USER    NEWDPF quaternion0 -0.954995 -0.270182 0.109985 -0.053753
DOCKED: USER    NEWDPF axisangle0 -0.956378 -0.270573 0.110144 -173.837407
DOCKED: USER    NEWDPF quat0 -0.956378 -0.270573 0.110144 -173.837407
DOCKED: USER    NEWDPF dihe0 4.62 140.90 110.52 179.45 -142.53 -70.87 
DOCKED: USER  keepresnum = 1 
DOCKED: USER  
DOCKED: REMARK  Name = 
DOCKED: REMARK  6 active torsions:
DOCKED: REMARK  status: ('A' for Active; 'I' for Inactive)
DOCKED: REMARK    1  A    between atoms: S_2  and  N_3
DOCKED: REMARK    2  A    between atoms: S_2  and  C_10
DOCKED: REMARK    3  A    between atoms: N_3  and  C_4
DOCKED: REMARK    4  A    between atoms: C_12  and  C_13
DOCKED: REMARK    5  A    between atoms: C_14  and  C_15
DOCKED: REMARK    6  A    between atoms: N_16  and  O_17
DOCKED: REMARK                            x       y       z     vdW  Elec       q    Type
DOCKED: REMARK                         _______ _______ _______ _____ _____    ______ ____
DOCKED: USER                              x       y       z     vdW  Elec       q    Type
DOCKED: USER                           _______ _______ _______ _____ _____    ______ ____
DOCKED: ROOT
DOCKED: ATOM      1  C   UNL     1      37.002  11.485 122.079 -0.51 -0.00    +0.000 A 
DOCKED: ATOM      2  C   UNL     1      37.273  12.000 120.804 -0.46 -0.00    +0.000 A 
DOCKED: ATOM      3  C   UNL     1      37.536  13.369 120.624 -0.40 -0.00    +0.000 A 
DOCKED: ATOM      4  C   UNL     1      37.507  14.220 121.747 -0.36 -0.00    +0.000 A 
DOCKED: ATOM      5  C   UNL     1      37.245  13.703 123.019 -0.48 -0.00    +0.000 A 
DOCKED: ATOM      6  C   UNL     1      36.998  12.340 123.187 -0.58 -0.00    +0.000 A 
DOCKED: ATOM      7  CM  UNL     1      37.261  12.853 121.910 +0.00 -0.00    +0.000 AC
DOCKED: ENDROOT
DOCKED: BRANCH   1   8
DOCKED: ATOM      8  O   UNL     1      37.439   9.207 123.440 -0.99 -0.00    +0.000 OA
DOCKED: ATOM      9  S   UNL     1      36.665   9.767 122.280 -0.86 -0.00    +0.000 S 
DOCKED: ATOM     10  O   UNL     1      37.069   9.046 121.027 -2.72 -0.00    +0.000 OA
DOCKED: BRANCH   8  10
DOCKED: ATOM     11  N   UNL     1      34.969   9.521 122.561 -0.60 -0.00    +0.000 N 
DOCKED: ATOM     12  H   UNL     1      34.424  10.301 122.812 -0.30 -0.00    +0.000 HD
DOCKED: BRANCH  10  12
DOCKED: ATOM     13  C   UNL     1      34.313   8.244 122.447 -0.62 -0.00    +0.000 A 
DOCKED: ATOM     14  C   UNL     1      34.026   7.449 123.574 -0.54 -0.00    +0.000 A 
DOCKED: ATOM     15  C   UNL     1      33.380   6.218 123.425 -0.55 -0.00    +0.000 A 
DOCKED: ATOM     16  C   UNL     1      33.019   5.766 122.154 -0.46 -0.00    +0.000 A 
DOCKED: ATOM     17  C   UNL     1      33.305   6.542 121.029 -0.34 -0.00    +0.000 A 
DOCKED: ATOM     18  C   UNL     1      33.950   7.774 121.174 -0.55 -0.00    +0.000 A 
DOCKED: ATOM     19  CM  UNL     1      33.665   6.999 122.301 +0.00 -0.00    +0.000 AC
DOCKED: ENDBRANCH  10  12
DOCKED: ENDBRANCH   8  10
DOCKED: ENDBRANCH   1   8
DOCKED: BRANCH   3  18
DOCKED: ATOM     20  C   UNL     1      37.794  13.865 119.249 -0.34 -0.00    +0.000 C 
DOCKED: ATOM     21  C   UNL     1      37.416  13.212 118.140 -0.40 -0.00    +0.000 C 
DOCKED: BRANCH  19  20
DOCKED: ATOM     22  C   UNL     1      37.676  13.711 116.773 -0.40 -0.00    +0.000 C 
DOCKED: ATOM     23  N   UNL     1      38.405  12.948 115.803 -0.51 -0.00    +0.000 N 
DOCKED: ATOM     24  O   UNL     1      37.262  14.861 116.466 -0.22 -0.00    +0.000 OA
DOCKED: ATOM     25  H   UNL     1      38.832  12.100 116.064 -0.09 -0.00    +0.000 HD
DOCKED: BRANCH  21  24
DOCKED: ATOM     26  O   UNL     1      38.508  13.390 114.526 -0.46 -0.00    +0.000 OA
DOCKED: ATOM     27  H   UNL     1      38.097  14.265 114.453 -0.01 -0.00    +0.000 HD
DOCKED: ENDBRANCH  21  24
DOCKED: ENDBRANCH  19  20
DOCKED: ENDBRANCH   3  18
DOCKED: TORSDOF 6DOCKED: TER
DOCKED: ENDMDL
________________________________________________________________________________


	BEGINNING GENETIC ALGORITHM DOCKING 59 of 100
Run: 59 Seed: 1132350132 752350028 [ Run 59 of 100 GA/GALS ]
Beginning LAMARCKIAN GENETIC ALGORITHM (LGA), with a maximum of 2500000 energy evaluations.

Final-Value: -15.674


	FINAL GENETIC ALGORITHM DOCKED STATE
	_______________________________________________


Detailed state:  trans 35.774 13.066 122.757 quatxyzw 0.696975 -0.375157 0.047381 -0.609293 center 0.320 0.169 0.303 ntor 6 59.8528 40.1377 -96.9527 -124.2134 -98.1278 157.2426
State:	 35.774  13.066 122.757   0.879 -0.473  0.060 -104.923     59.85   40.14  -96.95 -124.21  -98.13  157.24

DOCKED: MODEL       59
DOCKED: USER    Run = 59
DOCKED: USER    DPF = ligand_dock.biased.dpf
DOCKED: USER  
DOCKED: USER    Estimated Free Energy of Binding    =  -12.75 kcal/mol  [=(1)+(2)+(3)-(4)]
DOCKED: USER    Estimated Inhibition Constant, Ki   =  451.79 pM (picomolar)  [Temperature = 298.15 K]
DOCKED: USER    
DOCKED: USER    (1) Final Intermolecular Energy     =  -14.54 kcal/mol
DOCKED: USER        vdW + Hbond + desolv Energy     =  -14.54 kcal/mol
DOCKED: USER        Electrostatic Energy            =   +0.00 kcal/mol
DOCKED: USER    (2) Final Total Internal Energy     =   -1.14 kcal/mol
DOCKED: USER    (3) Torsional Free Energy           =   +1.79 kcal/mol
DOCKED: USER    (4) Unbound System's Energy  [=(2)] =   -1.14 kcal/mol
DOCKED: USER    
DOCKED: USER    
DOCKED: USER    NEWDPF move ligand.dum.pdbqt
DOCKED: USER    NEWDPF about 0.320000 0.169000 0.303000
DOCKED: USER    NEWDPF tran0 35.774222 13.065810 122.757186
DOCKED: USER    NEWDPF quaternion0 0.696975 -0.375157 0.047381 -0.609293
DOCKED: USER    NEWDPF axisangle0 0.878970 -0.473119 0.059753 -104.923258
DOCKED: USER    NEWDPF quat0 0.878970 -0.473119 0.059753 -104.923258
DOCKED: USER    NEWDPF dihe0 59.85 40.14 -96.95 -124.21 -98.13 157.24 
DOCKED: USER  keepresnum = 1 
DOCKED: USER  
DOCKED: REMARK  Name = 
DOCKED: REMARK  6 active torsions:
DOCKED: REMARK  status: ('A' for Active; 'I' for Inactive)
DOCKED: REMARK    1  A    between atoms: S_2  and  N_3
DOCKED: REMARK    2  A    between atoms: S_2  and  C_10
DOCKED: REMARK    3  A    between atoms: N_3  and  C_4
DOCKED: REMARK    4  A    between atoms: C_12  and  C_13
DOCKED: REMARK    5  A    between atoms: C_14  and  C_15
DOCKED: REMARK    6  A    between atoms: N_16  and  O_17
DOCKED: REMARK                            x       y       z     vdW  Elec       q    Type
DOCKED: REMARK                         _______ _______ _______ _____ _____    ______ ____
DOCKED: USER                              x       y       z     vdW  Elec       q    Type
DOCKED: USER                           _______ _______ _______ _____ _____    ______ ____
DOCKED: ROOT
DOCKED: ATOM      1  C   UNL     1      36.061  15.289 123.471 -0.41 -0.00    +0.000 A 
DOCKED: ATOM      2  C   UNL     1      36.167  13.892 123.473 -0.50 -0.00    +0.000 A 
DOCKED: ATOM      3  C   UNL     1      37.376  13.264 123.126 -0.51 -0.00    +0.000 A 
DOCKED: ATOM      4  C   UNL     1      38.477  14.064 122.759 -0.40 -0.00    +0.000 A 
DOCKED: ATOM      5  C   UNL     1      38.371  15.457 122.765 -0.31 -0.00    +0.000 A 
DOCKED: ATOM      6  C   UNL     1      37.169  16.070 123.125 -0.28 -0.00    +0.000 A 
DOCKED: ATOM      7  CM  UNL     1      37.271  14.673 123.120 +0.00 -0.00    +0.000 AC
DOCKED: ENDROOT
DOCKED: BRANCH   1   8
DOCKED: ATOM      8  O   UNL     1      33.509  15.022 124.279 -0.56 -0.00    +0.000 OA
DOCKED: ATOM      9  S   UNL     1      34.533  16.055 123.900 -0.68 -0.00    +0.000 S 
DOCKED: ATOM     10  O   UNL     1      34.033  16.830 122.715 -0.48 -0.00    +0.000 OA
DOCKED: BRANCH   8  10
DOCKED: ATOM     11  N   UNL     1      34.763  17.140 125.237 -0.37 -0.00    +0.000 N 
DOCKED: ATOM     12  H   UNL     1      35.646  17.562 125.342 -0.01 -0.00    +0.000 HD
DOCKED: BRANCH  10  12
DOCKED: ATOM     13  C   UNL     1      33.741  17.457 126.198 -0.35 -0.00    +0.000 A 
DOCKED: ATOM     14  C   UNL     1      33.110  18.716 126.230 -0.26 -0.00    +0.000 A 
DOCKED: ATOM     15  C   UNL     1      32.114  18.984 127.174 -0.20 -0.00    +0.000 A 
DOCKED: ATOM     16  C   UNL     1      31.740  18.004 128.097 -0.25 -0.00    +0.000 A 
DOCKED: ATOM     17  C   UNL     1      32.364  16.756 128.080 -0.40 -0.00    +0.000 A 
DOCKED: ATOM     18  C   UNL     1      33.360  16.482 127.137 -0.37 -0.00    +0.000 A 
DOCKED: ATOM     19  CM  UNL     1      32.738  17.733 127.152 +0.00 -0.00    +0.000 AC
DOCKED: ENDBRANCH  10  12
DOCKED: ENDBRANCH   8  10
DOCKED: ENDBRANCH   1   8
DOCKED: BRANCH   3  18
DOCKED: ATOM     20  C   UNL     1      37.428  11.781 123.123 -0.46 -0.00    +0.000 C 
DOCKED: ATOM     21  C   UNL     1      36.906  11.021 122.148 -0.59 -0.00    +0.000 C 
DOCKED: BRANCH  19  20
DOCKED: ATOM     22  C   UNL     1      36.960   9.544 122.150 -0.64 -0.00    +0.000 C 
DOCKED: ATOM     23  N   UNL     1      37.145   8.783 123.351 -0.62 -0.00    +0.000 N 
DOCKED: ATOM     24  O   UNL     1      36.867   8.939 121.048 -2.66 -0.00    +0.000 OA
DOCKED: ATOM     25  H   UNL     1      37.334   9.244 124.200 -0.61 -0.00    +0.000 HD
DOCKED: BRANCH  21  24
DOCKED: ATOM     26  O   UNL     1      37.060   7.431 123.321 -2.17 -0.00    +0.000 OA
DOCKED: ATOM     27  H   UNL     1      37.729   7.078 122.714 -0.43 -0.00    +0.000 HD
DOCKED: ENDBRANCH  21  24
DOCKED: ENDBRANCH  19  20
DOCKED: ENDBRANCH   3  18
DOCKED: TORSDOF 6DOCKED: TER
DOCKED: ENDMDL
________________________________________________________________________________


	BEGINNING GENETIC ALGORITHM DOCKING 60 of 100
Run: 60 Seed: 999403801 1981653901 [ Run 60 of 100 GA/GALS ]
Beginning LAMARCKIAN GENETIC ALGORITHM (LGA), with a maximum of 2500000 energy evaluations.

Final-Value: -14.479


	FINAL GENETIC ALGORITHM DOCKED STATE
	_______________________________________________


Detailed state:  trans 38.071 13.750 122.149 quatxyzw 0.249790 -0.743063 0.546047 0.295457 center 0.320 0.169 0.303 ntor 6 5.1453 148.3790 -179.6854 -0.5008 113.6848 -60.4810
State:	 38.071  13.750 122.149   0.261 -0.778  0.572 145.630      5.15  148.38 -179.69   -0.50  113.68  -60.48

DOCKED: MODEL       60
DOCKED: USER    Run = 60
DOCKED: USER    DPF = ligand_dock.biased.dpf
DOCKED: USER  
DOCKED: USER    Estimated Free Energy of Binding    =  -11.04 kcal/mol  [=(1)+(2)+(3)-(4)]
DOCKED: USER    Estimated Inhibition Constant, Ki   =    8.10 nM (nanomolar)  [Temperature = 298.15 K]
DOCKED: USER    
DOCKED: USER    (1) Final Intermolecular Energy     =  -12.83 kcal/mol
DOCKED: USER        vdW + Hbond + desolv Energy     =  -12.83 kcal/mol
DOCKED: USER        Electrostatic Energy            =   +0.00 kcal/mol
DOCKED: USER    (2) Final Total Internal Energy     =   -1.65 kcal/mol
DOCKED: USER    (3) Torsional Free Energy           =   +1.79 kcal/mol
DOCKED: USER    (4) Unbound System's Energy  [=(2)] =   -1.65 kcal/mol
DOCKED: USER    
DOCKED: USER    
DOCKED: USER    NEWDPF move ligand.dum.pdbqt
DOCKED: USER    NEWDPF about 0.320000 0.169000 0.303000
DOCKED: USER    NEWDPF tran0 38.070518 13.749930 122.148882
DOCKED: USER    NEWDPF quaternion0 0.249790 -0.743063 0.546047 0.295457
DOCKED: USER    NEWDPF axisangle0 0.261463 -0.777787 0.571564 145.630106
DOCKED: USER    NEWDPF quat0 0.261463 -0.777787 0.571564 145.630106
DOCKED: USER    NEWDPF dihe0 5.15 148.38 -179.69 -0.50 113.68 -60.48 
DOCKED: USER  keepresnum = 1 
DOCKED: USER  
DOCKED: REMARK  Name = 
DOCKED: REMARK  6 active torsions:
DOCKED: REMARK  status: ('A' for Active; 'I' for Inactive)
DOCKED: REMARK    1  A    between atoms: S_2  and  N_3
DOCKED: REMARK    2  A    between atoms: S_2  and  C_10
DOCKED: REMARK    3  A    between atoms: N_3  and  C_4
DOCKED: REMARK    4  A    between atoms: C_12  and  C_13
DOCKED: REMARK    5  A    between atoms: C_14  and  C_15
DOCKED: REMARK    6  A    between atoms: N_16  and  O_17
DOCKED: REMARK                            x       y       z     vdW  Elec       q    Type
DOCKED: REMARK                         _______ _______ _______ _____ _____    ______ ____
DOCKED: USER                              x       y       z     vdW  Elec       q    Type
DOCKED: USER                           _______ _______ _______ _____ _____    ______ ____
DOCKED: ROOT
DOCKED: ATOM      1  C   UNL     1      36.758  15.697 122.294 -0.27 -0.00    +0.000 A 
DOCKED: ATOM      2  C   UNL     1      37.104  14.374 121.989 -0.34 -0.00    +0.000 A 
DOCKED: ATOM      3  C   UNL     1      36.591  13.306 122.746 -0.48 -0.00    +0.000 A 
DOCKED: ATOM      4  C   UNL     1      35.736  13.590 123.830 -0.47 -0.00    +0.000 A 
DOCKED: ATOM      5  C   UNL     1      35.387  14.910 124.128 -0.48 -0.00    +0.000 A 
DOCKED: ATOM      6  C   UNL     1      35.891  15.961 123.360 -0.37 -0.00    +0.000 A 
DOCKED: ATOM      7  CM  UNL     1      36.244  14.640 123.058 +0.00 -0.00    +0.000 AC
DOCKED: ENDROOT
DOCKED: BRANCH   1   8
DOCKED: ATOM      8  O   UNL     1      36.408  18.122 121.184 -0.16 -0.00    +0.000 OA
DOCKED: ATOM      9  S   UNL     1      37.420  17.021 121.338 -0.19 -0.00    +0.000 S 
DOCKED: ATOM     10  O   UNL     1      37.786  16.499 119.978 -0.13 -0.00    +0.000 OA
DOCKED: BRANCH   8  10
DOCKED: ATOM     11  N   UNL     1      38.840  17.661 122.105 -0.11 -0.00    +0.000 N 
DOCKED: ATOM     12  H   UNL     1      38.831  18.607 122.379 +0.00 -0.00    +0.000 HD
DOCKED: BRANCH  10  12
DOCKED: ATOM     13  C   UNL     1      40.028  16.892 122.365 -0.20 -0.00    +0.000 A 
DOCKED: ATOM     14  C   UNL     1      41.233  17.494 122.779 -0.23 -0.00    +0.000 A 
DOCKED: ATOM     15  C   UNL     1      42.365  16.713 123.031 -0.38 -0.00    +0.000 A 
DOCKED: ATOM     16  C   UNL     1      42.309  15.327 122.868 -0.38 +0.00    +0.000 A 
DOCKED: ATOM     17  C   UNL     1      41.123  14.719 122.451 -0.44 -0.00    +0.000 A 
DOCKED: ATOM     18  C   UNL     1      39.988  15.497 122.200 -0.33 -0.00    +0.000 A 
DOCKED: ATOM     19  CM  UNL     1      41.174  16.107 122.616 +0.00 -0.00    +0.000 AC
DOCKED: ENDBRANCH  10  12
DOCKED: ENDBRANCH   8  10
DOCKED: ENDBRANCH   1   8
DOCKED: BRANCH   3  18
DOCKED: ATOM     20  C   UNL     1      37.007  11.925 122.395 -0.61 -0.00    +0.000 C 
DOCKED: ATOM     21  C   UNL     1      36.319  10.829 122.747 -0.69 -0.00    +0.000 C 
DOCKED: BRANCH  19  20
DOCKED: ATOM     22  C   UNL     1      36.737   9.456 122.395 -0.71 -0.00    +0.000 C 
DOCKED: ATOM     23  N   UNL     1      36.816   8.404 123.365 -0.69 -0.00    +0.000 N 
DOCKED: ATOM     24  O   UNL     1      37.062   9.216 121.201 -2.74 -0.00    +0.000 OA
DOCKED: ATOM     25  H   UNL     1      36.677   8.604 124.319 -0.38 -0.00    +0.000 HD
DOCKED: BRANCH  21  24
DOCKED: ATOM     26  O   UNL     1      37.080   7.134 122.973 -1.89 -0.00    +0.000 OA
DOCKED: ATOM     27  H   UNL     1      37.269   7.122 122.022 -0.15 -0.00    +0.000 HD
DOCKED: ENDBRANCH  21  24
DOCKED: ENDBRANCH  19  20
DOCKED: ENDBRANCH   3  18
DOCKED: TORSDOF 6DOCKED: TER
DOCKED: ENDMDL
________________________________________________________________________________


	BEGINNING GENETIC ALGORITHM DOCKING 61 of 100
Run: 61 Seed: 374948399 1963152023 [ Run 61 of 100 GA/GALS ]
Beginning LAMARCKIAN GENETIC ALGORITHM (LGA), with a maximum of 2500000 energy evaluations.

Final-Value: -15.210


	FINAL GENETIC ALGORITHM DOCKED STATE
	_______________________________________________


Detailed state:  trans 38.374 12.623 123.492 quatxyzw 0.031134 0.640945 -0.695244 -0.323814 center 0.320 0.169 0.303 ntor 6 17.3963 -17.1298 143.7538 116.4624 29.0302 136.1423
State:	 38.374  12.623 123.492   0.033  0.677 -0.735 -142.212     17.40  -17.13  143.75  116.46   29.03  136.14

DOCKED: MODEL       61
DOCKED: USER    Run = 61
DOCKED: USER    DPF = ligand_dock.biased.dpf
DOCKED: USER  
DOCKED: USER    Estimated Free Energy of Binding    =  -11.49 kcal/mol  [=(1)+(2)+(3)-(4)]
DOCKED: USER    Estimated Inhibition Constant, Ki   =    3.78 nM (nanomolar)  [Temperature = 298.15 K]
DOCKED: USER    
DOCKED: USER    (1) Final Intermolecular Energy     =  -13.28 kcal/mol
DOCKED: USER        vdW + Hbond + desolv Energy     =  -13.28 kcal/mol
DOCKED: USER        Electrostatic Energy            =   +0.00 kcal/mol
DOCKED: USER    (2) Final Total Internal Energy     =   -1.93 kcal/mol
DOCKED: USER    (3) Torsional Free Energy           =   +1.79 kcal/mol
DOCKED: USER    (4) Unbound System's Energy  [=(2)] =   -1.93 kcal/mol
DOCKED: USER    
DOCKED: USER    
DOCKED: USER    NEWDPF move ligand.dum.pdbqt
DOCKED: USER    NEWDPF about 0.320000 0.169000 0.303000
DOCKED: USER    NEWDPF tran0 38.373594 12.622787 123.492129
DOCKED: USER    NEWDPF quaternion0 0.031134 0.640945 -0.695244 -0.323814
DOCKED: USER    NEWDPF axisangle0 0.032907 0.677445 -0.734837 -142.212471
DOCKED: USER    NEWDPF quat0 0.032907 0.677445 -0.734837 -142.212471
DOCKED: USER    NEWDPF dihe0 17.40 -17.13 143.75 116.46 29.03 136.14 
DOCKED: USER  keepresnum = 1 
DOCKED: USER  
DOCKED: REMARK  Name = 
DOCKED: REMARK  6 active torsions:
DOCKED: REMARK  status: ('A' for Active; 'I' for Inactive)
DOCKED: REMARK    1  A    between atoms: S_2  and  N_3
DOCKED: REMARK    2  A    between atoms: S_2  and  C_10
DOCKED: REMARK    3  A    between atoms: N_3  and  C_4
DOCKED: REMARK    4  A    between atoms: C_12  and  C_13
DOCKED: REMARK    5  A    between atoms: C_14  and  C_15
DOCKED: REMARK    6  A    between atoms: N_16  and  O_17
DOCKED: REMARK                            x       y       z     vdW  Elec       q    Type
DOCKED: REMARK                         _______ _______ _______ _____ _____    ______ ____
DOCKED: USER                              x       y       z     vdW  Elec       q    Type
DOCKED: USER                           _______ _______ _______ _____ _____    ______ ____
DOCKED: ROOT
DOCKED: ATOM      1  C   UNL     1      38.122  14.884 122.895 -0.36 -0.00    +0.000 A 
DOCKED: ATOM      2  C   UNL     1      37.947  13.495 122.854 -0.43 -0.00    +0.000 A 
DOCKED: ATOM      3  C   UNL     1      36.753  12.908 123.308 -0.56 -0.00    +0.000 A 
DOCKED: ATOM      4  C   UNL     1      35.739  13.741 123.822 -0.48 -0.00    +0.000 A 
DOCKED: ATOM      5  C   UNL     1      35.912  15.128 123.855 -0.44 -0.00    +0.000 A 
DOCKED: ATOM      6  C   UNL     1      37.097  15.700 123.389 -0.32 -0.00    +0.000 A 
DOCKED: ATOM      7  CM  UNL     1      36.928  14.309 123.354 +0.00 -0.00    +0.000 AC
DOCKED: ENDROOT
DOCKED: BRANCH   1   8
DOCKED: ATOM      8  O   UNL     1      40.724  14.566 122.290 -1.02 -0.00    +0.000 OA
DOCKED: ATOM      9  S   UNL     1      39.631  15.598 122.330 -0.44 -0.00    +0.000 S 
DOCKED: ATOM     10  O   UNL     1      40.028  16.697 123.272 -0.32 -0.00    +0.000 OA
DOCKED: BRANCH   8  10
DOCKED: ATOM     11  N   UNL     1      39.420  16.259 120.737 -0.15 -0.00    +0.000 N 
DOCKED: ATOM     12  H   UNL     1      40.029  16.977 120.451 +0.00 -0.00    +0.000 HD
DOCKED: BRANCH  10  12
DOCKED: ATOM     13  C   UNL     1      38.407  15.821 119.814 -0.15 -0.00    +0.000 A 
DOCKED: ATOM     14  C   UNL     1      37.588  16.730 119.116 -0.10 -0.00    +0.000 A 
DOCKED: ATOM     15  C   UNL     1      36.621  16.266 118.219 -0.14 -0.00    +0.000 A 
DOCKED: ATOM     16  C   UNL     1      36.456  14.895 118.013 -0.25 -0.00    +0.000 A 
DOCKED: ATOM     17  C   UNL     1      37.256  13.984 118.705 -0.33 -0.00    +0.000 A 
DOCKED: ATOM     18  C   UNL     1      38.226  14.443 119.602 -0.23 -0.00    +0.000 A 
DOCKED: ATOM     19  CM  UNL     1      37.426  15.357 118.911 +0.00 -0.00    +0.000 AC
DOCKED: ENDBRANCH  10  12
DOCKED: ENDBRANCH   8  10
DOCKED: ENDBRANCH   1   8
DOCKED: BRANCH   3  18
DOCKED: ATOM     20  C   UNL     1      36.629  11.430 123.263 -0.70 -0.00    +0.000 C 
DOCKED: ATOM     21  C   UNL     1      37.039  10.680 122.228 -0.56 -0.00    +0.000 C 
DOCKED: BRANCH  19  20
DOCKED: ATOM     22  C   UNL     1      36.913   9.209 122.189 -0.68 -0.00    +0.000 C 
DOCKED: ATOM     23  N   UNL     1      37.063   8.393 123.358 -0.70 -0.00    +0.000 N 
DOCKED: ATOM     24  O   UNL     1      36.693   8.655 121.078 -2.44 -0.00    +0.000 OA
DOCKED: ATOM     25  H   UNL     1      37.348   8.800 124.208 -0.57 -0.00    +0.000 HD
DOCKED: BRANCH  21  24
DOCKED: ATOM     26  O   UNL     1      36.812   7.062 123.297 -1.78 -0.00    +0.000 OA
DOCKED: ATOM     27  H   UNL     1      36.815   6.775 122.371 -0.12 -0.00    +0.000 HD
DOCKED: ENDBRANCH  21  24
DOCKED: ENDBRANCH  19  20
DOCKED: ENDBRANCH   3  18
DOCKED: TORSDOF 6DOCKED: TER
DOCKED: ENDMDL
________________________________________________________________________________


	BEGINNING GENETIC ALGORITHM DOCKING 62 of 100
Run: 62 Seed: 1808016032 431437810 [ Run 62 of 100 GA/GALS ]
Beginning LAMARCKIAN GENETIC ALGORITHM (LGA), with a maximum of 2500000 energy evaluations.

Final-Value: -14.763


	FINAL GENETIC ALGORITHM DOCKED STATE
	_______________________________________________


Detailed state:  trans 38.031 13.224 122.397 quatxyzw 0.215188 -0.666283 0.677935 0.223976 center 0.320 0.169 0.303 ntor 6 34.6019 16.5978 153.0496 121.0590 139.4706 52.2518
State:	 38.031  13.224 122.397   0.221 -0.684  0.696 154.115     34.60   16.60  153.05  121.06  139.47   52.25

DOCKED: MODEL       62
DOCKED: USER    Run = 62
DOCKED: USER    DPF = ligand_dock.biased.dpf
DOCKED: USER  
DOCKED: USER    Estimated Free Energy of Binding    =  -11.34 kcal/mol  [=(1)+(2)+(3)-(4)]
DOCKED: USER    Estimated Inhibition Constant, Ki   =    4.86 nM (nanomolar)  [Temperature = 298.15 K]
DOCKED: USER    
DOCKED: USER    (1) Final Intermolecular Energy     =  -13.13 kcal/mol
DOCKED: USER        vdW + Hbond + desolv Energy     =  -13.13 kcal/mol
DOCKED: USER        Electrostatic Energy            =   +0.00 kcal/mol
DOCKED: USER    (2) Final Total Internal Energy     =   -1.63 kcal/mol
DOCKED: USER    (3) Torsional Free Energy           =   +1.79 kcal/mol
DOCKED: USER    (4) Unbound System's Energy  [=(2)] =   -1.63 kcal/mol
DOCKED: USER    
DOCKED: USER    
DOCKED: USER    NEWDPF move ligand.dum.pdbqt
DOCKED: USER    NEWDPF about 0.320000 0.169000 0.303000
DOCKED: USER    NEWDPF tran0 38.031150 13.223830 122.397017
DOCKED: USER    NEWDPF quaternion0 0.215188 -0.666283 0.677935 0.223976
DOCKED: USER    NEWDPF axisangle0 0.220797 -0.683651 0.695607 154.114711
DOCKED: USER    NEWDPF quat0 0.220797 -0.683651 0.695607 154.114711
DOCKED: USER    NEWDPF dihe0 34.60 16.60 153.05 121.06 139.47 52.25 
DOCKED: USER  keepresnum = 1 
DOCKED: USER  
DOCKED: REMARK  Name = 
DOCKED: REMARK  6 active torsions:
DOCKED: REMARK  status: ('A' for Active; 'I' for Inactive)
DOCKED: REMARK    1  A    between atoms: S_2  and  N_3
DOCKED: REMARK    2  A    between atoms: S_2  and  C_10
DOCKED: REMARK    3  A    between atoms: N_3  and  C_4
DOCKED: REMARK    4  A    between atoms: C_12  and  C_13
DOCKED: REMARK    5  A    between atoms: C_14  and  C_15
DOCKED: REMARK    6  A    between atoms: N_16  and  O_17
DOCKED: REMARK                            x       y       z     vdW  Elec       q    Type
DOCKED: REMARK                         _______ _______ _______ _____ _____    ______ ____
DOCKED: USER                              x       y       z     vdW  Elec       q    Type
DOCKED: USER                           _______ _______ _______ _____ _____    ______ ____
DOCKED: ROOT
DOCKED: ATOM      1  C   UNL     1      37.073  15.311 121.888 -0.27 -0.00    +0.000 A 
DOCKED: ATOM      2  C   UNL     1      37.190  13.920 122.000 -0.39 -0.00    +0.000 A 
DOCKED: ATOM      3  C   UNL     1      36.488  13.218 122.996 -0.51 -0.00    +0.000 A 
DOCKED: ATOM      4  C   UNL     1      35.675  13.942 123.893 -0.46 -0.00    +0.000 A 
DOCKED: ATOM      5  C   UNL     1      35.555  15.330 123.775 -0.45 -0.00    +0.000 A 
DOCKED: ATOM      6  C   UNL     1      36.246  16.013 122.773 -0.30 -0.00    +0.000 A 
DOCKED: ATOM      7  CM  UNL     1      36.371  14.622 122.888 +0.00 -0.00    +0.000 AC
DOCKED: ENDROOT
DOCKED: BRANCH   1   8
DOCKED: ATOM      8  O   UNL     1      39.171  16.858 121.225 -0.13 -0.00    +0.000 OA
DOCKED: ATOM      9  S   UNL     1      37.970  16.171 120.639 -0.22 -0.00    +0.000 S 
DOCKED: ATOM     10  O   UNL     1      37.069  17.201 120.020 -0.12 -0.00    +0.000 OA
DOCKED: BRANCH   8  10
DOCKED: ATOM     11  N   UNL     1      38.497  15.062 119.411 -0.20 -0.00    +0.000 N 
DOCKED: ATOM     12  H   UNL     1      39.398  14.674 119.495 -0.08 -0.00    +0.000 HD
DOCKED: BRANCH  10  12
DOCKED: ATOM     13  C   UNL     1      37.696  14.677 118.279 -0.24 -0.00    +0.000 A 
DOCKED: ATOM     14  C   UNL     1      38.254  14.487 116.999 -0.24 -0.00    +0.000 A 
DOCKED: ATOM     15  C   UNL     1      37.445  14.104 115.925 -0.32 -0.00    +0.000 A 
DOCKED: ATOM     16  C   UNL     1      36.074  13.911 116.114 -0.29 -0.00    +0.000 A 
DOCKED: ATOM     17  C   UNL     1      35.510  14.104 117.376 -0.33 -0.00    +0.000 A 
DOCKED: ATOM     18  C   UNL     1      36.315  14.485 118.453 -0.27 -0.00    +0.000 A 
DOCKED: ATOM     19  CM  UNL     1      36.883  14.294 117.191 +0.00 -0.00    +0.000 AC
DOCKED: ENDBRANCH  10  12
DOCKED: ENDBRANCH   8  10
DOCKED: ENDBRANCH   1   8
DOCKED: BRANCH   3  18
DOCKED: ATOM     20  C   UNL     1      36.664  11.748 123.084 -0.69 -0.00    +0.000 C 
DOCKED: ATOM     21  C   UNL     1      36.787  10.948 122.014 -0.61 -0.00    +0.000 C 
DOCKED: BRANCH  19  20
DOCKED: ATOM     22  C   UNL     1      36.963   9.484 122.108 -0.64 -0.00    +0.000 C 
DOCKED: ATOM     23  N   UNL     1      37.052   8.799 123.364 -0.64 -0.00    +0.000 N 
DOCKED: ATOM     24  O   UNL     1      37.066   8.823 121.039 -2.68 -0.00    +0.000 OA
DOCKED: ATOM     25  H   UNL     1      37.089   9.314 124.202 -0.58 -0.00    +0.000 HD
DOCKED: BRANCH  21  24
DOCKED: ATOM     26  O   UNL     1      37.084   7.445 123.402 -2.16 -0.00    +0.000 OA
DOCKED: ATOM     27  H   UNL     1      37.566   7.112 122.629 -0.30 -0.00    +0.000 HD
DOCKED: ENDBRANCH  21  24
DOCKED: ENDBRANCH  19  20
DOCKED: ENDBRANCH   3  18
DOCKED: TORSDOF 6DOCKED: TER
DOCKED: ENDMDL
________________________________________________________________________________


	BEGINNING GENETIC ALGORITHM DOCKING 63 of 100
Run: 63 Seed: 162134656 1887935629 [ Run 63 of 100 GA/GALS ]
Beginning LAMARCKIAN GENETIC ALGORITHM (LGA), with a maximum of 2500000 energy evaluations.

Final-Value: -15.706


	FINAL GENETIC ALGORITHM DOCKED STATE
	_______________________________________________


Detailed state:  trans 35.711 13.080 122.747 quatxyzw -0.687451 0.344275 -0.033662 0.638555 center 0.320 0.169 0.303 ntor 6 24.9883 41.9921 74.1831 -116.2575 -96.1762 151.6540
State:	 35.711  13.080 122.747  -0.893  0.447 -0.044 100.632     24.99   41.99   74.18 -116.26  -96.18  151.65

DOCKED: MODEL       63
DOCKED: USER    Run = 63
DOCKED: USER    DPF = ligand_dock.biased.dpf
DOCKED: USER  
DOCKED: USER    Estimated Free Energy of Binding    =  -12.50 kcal/mol  [=(1)+(2)+(3)-(4)]
DOCKED: USER    Estimated Inhibition Constant, Ki   =  683.50 pM (picomolar)  [Temperature = 298.15 K]
DOCKED: USER    
DOCKED: USER    (1) Final Intermolecular Energy     =  -14.29 kcal/mol
DOCKED: USER        vdW + Hbond + desolv Energy     =  -14.29 kcal/mol
DOCKED: USER        Electrostatic Energy            =   +0.00 kcal/mol
DOCKED: USER    (2) Final Total Internal Energy     =   -1.41 kcal/mol
DOCKED: USER    (3) Torsional Free Energy           =   +1.79 kcal/mol
DOCKED: USER    (4) Unbound System's Energy  [=(2)] =   -1.41 kcal/mol
DOCKED: USER    
DOCKED: USER    
DOCKED: USER    NEWDPF move ligand.dum.pdbqt
DOCKED: USER    NEWDPF about 0.320000 0.169000 0.303000
DOCKED: USER    NEWDPF tran0 35.711094 13.079896 122.746999
DOCKED: USER    NEWDPF quaternion0 -0.687451 0.344275 -0.033662 0.638555
DOCKED: USER    NEWDPF axisangle0 -0.893285 0.447357 -0.043741 100.631631
DOCKED: USER    NEWDPF quat0 -0.893285 0.447357 -0.043741 100.631631
DOCKED: USER    NEWDPF dihe0 24.99 41.99 74.18 -116.26 -96.18 151.65 
DOCKED: USER  keepresnum = 1 
DOCKED: USER  
DOCKED: REMARK  Name = 
DOCKED: REMARK  6 active torsions:
DOCKED: REMARK  status: ('A' for Active; 'I' for Inactive)
DOCKED: REMARK    1  A    between atoms: S_2  and  N_3
DOCKED: REMARK    2  A    between atoms: S_2  and  C_10
DOCKED: REMARK    3  A    between atoms: N_3  and  C_4
DOCKED: REMARK    4  A    between atoms: C_12  and  C_13
DOCKED: REMARK    5  A    between atoms: C_14  and  C_15
DOCKED: REMARK    6  A    between atoms: N_16  and  O_17
DOCKED: REMARK                            x       y       z     vdW  Elec       q    Type
DOCKED: REMARK                         _______ _______ _______ _____ _____    ______ ____
DOCKED: USER                              x       y       z     vdW  Elec       q    Type
DOCKED: USER                           _______ _______ _______ _____ _____    ______ ____
DOCKED: ROOT
DOCKED: ATOM      1  C   UNL     1      36.012  15.337 123.337 -0.40 -0.00    +0.000 A 
DOCKED: ATOM      2  C   UNL     1      36.143  13.944 123.393 -0.48 -0.00    +0.000 A 
DOCKED: ATOM      3  C   UNL     1      37.333  13.318 122.981 -0.50 -0.00    +0.000 A 
DOCKED: ATOM      4  C   UNL     1      38.388  14.117 122.494 -0.41 -0.00    +0.000 A 
DOCKED: ATOM      5  C   UNL     1      38.257  15.507 122.446 -0.29 -0.00    +0.000 A 
DOCKED: ATOM      6  C   UNL     1      37.076  16.118 122.871 -0.27 -0.00    +0.000 A 
DOCKED: ATOM      7  CM  UNL     1      37.202  14.723 122.921 +0.00 -0.00    +0.000 AC
DOCKED: ENDROOT
DOCKED: BRANCH   1   8
DOCKED: ATOM      8  O   UNL     1      33.487  15.062 124.224 -0.58 -0.00    +0.000 OA
DOCKED: ATOM      9  S   UNL     1      34.508  16.100 123.849 -0.68 -0.00    +0.000 S 
DOCKED: ATOM     10  O   UNL     1      33.975  16.925 122.714 -0.47 -0.00    +0.000 OA
DOCKED: BRANCH   8  10
DOCKED: ATOM     11  N   UNL     1      34.796  17.129 125.218 -0.37 -0.00    +0.000 N 
DOCKED: ATOM     12  H   UNL     1      35.677  17.563 125.293 -0.01 -0.00    +0.000 HD
DOCKED: BRANCH  10  12
DOCKED: ATOM     13  C   UNL     1      33.825  17.386 126.249 -0.35 -0.00    +0.000 A 
DOCKED: ATOM     14  C   UNL     1      33.329  16.362 127.079 -0.36 -0.00    +0.000 A 
DOCKED: ATOM     15  C   UNL     1      32.392  16.651 128.076 -0.40 -0.00    +0.000 A 
DOCKED: ATOM     16  C   UNL     1      31.937  17.960 128.252 -0.26 -0.00    +0.000 A 
DOCKED: ATOM     17  C   UNL     1      32.416  18.982 127.430 -0.21 -0.00    +0.000 A 
DOCKED: ATOM     18  C   UNL     1      33.355  18.697 126.433 -0.28 -0.00    +0.000 A 
DOCKED: ATOM     19  CM  UNL     1      32.876  17.673 127.253 +0.00 -0.00    +0.000 AC
DOCKED: ENDBRANCH  10  12
DOCKED: ENDBRANCH   8  10
DOCKED: ENDBRANCH   1   8
DOCKED: BRANCH   3  18
DOCKED: ATOM     20  C   UNL     1      37.411  11.837 123.039 -0.48 -0.00    +0.000 C 
DOCKED: ATOM     21  C   UNL     1      36.964  11.030 122.066 -0.57 -0.00    +0.000 C 
DOCKED: BRANCH  19  20
DOCKED: ATOM     22  C   UNL     1      37.044   9.556 122.129 -0.62 -0.00    +0.000 C 
DOCKED: ATOM     23  N   UNL     1      37.130   8.843 123.370 -0.61 -0.00    +0.000 N 
DOCKED: ATOM     24  O   UNL     1      37.065   8.909 121.047 -2.71 -0.00    +0.000 OA
DOCKED: ATOM     25  H   UNL     1      37.230   9.339 124.215 -0.60 -0.00    +0.000 HD
DOCKED: BRANCH  21  24
DOCKED: ATOM     26  O   UNL     1      37.071   7.489 123.384 -2.19 -0.00    +0.000 OA
DOCKED: ATOM     27  H   UNL     1      37.364   7.145 122.526 -0.19 -0.00    +0.000 HD
DOCKED: ENDBRANCH  21  24
DOCKED: ENDBRANCH  19  20
DOCKED: ENDBRANCH   3  18
DOCKED: TORSDOF 6DOCKED: TER
DOCKED: ENDMDL
________________________________________________________________________________


	BEGINNING GENETIC ALGORITHM DOCKING 64 of 100
Run: 64 Seed: 814133904 171832299 [ Run 64 of 100 GA/GALS ]
Beginning LAMARCKIAN GENETIC ALGORITHM (LGA), with a maximum of 2500000 energy evaluations.

Final-Value: -14.794


	FINAL GENETIC ALGORITHM DOCKED STATE
	_______________________________________________


Detailed state:  trans 37.667 13.110 122.292 quatxyzw -0.261977 0.699611 -0.644964 -0.161042 center 0.320 0.169 0.303 ntor 6 15.0440 -0.3660 167.0006 147.9781 118.3067 -76.4391
State:	 37.667  13.110 122.292  -0.265  0.709 -0.653 -161.465     15.04   -0.37  167.00  147.98  118.31  -76.44

DOCKED: MODEL       64
DOCKED: USER    Run = 64
DOCKED: USER    DPF = ligand_dock.biased.dpf
DOCKED: USER  
DOCKED: USER    Estimated Free Energy of Binding    =  -11.23 kcal/mol  [=(1)+(2)+(3)-(4)]
DOCKED: USER    Estimated Inhibition Constant, Ki   =    5.82 nM (nanomolar)  [Temperature = 298.15 K]
DOCKED: USER    
DOCKED: USER    (1) Final Intermolecular Energy     =  -13.02 kcal/mol
DOCKED: USER        vdW + Hbond + desolv Energy     =  -13.02 kcal/mol
DOCKED: USER        Electrostatic Energy            =   +0.00 kcal/mol
DOCKED: USER    (2) Final Total Internal Energy     =   -1.77 kcal/mol
DOCKED: USER    (3) Torsional Free Energy           =   +1.79 kcal/mol
DOCKED: USER    (4) Unbound System's Energy  [=(2)] =   -1.77 kcal/mol
DOCKED: USER    
DOCKED: USER    
DOCKED: USER    NEWDPF move ligand.dum.pdbqt
DOCKED: USER    NEWDPF about 0.320000 0.169000 0.303000
DOCKED: USER    NEWDPF tran0 37.667122 13.109959 122.292280
DOCKED: USER    NEWDPF quaternion0 -0.261977 0.699611 -0.644964 -0.161042
DOCKED: USER    NEWDPF axisangle0 -0.265441 0.708863 -0.653494 -161.465234
DOCKED: USER    NEWDPF quat0 -0.265441 0.708863 -0.653494 -161.465234
DOCKED: USER    NEWDPF dihe0 15.04 -0.37 167.00 147.98 118.31 -76.44 
DOCKED: USER  keepresnum = 1 
DOCKED: USER  
DOCKED: REMARK  Name = 
DOCKED: REMARK  6 active torsions:
DOCKED: REMARK  status: ('A' for Active; 'I' for Inactive)
DOCKED: REMARK    1  A    between atoms: S_2  and  N_3
DOCKED: REMARK    2  A    between atoms: S_2  and  C_10
DOCKED: REMARK    3  A    between atoms: N_3  and  C_4
DOCKED: REMARK    4  A    between atoms: C_12  and  C_13
DOCKED: REMARK    5  A    between atoms: C_14  and  C_15
DOCKED: REMARK    6  A    between atoms: N_16  and  O_17
DOCKED: REMARK                            x       y       z     vdW  Elec       q    Type
DOCKED: REMARK                         _______ _______ _______ _____ _____    ______ ____
DOCKED: USER                              x       y       z     vdW  Elec       q    Type
DOCKED: USER                           _______ _______ _______ _____ _____    ______ ____
DOCKED: ROOT
DOCKED: ATOM      1  C   UNL     1      36.690  15.235 122.042 -0.25 -0.00    +0.000 A 
DOCKED: ATOM      2  C   UNL     1      36.788  13.838 122.078 -0.33 -0.00    +0.000 A 
DOCKED: ATOM      3  C   UNL     1      36.253  13.108 123.153 -0.52 -0.00    +0.000 A 
DOCKED: ATOM      4  C   UNL     1      35.630  13.808 124.207 -0.30 -0.00    +0.000 A 
DOCKED: ATOM      5  C   UNL     1      35.526  15.201 124.165 -0.46 -0.00    +0.000 A 
DOCKED: ATOM      6  C   UNL     1      36.049  15.914 123.085 -0.34 -0.00    +0.000 A 
DOCKED: ATOM      7  CM  UNL     1      36.155  14.517 123.122 +0.00 -0.00    +0.000 AC
DOCKED: ENDROOT
DOCKED: BRANCH   1   8
DOCKED: ATOM      8  O   UNL     1      36.359  17.070 120.103 -0.18 -0.00    +0.000 OA
DOCKED: ATOM      9  S   UNL     1      37.376  16.131 120.688 -0.24 -0.00    +0.000 S 
DOCKED: ATOM     10  O   UNL     1      37.806  15.154 119.632 -0.23 -0.00    +0.000 OA
DOCKED: BRANCH   8  10
DOCKED: ATOM     11  N   UNL     1      38.754  17.047 121.216 -0.10 -0.00    +0.000 N 
DOCKED: ATOM     12  H   UNL     1      38.695  18.029 121.185 +0.00 -0.00    +0.000 HD
DOCKED: BRANCH  10  12
DOCKED: ATOM     13  C   UNL     1      39.976  16.456 121.694 -0.19 -0.00    +0.000 A 
DOCKED: ATOM     14  C   UNL     1      41.207  17.137 121.639 -0.16 -0.00    +0.000 A 
DOCKED: ATOM     15  C   UNL     1      42.372  16.534 122.122 -0.32 -0.00    +0.000 A 
DOCKED: ATOM     16  C   UNL     1      42.323  15.246 122.660 -0.41 -0.00    +0.000 A 
DOCKED: ATOM     17  C   UNL     1      41.109  14.557 122.713 -0.44 -0.00    +0.000 A 
DOCKED: ATOM     18  C   UNL     1      39.941  15.158 122.232 -0.37 -0.00    +0.000 A 
DOCKED: ATOM     19  CM  UNL     1      41.155  15.848 122.177 +0.00 -0.00    +0.000 AC
DOCKED: ENDBRANCH  10  12
DOCKED: ENDBRANCH   8  10
DOCKED: ENDBRANCH   1   8
DOCKED: BRANCH   3  18
DOCKED: ATOM     20  C   UNL     1      36.404  11.632 123.152 -0.70 -0.00    +0.000 C 
DOCKED: ATOM     21  C   UNL     1      36.831  10.929 122.092 -0.60 -0.00    +0.000 C 
DOCKED: BRANCH  19  20
DOCKED: ATOM     22  C   UNL     1      36.980   9.459 122.095 -0.64 -0.00    +0.000 C 
DOCKED: ATOM     23  N   UNL     1      37.061   8.698 123.308 -0.66 -0.00    +0.000 N 
DOCKED: ATOM     24  O   UNL     1      37.067   8.862 120.989 -2.71 -0.00    +0.000 OA
DOCKED: ATOM     25  H   UNL     1      37.110   9.160 124.175 -0.57 -0.00    +0.000 HD
DOCKED: BRANCH  21  24
DOCKED: ATOM     26  O   UNL     1      37.068   7.343 123.263 -2.13 -0.00    +0.000 OA
DOCKED: ATOM     27  H   UNL     1      37.251   7.051 122.357 -0.16 -0.00    +0.000 HD
DOCKED: ENDBRANCH  21  24
DOCKED: ENDBRANCH  19  20
DOCKED: ENDBRANCH   3  18
DOCKED: TORSDOF 6DOCKED: TER
DOCKED: ENDMDL
________________________________________________________________________________


	BEGINNING GENETIC ALGORITHM DOCKING 65 of 100
Run: 65 Seed: 1312651936 1221973109 [ Run 65 of 100 GA/GALS ]
Beginning LAMARCKIAN GENETIC ALGORITHM (LGA), with a maximum of 2500000 energy evaluations.

Final-Value: -14.599


	FINAL GENETIC ALGORITHM DOCKED STATE
	_______________________________________________


Detailed state:  trans 38.244 13.736 123.179 quatxyzw -0.114307 0.696018 -0.561007 -0.433318 center 0.320 0.169 0.303 ntor 6 -2.1401 110.5044 135.0653 8.2402 161.3043 -39.9890
State:	 38.244  13.736 123.179  -0.127  0.772 -0.622 -128.643     -2.14  110.50  135.07    8.24  161.30  -39.99

DOCKED: MODEL       65
DOCKED: USER    Run = 65
DOCKED: USER    DPF = ligand_dock.biased.dpf
DOCKED: USER  
DOCKED: USER    Estimated Free Energy of Binding    =  -11.23 kcal/mol  [=(1)+(2)+(3)-(4)]
DOCKED: USER    Estimated Inhibition Constant, Ki   =    5.85 nM (nanomolar)  [Temperature = 298.15 K]
DOCKED: USER    
DOCKED: USER    (1) Final Intermolecular Energy     =  -13.02 kcal/mol
DOCKED: USER        vdW + Hbond + desolv Energy     =  -13.02 kcal/mol
DOCKED: USER        Electrostatic Energy            =   +0.00 kcal/mol
DOCKED: USER    (2) Final Total Internal Energy     =   -1.58 kcal/mol
DOCKED: USER    (3) Torsional Free Energy           =   +1.79 kcal/mol
DOCKED: USER    (4) Unbound System's Energy  [=(2)] =   -1.58 kcal/mol
DOCKED: USER    
DOCKED: USER    
DOCKED: USER    NEWDPF move ligand.dum.pdbqt
DOCKED: USER    NEWDPF about 0.320000 0.169000 0.303000
DOCKED: USER    NEWDPF tran0 38.243967 13.736177 123.178759
DOCKED: USER    NEWDPF quaternion0 -0.114307 0.696018 -0.561007 -0.433318
DOCKED: USER    NEWDPF axisangle0 -0.126833 0.772288 -0.622483 -128.643422
DOCKED: USER    NEWDPF quat0 -0.126833 0.772288 -0.622483 -128.643422
DOCKED: USER    NEWDPF dihe0 -2.14 110.50 135.07 8.24 161.30 -39.99 
DOCKED: USER  keepresnum = 1 
DOCKED: USER  
DOCKED: REMARK  Name = 
DOCKED: REMARK  6 active torsions:
DOCKED: REMARK  status: ('A' for Active; 'I' for Inactive)
DOCKED: REMARK    1  A    between atoms: S_2  and  N_3
DOCKED: REMARK    2  A    between atoms: S_2  and  C_10
DOCKED: REMARK    3  A    between atoms: N_3  and  C_4
DOCKED: REMARK    4  A    between atoms: C_12  and  C_13
DOCKED: REMARK    5  A    between atoms: C_14  and  C_15
DOCKED: REMARK    6  A    between atoms: N_16  and  O_17
DOCKED: REMARK                            x       y       z     vdW  Elec       q    Type
DOCKED: REMARK                         _______ _______ _______ _____ _____    ______ ____
DOCKED: USER                              x       y       z     vdW  Elec       q    Type
DOCKED: USER                           _______ _______ _______ _____ _____    ______ ____
DOCKED: ROOT
DOCKED: ATOM      1  C   UNL     1      37.017  15.733 122.972 -0.31 -0.00    +0.000 A 
DOCKED: ATOM      2  C   UNL     1      37.424  14.417 122.716 -0.41 -0.00    +0.000 A 
DOCKED: ATOM      3  C   UNL     1      36.640  13.328 123.133 -0.52 -0.00    +0.000 A 
DOCKED: ATOM      4  C   UNL     1      35.441  13.581 123.831 -0.29 -0.00    +0.000 A 
DOCKED: ATOM      5  C   UNL     1      35.033  14.894 124.080 -0.49 -0.00    +0.000 A 
DOCKED: ATOM      6  C   UNL     1      35.814  15.968 123.648 -0.38 -0.00    +0.000 A 
DOCKED: ATOM      7  CM  UNL     1      36.228  14.653 123.396 +0.00 -0.00    +0.000 AC
DOCKED: ENDROOT
DOCKED: BRANCH   1   8
DOCKED: ATOM      8  O   UNL     1      37.244  18.369 122.491 -0.13 -0.00    +0.000 OA
DOCKED: ATOM      9  S   UNL     1      38.020  17.083 122.449 -0.24 -0.00    +0.000 S 
DOCKED: ATOM     10  O   UNL     1      38.474  16.829 121.040 -0.13 -0.00    +0.000 OA
DOCKED: BRANCH   8  10
DOCKED: ATOM     11  N   UNL     1      39.411  17.228 123.479 -0.24 -0.00    +0.000 N 
DOCKED: ATOM     12  H   UNL     1      39.274  17.559 124.396 -0.02 -0.00    +0.000 HD
DOCKED: BRANCH  10  12
DOCKED: ATOM     13  C   UNL     1      40.751  16.895 123.072 -0.28 -0.00    +0.000 A 
DOCKED: ATOM     14  C   UNL     1      41.807  17.823 123.146 -0.25 -0.00    +0.000 A 
DOCKED: ATOM     15  C   UNL     1      43.098  17.459 122.749 -0.29 -0.00    +0.000 A 
DOCKED: ATOM     16  C   UNL     1      43.347  16.171 122.272 -0.27 -0.00    +0.000 A 
DOCKED: ATOM     17  C   UNL     1      42.306  15.244 122.187 -0.39 -0.00    +0.000 A 
DOCKED: ATOM     18  C   UNL     1      41.014  15.603 122.584 -0.41 -0.00    +0.000 A 
DOCKED: ATOM     19  CM  UNL     1      42.054  16.533 122.669 +0.00 -0.00    +0.000 AC
DOCKED: ENDBRANCH  10  12
DOCKED: ENDBRANCH   8  10
DOCKED: ENDBRANCH   1   8
DOCKED: BRANCH   3  18
DOCKED: ATOM     20  C   UNL     1      37.130  11.955 122.855 -0.61 -0.00    +0.000 C 
DOCKED: ATOM     21  C   UNL     1      36.321  10.902 122.663 -0.69 -0.00    +0.000 C 
DOCKED: BRANCH  19  20
DOCKED: ATOM     22  C   UNL     1      36.814   9.536 122.387 -0.68 -0.00    +0.000 C 
DOCKED: ATOM     23  N   UNL     1      37.047   8.578 123.427 -0.66 -0.00    +0.000 N 
DOCKED: ATOM     24  O   UNL     1      37.062   9.219 121.193 -2.74 -0.00    +0.000 OA
DOCKED: ATOM     25  H   UNL     1      36.967   8.848 124.370 -0.49 -0.00    +0.000 HD
DOCKED: BRANCH  21  24
DOCKED: ATOM     26  O   UNL     1      37.375   7.300 123.116 -1.93 -0.00    +0.000 OA
DOCKED: ATOM     27  H   UNL     1      37.377   7.193 122.153 -0.16 -0.00    +0.000 HD
DOCKED: ENDBRANCH  21  24
DOCKED: ENDBRANCH  19  20
DOCKED: ENDBRANCH   3  18
DOCKED: TORSDOF 6DOCKED: TER
DOCKED: ENDMDL
________________________________________________________________________________


	BEGINNING GENETIC ALGORITHM DOCKING 66 of 100
Run: 66 Seed: 212335254 1777566448 [ Run 66 of 100 GA/GALS ]
Beginning LAMARCKIAN GENETIC ALGORITHM (LGA), with a maximum of 2500000 energy evaluations.

Final-Value: -14.685


	FINAL GENETIC ALGORITHM DOCKED STATE
	_______________________________________________


Detailed state:  trans 35.765 13.316 121.952 quatxyzw -0.747015 0.329554 0.062033 0.574034 center 0.320 0.169 0.303 ntor 6 14.1467 -180.0000 -40.0464 112.5559 19.2609 -85.0273
State:	 35.765  13.316 121.952  -0.912  0.402  0.076 109.936     14.15 -180.00  -40.05  112.56   19.26  -85.03

DOCKED: MODEL       66
DOCKED: USER    Run = 66
DOCKED: USER    DPF = ligand_dock.biased.dpf
DOCKED: USER  
DOCKED: USER    Estimated Free Energy of Binding    =  -11.27 kcal/mol  [=(1)+(2)+(3)-(4)]
DOCKED: USER    Estimated Inhibition Constant, Ki   =    5.49 nM (nanomolar)  [Temperature = 298.15 K]
DOCKED: USER    
DOCKED: USER    (1) Final Intermolecular Energy     =  -13.06 kcal/mol
DOCKED: USER        vdW + Hbond + desolv Energy     =  -13.06 kcal/mol
DOCKED: USER        Electrostatic Energy            =   +0.00 kcal/mol
DOCKED: USER    (2) Final Total Internal Energy     =   -1.63 kcal/mol
DOCKED: USER    (3) Torsional Free Energy           =   +1.79 kcal/mol
DOCKED: USER    (4) Unbound System's Energy  [=(2)] =   -1.63 kcal/mol
DOCKED: USER    
DOCKED: USER    
DOCKED: USER    NEWDPF move ligand.dum.pdbqt
DOCKED: USER    NEWDPF about 0.320000 0.169000 0.303000
DOCKED: USER    NEWDPF tran0 35.764602 13.315869 121.951630
DOCKED: USER    NEWDPF quaternion0 -0.747015 0.329554 0.062033 0.574034
DOCKED: USER    NEWDPF axisangle0 -0.912294 0.402468 0.075758 109.936041
DOCKED: USER    NEWDPF quat0 -0.912294 0.402468 0.075758 109.936041
DOCKED: USER    NEWDPF dihe0 14.15 -180.00 -40.05 112.56 19.26 -85.03 
DOCKED: USER  keepresnum = 1 
DOCKED: USER  
DOCKED: REMARK  Name = 
DOCKED: REMARK  6 active torsions:
DOCKED: REMARK  status: ('A' for Active; 'I' for Inactive)
DOCKED: REMARK    1  A    between atoms: S_2  and  N_3
DOCKED: REMARK    2  A    between atoms: S_2  and  C_10
DOCKED: REMARK    3  A    between atoms: N_3  and  C_4
DOCKED: REMARK    4  A    between atoms: C_12  and  C_13
DOCKED: REMARK    5  A    between atoms: C_14  and  C_15
DOCKED: REMARK    6  A    between atoms: N_16  and  O_17
DOCKED: REMARK                            x       y       z     vdW  Elec       q    Type
DOCKED: REMARK                         _______ _______ _______ _____ _____    ______ ____
DOCKED: USER                              x       y       z     vdW  Elec       q    Type
DOCKED: USER                           _______ _______ _______ _____ _____    ______ ____
DOCKED: ROOT
DOCKED: ATOM      1  C   UNL     1      36.279  15.361 122.995 -0.36 -0.00    +0.000 A 
DOCKED: ATOM      2  C   UNL     1      36.319  13.987 122.720 -0.37 -0.00    +0.000 A 
DOCKED: ATOM      3  C   UNL     1      37.414  13.423 122.044 -0.44 -0.00    +0.000 A 
DOCKED: ATOM      4  C   UNL     1      38.466  14.265 121.630 -0.36 -0.00    +0.000 A 
DOCKED: ATOM      5  C   UNL     1      38.427  15.634 121.912 -0.25 -0.00    +0.000 A 
DOCKED: ATOM      6  C   UNL     1      37.340  16.181 122.596 -0.25 -0.00    +0.000 A 
DOCKED: ATOM      7  CM  UNL     1      37.375  14.808 122.316 +0.00 -0.00    +0.000 AC
DOCKED: ENDROOT
DOCKED: BRANCH   1   8
DOCKED: ATOM      8  O   UNL     1      35.318  16.694 125.125 -0.36 -0.00    +0.000 OA
DOCKED: ATOM      9  S   UNL     1      34.892  16.049 123.835 -0.64 -0.00    +0.000 S 
DOCKED: ATOM     10  O   UNL     1      33.915  14.949 124.137 -0.67 -0.00    +0.000 OA
DOCKED: BRANCH   8  10
DOCKED: ATOM     11  N   UNL     1      34.119  17.242 122.836 -0.41 -0.00    +0.000 N 
DOCKED: ATOM     12  H   UNL     1      33.141  17.335 122.901 +0.02 -0.00    +0.000 HD
DOCKED: BRANCH  10  12
DOCKED: ATOM     13  C   UNL     1      34.823  18.099 121.920 -0.30 -0.00    +0.000 A 
DOCKED: ATOM     14  C   UNL     1      35.939  18.861 122.316 -0.19 -0.00    +0.000 A 
DOCKED: ATOM     15  C   UNL     1      36.603  19.676 121.395 -0.13 -0.00    +0.000 A 
DOCKED: ATOM     16  C   UNL     1      36.159  19.744 120.072 -0.11 -0.00    +0.000 A 
DOCKED: ATOM     17  C   UNL     1      35.049  19.000 119.669 -0.19 -0.00    +0.000 A 
DOCKED: ATOM     18  C   UNL     1      34.383  18.182 120.587 -0.29 -0.00    +0.000 A 
DOCKED: ATOM     19  CM  UNL     1      35.493  18.927 120.993 +0.00 -0.00    +0.000 AC
DOCKED: ENDBRANCH  10  12
DOCKED: ENDBRANCH   8  10
DOCKED: ENDBRANCH   1   8
DOCKED: BRANCH   3  18
DOCKED: ATOM     20  C   UNL     1      37.396  11.966 121.759 -0.47 -0.00    +0.000 C 
DOCKED: ATOM     21  C   UNL     1      37.062  11.035 122.666 -0.60 -0.00    +0.000 C 
DOCKED: BRANCH  19  20
DOCKED: ATOM     22  C   UNL     1      37.045   9.586 122.377 -0.61 -0.00    +0.000 C 
DOCKED: ATOM     23  N   UNL     1      37.064   8.596 123.414 -0.66 -0.00    +0.000 N 
DOCKED: ATOM     24  O   UNL     1      37.041   9.215 121.173 -2.73 -0.00    +0.000 OA
DOCKED: ATOM     25  H   UNL     1      37.182   8.870 124.352 -0.55 -0.00    +0.000 HD
DOCKED: BRANCH  21  24
DOCKED: ATOM     26  O   UNL     1      36.918   7.284 123.106 -2.05 -0.00    +0.000 OA
DOCKED: ATOM     27  H   UNL     1      37.036   7.162 122.151 -0.10 -0.00    +0.000 HD
DOCKED: ENDBRANCH  21  24
DOCKED: ENDBRANCH  19  20
DOCKED: ENDBRANCH   3  18
DOCKED: TORSDOF 6DOCKED: TER
DOCKED: ENDMDL
________________________________________________________________________________


	BEGINNING GENETIC ALGORITHM DOCKING 67 of 100
Run: 67 Seed: 2002613607 149794457 [ Run 67 of 100 GA/GALS ]
Beginning LAMARCKIAN GENETIC ALGORITHM (LGA), with a maximum of 2500000 energy evaluations.

Final-Value: -15.549


	FINAL GENETIC ALGORITHM DOCKED STATE
	_______________________________________________


Detailed state:  trans 35.690 13.222 122.759 quatxyzw 0.705163 -0.352366 0.029644 -0.614576 center 0.320 0.169 0.303 ntor 6 7.7742 43.0493 -113.4770 -116.7959 -98.5297 162.3586
State:	 35.690  13.222 122.759   0.894 -0.447  0.038 -104.158      7.77   43.05 -113.48 -116.80  -98.53  162.36

DOCKED: MODEL       67
DOCKED: USER    Run = 67
DOCKED: USER    DPF = ligand_dock.biased.dpf
DOCKED: USER  
DOCKED: USER    Estimated Free Energy of Binding    =  -12.29 kcal/mol  [=(1)+(2)+(3)-(4)]
DOCKED: USER    Estimated Inhibition Constant, Ki   =  974.26 pM (picomolar)  [Temperature = 298.15 K]
DOCKED: USER    
DOCKED: USER    (1) Final Intermolecular Energy     =  -14.08 kcal/mol
DOCKED: USER        vdW + Hbond + desolv Energy     =  -14.08 kcal/mol
DOCKED: USER        Electrostatic Energy            =   +0.00 kcal/mol
DOCKED: USER    (2) Final Total Internal Energy     =   -1.47 kcal/mol
DOCKED: USER    (3) Torsional Free Energy           =   +1.79 kcal/mol
DOCKED: USER    (4) Unbound System's Energy  [=(2)] =   -1.47 kcal/mol
DOCKED: USER    
DOCKED: USER    
DOCKED: USER    NEWDPF move ligand.dum.pdbqt
DOCKED: USER    NEWDPF about 0.320000 0.169000 0.303000
DOCKED: USER    NEWDPF tran0 35.690335 13.222153 122.759101
DOCKED: USER    NEWDPF quaternion0 0.705163 -0.352366 0.029644 -0.614576
DOCKED: USER    NEWDPF axisangle0 0.893905 -0.446679 0.037579 -104.157713
DOCKED: USER    NEWDPF quat0 0.893905 -0.446679 0.037579 -104.157713
DOCKED: USER    NEWDPF dihe0 7.77 43.05 -113.48 -116.80 -98.53 162.36 
DOCKED: USER  keepresnum = 1 
DOCKED: USER  
DOCKED: REMARK  Name = 
DOCKED: REMARK  6 active torsions:
DOCKED: REMARK  status: ('A' for Active; 'I' for Inactive)
DOCKED: REMARK    1  A    between atoms: S_2  and  N_3
DOCKED: REMARK    2  A    between atoms: S_2  and  C_10
DOCKED: REMARK    3  A    between atoms: N_3  and  C_4
DOCKED: REMARK    4  A    between atoms: C_12  and  C_13
DOCKED: REMARK    5  A    between atoms: C_14  and  C_15
DOCKED: REMARK    6  A    between atoms: N_16  and  O_17
DOCKED: REMARK                            x       y       z     vdW  Elec       q    Type
DOCKED: REMARK                         _______ _______ _______ _____ _____    ______ ____
DOCKED: USER                              x       y       z     vdW  Elec       q    Type
DOCKED: USER                           _______ _______ _______ _____ _____    ______ ____
DOCKED: ROOT
DOCKED: ATOM      1  C   UNL     1      35.983  15.440 123.487 -0.41 -0.00    +0.000 A 
DOCKED: ATOM      2  C   UNL     1      36.111  14.045 123.463 -0.49 -0.00    +0.000 A 
DOCKED: ATOM      3  C   UNL     1      37.308  13.441 123.039 -0.50 -0.00    +0.000 A 
DOCKED: ATOM      4  C   UNL     1      38.374  14.264 122.621 -0.41 -0.00    +0.000 A 
DOCKED: ATOM      5  C   UNL     1      38.246  15.655 122.653 -0.29 -0.00    +0.000 A 
DOCKED: ATOM      6  C   UNL     1      37.058  16.243 123.089 -0.27 -0.00    +0.000 A 
DOCKED: ATOM      7  CM  UNL     1      37.180  14.848 123.059 +0.00 -0.00    +0.000 AC
DOCKED: ENDROOT
DOCKED: BRANCH   1   8
DOCKED: ATOM      8  O   UNL     1      33.532  15.132 124.551 -0.49 -0.00    +0.000 OA
DOCKED: ATOM      9  S   UNL     1      34.471  16.176 124.013 -0.68 -0.00    +0.000 S 
DOCKED: ATOM     10  O   UNL     1      33.829  16.853 122.837 -0.43 -0.00    +0.000 OA
DOCKED: BRANCH   8  10
DOCKED: ATOM     11  N   UNL     1      34.779  17.353 125.253 -0.36 -0.00    +0.000 N 
DOCKED: ATOM     12  H   UNL     1      35.651  17.809 125.250 -0.01 -0.00    +0.000 HD
DOCKED: BRANCH  10  12
DOCKED: ATOM     13  C   UNL     1      33.835  17.700 126.282 -0.34 -0.00    +0.000 A 
DOCKED: ATOM     14  C   UNL     1      33.421  19.029 126.499 -0.25 -0.00    +0.000 A 
DOCKED: ATOM     15  C   UNL     1      32.495  19.326 127.504 -0.19 -0.00    +0.000 A 
DOCKED: ATOM     16  C   UNL     1      31.977  18.305 128.304 -0.22 -0.00    +0.000 A 
DOCKED: ATOM     17  C   UNL     1      32.386  16.986 128.103 -0.38 -0.00    +0.000 A 
DOCKED: ATOM     18  C   UNL     1      33.310  16.683 127.099 -0.40 -0.00    +0.000 A 
DOCKED: ATOM     19  CM  UNL     1      32.904  18.005 127.298 +0.00 -0.00    +0.000 AC
DOCKED: ENDBRANCH  10  12
DOCKED: ENDBRANCH   8  10
DOCKED: ENDBRANCH   1   8
DOCKED: BRANCH   3  18
DOCKED: ATOM     20  C   UNL     1      37.382  11.959 123.012 -0.52 -0.00    +0.000 C 
DOCKED: ATOM     21  C   UNL     1      36.943  11.211 121.988 -0.58 -0.00    +0.000 C 
DOCKED: BRANCH  19  20
DOCKED: ATOM     22  C   UNL     1      37.019   9.736 121.966 -0.60 -0.00    +0.000 C 
DOCKED: ATOM     23  N   UNL     1      37.068   8.951 123.164 -0.66 -0.00    +0.000 N 
DOCKED: ATOM     24  O   UNL     1      37.071   9.155 120.848 -2.73 -0.00    +0.000 OA
DOCKED: ATOM     25  H   UNL     1      37.144   9.395 124.039 -0.54 -0.00    +0.000 HD
DOCKED: BRANCH  21  24
DOCKED: ATOM     26  O   UNL     1      37.007   7.599 123.096 -2.27 -0.00    +0.000 OA
DOCKED: ATOM     27  H   UNL     1      37.057   7.319 122.169 -0.08 -0.00    +0.000 HD
DOCKED: ENDBRANCH  21  24
DOCKED: ENDBRANCH  19  20
DOCKED: ENDBRANCH   3  18
DOCKED: TORSDOF 6DOCKED: TER
DOCKED: ENDMDL
________________________________________________________________________________


	BEGINNING GENETIC ALGORITHM DOCKING 68 of 100
Run: 68 Seed: 24754339 917360170 [ Run 68 of 100 GA/GALS ]
Beginning LAMARCKIAN GENETIC ALGORITHM (LGA), with a maximum of 2500000 energy evaluations.

Final-Value: -14.548


	FINAL GENETIC ALGORITHM DOCKED STATE
	_______________________________________________


Detailed state:  trans 38.436 13.450 123.624 quatxyzw -0.004959 0.678240 -0.575680 -0.456682 center 0.320 0.169 0.303 ntor 6 11.5671 97.2932 20.9670 5.7640 -124.4723 14.7020
State:	 38.436  13.450 123.624  -0.006  0.762 -0.647 -125.654     11.57   97.29   20.97    5.76 -124.47   14.70

DOCKED: MODEL       68
DOCKED: USER    Run = 68
DOCKED: USER    DPF = ligand_dock.biased.dpf
DOCKED: USER  
DOCKED: USER    Estimated Free Energy of Binding    =  -11.32 kcal/mol  [=(1)+(2)+(3)-(4)]
DOCKED: USER    Estimated Inhibition Constant, Ki   =    5.06 nM (nanomolar)  [Temperature = 298.15 K]
DOCKED: USER    
DOCKED: USER    (1) Final Intermolecular Energy     =  -13.11 kcal/mol
DOCKED: USER        vdW + Hbond + desolv Energy     =  -13.11 kcal/mol
DOCKED: USER        Electrostatic Energy            =   +0.00 kcal/mol
DOCKED: USER    (2) Final Total Internal Energy     =   -1.44 kcal/mol
DOCKED: USER    (3) Torsional Free Energy           =   +1.79 kcal/mol
DOCKED: USER    (4) Unbound System's Energy  [=(2)] =   -1.44 kcal/mol
DOCKED: USER    
DOCKED: USER    
DOCKED: USER    NEWDPF move ligand.dum.pdbqt
DOCKED: USER    NEWDPF about 0.320000 0.169000 0.303000
DOCKED: USER    NEWDPF tran0 38.436400 13.449665 123.623707
DOCKED: USER    NEWDPF quaternion0 -0.004959 0.678240 -0.575680 -0.456682
DOCKED: USER    NEWDPF axisangle0 -0.005574 0.762384 -0.647101 -125.653586
DOCKED: USER    NEWDPF quat0 -0.005574 0.762384 -0.647101 -125.653586
DOCKED: USER    NEWDPF dihe0 11.57 97.29 20.97 5.76 -124.47 14.70 
DOCKED: USER  keepresnum = 1 
DOCKED: USER  
DOCKED: REMARK  Name = 
DOCKED: REMARK  6 active torsions:
DOCKED: REMARK  status: ('A' for Active; 'I' for Inactive)
DOCKED: REMARK    1  A    between atoms: S_2  and  N_3
DOCKED: REMARK    2  A    between atoms: S_2  and  C_10
DOCKED: REMARK    3  A    between atoms: N_3  and  C_4
DOCKED: REMARK    4  A    between atoms: C_12  and  C_13
DOCKED: REMARK    5  A    between atoms: C_14  and  C_15
DOCKED: REMARK    6  A    between atoms: N_16  and  O_17
DOCKED: REMARK                            x       y       z     vdW  Elec       q    Type
DOCKED: REMARK                         _______ _______ _______ _____ _____    ______ ____
DOCKED: USER                              x       y       z     vdW  Elec       q    Type
DOCKED: USER                           _______ _______ _______ _____ _____    ______ ____
DOCKED: ROOT
DOCKED: ATOM      1  C   UNL     1      37.532  15.605 123.355 -0.30 -0.00    +0.000 A 
DOCKED: ATOM      2  C   UNL     1      37.806  14.259 123.078 -0.43 -0.00    +0.000 A 
DOCKED: ATOM      3  C   UNL     1      36.827  13.271 123.279 -0.53 -0.00    +0.000 A 
DOCKED: ATOM      4  C   UNL     1      35.566  13.655 123.781 -0.44 -0.00    +0.000 A 
DOCKED: ATOM      5  C   UNL     1      35.293  14.999 124.049 -0.49 -0.00    +0.000 A 
DOCKED: ATOM      6  C   UNL     1      36.269  15.973 123.833 -0.35 -0.00    +0.000 A 
DOCKED: ATOM      7  CM  UNL     1      36.549  14.627 123.562 +0.00 -0.00    +0.000 AC
DOCKED: ENDROOT
DOCKED: BRANCH   1   8
DOCKED: ATOM      8  O   UNL     1      38.750  17.846 124.209 -0.25 -0.00    +0.000 OA
DOCKED: ATOM      9  S   UNL     1      38.778  16.826 123.106 -0.31 -0.00    +0.000 S 
DOCKED: ATOM     10  O   UNL     1      38.524  17.513 121.796 -0.11 -0.00    +0.000 OA
DOCKED: BRANCH   8  10
DOCKED: ATOM     11  N   UNL     1      40.346  16.080 123.066 -0.32 -0.00    +0.000 N 
DOCKED: ATOM     12  H   UNL     1      40.393  15.100 123.141 -0.03 -0.00    +0.000 HD
DOCKED: BRANCH  10  12
DOCKED: ATOM     13  C   UNL     1      41.579  16.809 122.929 -0.33 -0.00    +0.000 A 
DOCKED: ATOM     14  C   UNL     1      41.629  18.215 123.016 -0.19 -0.00    +0.000 A 
DOCKED: ATOM     15  C   UNL     1      42.847  18.888 122.887 -0.14 -0.00    +0.000 A 
DOCKED: ATOM     16  C   UNL     1      44.025  18.171 122.667 -0.20 -0.00    +0.000 A 
DOCKED: ATOM     17  C   UNL     1      43.987  16.778 122.572 -0.31 -0.00    +0.000 A 
DOCKED: ATOM     18  C   UNL     1      42.770  16.100 122.701 -0.40 -0.00    +0.000 A 
DOCKED: ATOM     19  CM  UNL     1      42.806  17.494 122.796 +0.00 -0.00    +0.000 AC
DOCKED: ENDBRANCH  10  12
DOCKED: ENDBRANCH   8  10
DOCKED: ENDBRANCH   1   8
DOCKED: BRANCH   3  18
DOCKED: ATOM     20  C   UNL     1      37.177  11.858 122.991 -0.60 -0.00    +0.000 C 
DOCKED: ATOM     21  C   UNL     1      36.279  10.926 122.637 -0.69 -0.00    +0.000 C 
DOCKED: BRANCH  19  20
DOCKED: ATOM     22  C   UNL     1      36.633   9.520 122.351 -0.72 -0.00    +0.000 C 
DOCKED: ATOM     23  N   UNL     1      36.873   8.562 123.390 -0.66 -0.00    +0.000 N 
DOCKED: ATOM     24  O   UNL     1      36.754   9.165 121.148 -2.64 -0.00    +0.000 OA
DOCKED: ATOM     25  H   UNL     1      36.894   8.852 124.330 -0.47 -0.00    +0.000 HD
DOCKED: BRANCH  21  24
DOCKED: ATOM     26  O   UNL     1      37.068   7.257 123.081 -2.08 -0.00    +0.000 OA
DOCKED: ATOM     27  H   UNL     1      37.197   7.167 122.124 -0.13 -0.00    +0.000 HD
DOCKED: ENDBRANCH  21  24
DOCKED: ENDBRANCH  19  20
DOCKED: ENDBRANCH   3  18
DOCKED: TORSDOF 6DOCKED: TER
DOCKED: ENDMDL
________________________________________________________________________________


	BEGINNING GENETIC ALGORITHM DOCKING 69 of 100
Run: 69 Seed: 503570023 1429756374 [ Run 69 of 100 GA/GALS ]
Beginning LAMARCKIAN GENETIC ALGORITHM (LGA), with a maximum of 2500000 energy evaluations.

Final-Value: -15.041


	FINAL GENETIC ALGORITHM DOCKED STATE
	_______________________________________________


Detailed state:  trans 35.805 13.305 122.078 quatxyzw 0.766412 -0.393784 0.007522 -0.507434 center 0.320 0.169 0.303 ntor 6 8.1800 155.3328 -58.2275 114.8603 22.9758 -87.8757
State:	 35.805  13.305 122.078   0.889 -0.457  0.009 -119.014      8.18  155.33  -58.23  114.86   22.98  -87.88

DOCKED: MODEL       69
DOCKED: USER    Run = 69
DOCKED: USER    DPF = ligand_dock.biased.dpf
DOCKED: USER  
DOCKED: USER    Estimated Free Energy of Binding    =  -11.50 kcal/mol  [=(1)+(2)+(3)-(4)]
DOCKED: USER    Estimated Inhibition Constant, Ki   =    3.73 nM (nanomolar)  [Temperature = 298.15 K]
DOCKED: USER    
DOCKED: USER    (1) Final Intermolecular Energy     =  -13.29 kcal/mol
DOCKED: USER        vdW + Hbond + desolv Energy     =  -13.29 kcal/mol
DOCKED: USER        Electrostatic Energy            =   +0.00 kcal/mol
DOCKED: USER    (2) Final Total Internal Energy     =   -1.75 kcal/mol
DOCKED: USER    (3) Torsional Free Energy           =   +1.79 kcal/mol
DOCKED: USER    (4) Unbound System's Energy  [=(2)] =   -1.75 kcal/mol
DOCKED: USER    
DOCKED: USER    
DOCKED: USER    NEWDPF move ligand.dum.pdbqt
DOCKED: USER    NEWDPF about 0.320000 0.169000 0.303000
DOCKED: USER    NEWDPF tran0 35.804615 13.304645 122.078306
DOCKED: USER    NEWDPF quaternion0 0.766412 -0.393784 0.007522 -0.507434
DOCKED: USER    NEWDPF axisangle0 0.889429 -0.456990 0.008729 -119.013859
DOCKED: USER    NEWDPF quat0 0.889429 -0.456990 0.008729 -119.013859
DOCKED: USER    NEWDPF dihe0 8.18 155.33 -58.23 114.86 22.98 -87.88 
DOCKED: USER  keepresnum = 1 
DOCKED: USER  
DOCKED: REMARK  Name = 
DOCKED: REMARK  6 active torsions:
DOCKED: REMARK  status: ('A' for Active; 'I' for Inactive)
DOCKED: REMARK    1  A    between atoms: S_2  and  N_3
DOCKED: REMARK    2  A    between atoms: S_2  and  C_10
DOCKED: REMARK    3  A    between atoms: N_3  and  C_4
DOCKED: REMARK    4  A    between atoms: C_12  and  C_13
DOCKED: REMARK    5  A    between atoms: C_14  and  C_15
DOCKED: REMARK    6  A    between atoms: N_16  and  O_17
DOCKED: REMARK                            x       y       z     vdW  Elec       q    Type
DOCKED: REMARK                         _______ _______ _______ _____ _____    ______ ____
DOCKED: USER                              x       y       z     vdW  Elec       q    Type
DOCKED: USER                           _______ _______ _______ _____ _____    ______ ____
DOCKED: ROOT
DOCKED: ATOM      1  C   UNL     1      36.081  15.266 123.348 -0.40 -0.00    +0.000 A 
DOCKED: ATOM      2  C   UNL     1      36.177  13.913 122.995 -0.39 -0.00    +0.000 A 
DOCKED: ATOM      3  C   UNL     1      37.393  13.373 122.542 -0.47 -0.00    +0.000 A 
DOCKED: ATOM      4  C   UNL     1      38.514  14.222 122.431 -0.40 -0.00    +0.000 A 
DOCKED: ATOM      5  C   UNL     1      38.418  15.569 122.790 -0.30 -0.00    +0.000 A 
DOCKED: ATOM      6  C   UNL     1      37.208  16.090 123.252 -0.28 -0.00    +0.000 A 
DOCKED: ATOM      7  CM  UNL     1      37.299  14.739 122.893 +0.00 -0.00    +0.000 AC
DOCKED: ENDROOT
DOCKED: BRANCH   1   8
DOCKED: ATOM      8  O   UNL     1      34.658  16.410 125.322 -0.50 -0.00    +0.000 OA
DOCKED: ATOM      9  S   UNL     1      34.544  15.923 123.905 -0.69 -0.00    +0.000 S 
DOCKED: ATOM     10  O   UNL     1      33.505  14.842 123.839 -0.69 -0.00    +0.000 OA
DOCKED: BRANCH   8  10
DOCKED: ATOM     11  N   UNL     1      34.058  17.247 122.890 -0.41 -0.00    +0.000 N 
DOCKED: ATOM     12  H   UNL     1      33.094  17.411 122.775 +0.01 -0.00    +0.000 HD
DOCKED: BRANCH  10  12
DOCKED: ATOM     13  C   UNL     1      34.980  18.117 122.208 -0.29 -0.00    +0.000 A 
DOCKED: ATOM     14  C   UNL     1      35.789  19.038 122.901 -0.19 -0.00    +0.000 A 
DOCKED: ATOM     15  C   UNL     1      36.680  19.861 122.205 -0.13 -0.00    +0.000 A 
DOCKED: ATOM     16  C   UNL     1      36.769  19.777 120.814 -0.11 -0.00    +0.000 A 
DOCKED: ATOM     17  C   UNL     1      35.966  18.874 120.116 -0.15 -0.00    +0.000 A 
DOCKED: ATOM     18  C   UNL     1      35.075  18.048 120.808 -0.25 -0.00    +0.000 A 
DOCKED: ATOM     19  CM  UNL     1      35.877  18.952 121.509 +0.00 -0.00    +0.000 AC
DOCKED: ENDBRANCH  10  12
DOCKED: ENDBRANCH   8  10
DOCKED: ENDBRANCH   1   8
DOCKED: BRANCH   3  18
DOCKED: ATOM     20  C   UNL     1      37.433  11.940 122.160 -0.44 -0.00    +0.000 C 
DOCKED: ATOM     21  C   UNL     1      36.862  10.963 122.881 -0.65 -0.00    +0.000 C 
DOCKED: BRANCH  19  20
DOCKED: ATOM     22  C   UNL     1      36.905   9.536 122.497 -0.66 -0.00    +0.000 C 
DOCKED: ATOM     23  N   UNL     1      37.158   8.492 123.447 -0.67 -0.00    +0.000 N 
DOCKED: ATOM     24  O   UNL     1      36.739   9.237 121.284 -2.56 -0.00    +0.000 OA
DOCKED: ATOM     25  H   UNL     1      37.402   8.719 124.373 -0.56 -0.00    +0.000 HD
DOCKED: BRANCH  21  24
DOCKED: ATOM     26  O   UNL     1      37.060   7.193 123.073 -2.01 -0.00    +0.000 OA
DOCKED: ATOM     27  H   UNL     1      36.940   7.142 122.112 -0.09 -0.00    +0.000 HD
DOCKED: ENDBRANCH  21  24
DOCKED: ENDBRANCH  19  20
DOCKED: ENDBRANCH   3  18
DOCKED: TORSDOF 6DOCKED: TER
DOCKED: ENDMDL
________________________________________________________________________________


	BEGINNING GENETIC ALGORITHM DOCKING 70 of 100
Run: 70 Seed: 436069422 385243218 [ Run 70 of 100 GA/GALS ]
Beginning LAMARCKIAN GENETIC ALGORITHM (LGA), with a maximum of 2500000 energy evaluations.

Final-Value: -15.053


	FINAL GENETIC ALGORITHM DOCKED STATE
	_______________________________________________


Detailed state:  trans 38.246 13.091 123.365 quatxyzw 0.072176 -0.673462 0.663048 0.318759 center 0.320 0.169 0.303 ntor 6 13.9070 5.5108 -79.4095 106.0051 94.7142 70.7463
State:	 38.246  13.091 123.365   0.076 -0.711  0.700 142.824     13.91    5.51  -79.41  106.01   94.71   70.75

DOCKED: MODEL       70
DOCKED: USER    Run = 70
DOCKED: USER    DPF = ligand_dock.biased.dpf
DOCKED: USER  
DOCKED: USER    Estimated Free Energy of Binding    =  -11.28 kcal/mol  [=(1)+(2)+(3)-(4)]
DOCKED: USER    Estimated Inhibition Constant, Ki   =    5.38 nM (nanomolar)  [Temperature = 298.15 K]
DOCKED: USER    
DOCKED: USER    (1) Final Intermolecular Energy     =  -13.07 kcal/mol
DOCKED: USER        vdW + Hbond + desolv Energy     =  -13.07 kcal/mol
DOCKED: USER        Electrostatic Energy            =   +0.00 kcal/mol
DOCKED: USER    (2) Final Total Internal Energy     =   -1.98 kcal/mol
DOCKED: USER    (3) Torsional Free Energy           =   +1.79 kcal/mol
DOCKED: USER    (4) Unbound System's Energy  [=(2)] =   -1.98 kcal/mol
DOCKED: USER    
DOCKED: USER    
DOCKED: USER    NEWDPF move ligand.dum.pdbqt
DOCKED: USER    NEWDPF about 0.320000 0.169000 0.303000
DOCKED: USER    NEWDPF tran0 38.246211 13.091470 123.364516
DOCKED: USER    NEWDPF quaternion0 0.072176 -0.673462 0.663048 0.318759
DOCKED: USER    NEWDPF axisangle0 0.076148 -0.710526 0.699539 142.824217
DOCKED: USER    NEWDPF quat0 0.076148 -0.710526 0.699539 142.824217
DOCKED: USER    NEWDPF dihe0 13.91 5.51 -79.41 106.01 94.71 70.75 
DOCKED: USER  keepresnum = 1 
DOCKED: USER  
DOCKED: REMARK  Name = 
DOCKED: REMARK  6 active torsions:
DOCKED: REMARK  status: ('A' for Active; 'I' for Inactive)
DOCKED: REMARK    1  A    between atoms: S_2  and  N_3
DOCKED: REMARK    2  A    between atoms: S_2  and  C_10
DOCKED: REMARK    3  A    between atoms: N_3  and  C_4
DOCKED: REMARK    4  A    between atoms: C_12  and  C_13
DOCKED: REMARK    5  A    between atoms: C_14  and  C_15
DOCKED: REMARK    6  A    between atoms: N_16  and  O_17
DOCKED: REMARK                            x       y       z     vdW  Elec       q    Type
DOCKED: REMARK                         _______ _______ _______ _____ _____    ______ ____
DOCKED: USER                              x       y       z     vdW  Elec       q    Type
DOCKED: USER                           _______ _______ _______ _____ _____    ______ ____
DOCKED: ROOT
DOCKED: ATOM      1  C   UNL     1      37.570  15.295 122.891 -0.34 -0.00    +0.000 A 
DOCKED: ATOM      2  C   UNL     1      37.595  13.895 122.835 -0.45 -0.00    +0.000 A 
DOCKED: ATOM      3  C   UNL     1      36.594  13.133 123.462 -0.55 -0.00    +0.000 A 
DOCKED: ATOM      4  C   UNL     1      35.571  13.803 124.165 -0.31 -0.00    +0.000 A 
DOCKED: ATOM      5  C   UNL     1      35.544  15.199 124.213 -0.45 -0.00    +0.000 A 
DOCKED: ATOM      6  C   UNL     1      36.537  15.944 123.575 -0.33 -0.00    +0.000 A 
DOCKED: ATOM      7  CM  UNL     1      36.568  14.545 123.523 +0.00 -0.00    +0.000 AC
DOCKED: ENDROOT
DOCKED: BRANCH   1   8
DOCKED: ATOM      8  O   UNL     1      40.038  16.359 123.006 -0.34 -0.00    +0.000 OA
DOCKED: ATOM      9  S   UNL     1      38.841  16.229 122.106 -0.30 -0.00    +0.000 S 
DOCKED: ATOM     10  O   UNL     1      38.311  17.598 121.794 -0.11 -0.00    +0.000 OA
DOCKED: BRANCH   8  10
DOCKED: ATOM     11  N   UNL     1      39.327  15.454 120.629 -0.21 -0.00    +0.000 N 
DOCKED: ATOM     12  H   UNL     1      40.288  15.420 120.420 -0.01 -0.00    +0.000 HD
DOCKED: BRANCH  10  12
DOCKED: ATOM     13  C   UNL     1      38.408  14.860 119.694 -0.21 -0.00    +0.000 A 
DOCKED: ATOM     14  C   UNL     1      38.031  13.505 119.776 -0.27 -0.00    +0.000 A 
DOCKED: ATOM     15  C   UNL     1      37.128  12.966 118.854 -0.35 -0.00    +0.000 A 
DOCKED: ATOM     16  C   UNL     1      36.597  13.768 117.841 -0.36 -0.00    +0.000 A 
DOCKED: ATOM     17  C   UNL     1      36.970  15.110 117.746 -0.21 -0.00    +0.000 A 
DOCKED: ATOM     18  C   UNL     1      37.871  15.654 118.666 -0.15 -0.00    +0.000 A 
DOCKED: ATOM     19  CM  UNL     1      37.501  14.310 118.763 +0.00 -0.00    +0.000 AC
DOCKED: ENDBRANCH  10  12
DOCKED: ENDBRANCH   8  10
DOCKED: ENDBRANCH   1   8
DOCKED: BRANCH   3  18
DOCKED: ATOM     20  C   UNL     1      36.680  11.654 123.391 -0.70 -0.00    +0.000 C 
DOCKED: ATOM     21  C   UNL     1      36.814  10.971 122.243 -0.62 -0.00    +0.000 C 
DOCKED: BRANCH  19  20
DOCKED: ATOM     22  C   UNL     1      36.899   9.497 122.178 -0.66 -0.00    +0.000 C 
DOCKED: ATOM     23  N   UNL     1      37.115   8.688 123.341 -0.65 -0.00    +0.000 N 
DOCKED: ATOM     24  O   UNL     1      36.807   8.941 121.051 -2.64 -0.00    +0.000 OA
DOCKED: ATOM     25  H   UNL     1      37.303   9.114 124.208 -0.60 -0.00    +0.000 HD
DOCKED: BRANCH  21  24
DOCKED: ATOM     26  O   UNL     1      37.058   7.337 123.251 -2.13 -0.00    +0.000 OA
DOCKED: ATOM     27  H   UNL     1      37.084   7.074 122.318 -0.11 -0.00    +0.000 HD
DOCKED: ENDBRANCH  21  24
DOCKED: ENDBRANCH  19  20
DOCKED: ENDBRANCH   3  18
DOCKED: TORSDOF 6DOCKED: TER
DOCKED: ENDMDL
________________________________________________________________________________


	BEGINNING GENETIC ALGORITHM DOCKING 71 of 100
Run: 71 Seed: 1307555006 1388597235 [ Run 71 of 100 GA/GALS ]
Beginning LAMARCKIAN GENETIC ALGORITHM (LGA), with a maximum of 2500000 energy evaluations.

Final-Value: -15.321


	FINAL GENETIC ALGORITHM DOCKED STATE
	_______________________________________________


Detailed state:  trans 38.192 12.713 123.363 quatxyzw 0.016394 0.664034 -0.684795 -0.299743 center 0.320 0.169 0.303 ntor 6 12.8247 -26.4910 162.2783 132.2401 17.8936 126.6673
State:	 38.192  12.713 123.363   0.017  0.696 -0.718 -145.116     12.82  -26.49  162.28  132.24   17.89  126.67

DOCKED: MODEL       71
DOCKED: USER    Run = 71
DOCKED: USER    DPF = ligand_dock.biased.dpf
DOCKED: USER  
DOCKED: USER    Estimated Free Energy of Binding    =  -11.64 kcal/mol  [=(1)+(2)+(3)-(4)]
DOCKED: USER    Estimated Inhibition Constant, Ki   =    2.94 nM (nanomolar)  [Temperature = 298.15 K]
DOCKED: USER    
DOCKED: USER    (1) Final Intermolecular Energy     =  -13.43 kcal/mol
DOCKED: USER        vdW + Hbond + desolv Energy     =  -13.43 kcal/mol
DOCKED: USER        Electrostatic Energy            =   +0.00 kcal/mol
DOCKED: USER    (2) Final Total Internal Energy     =   -1.89 kcal/mol
DOCKED: USER    (3) Torsional Free Energy           =   +1.79 kcal/mol
DOCKED: USER    (4) Unbound System's Energy  [=(2)] =   -1.89 kcal/mol
DOCKED: USER    
DOCKED: USER    
DOCKED: USER    NEWDPF move ligand.dum.pdbqt
DOCKED: USER    NEWDPF about 0.320000 0.169000 0.303000
DOCKED: USER    NEWDPF tran0 38.191795 12.713336 123.362613
DOCKED: USER    NEWDPF quaternion0 0.016394 0.664034 -0.684795 -0.299743
DOCKED: USER    NEWDPF axisangle0 0.017184 0.696038 -0.717799 -145.115710
DOCKED: USER    NEWDPF quat0 0.017184 0.696038 -0.717799 -145.115710
DOCKED: USER    NEWDPF dihe0 12.82 -26.49 162.28 132.24 17.89 126.67 
DOCKED: USER  keepresnum = 1 
DOCKED: USER  
DOCKED: REMARK  Name = 
DOCKED: REMARK  6 active torsions:
DOCKED: REMARK  status: ('A' for Active; 'I' for Inactive)
DOCKED: REMARK    1  A    between atoms: S_2  and  N_3
DOCKED: REMARK    2  A    between atoms: S_2  and  C_10
DOCKED: REMARK    3  A    between atoms: N_3  and  C_4
DOCKED: REMARK    4  A    between atoms: C_12  and  C_13
DOCKED: REMARK    5  A    between atoms: C_14  and  C_15
DOCKED: REMARK    6  A    between atoms: N_16  and  O_17
DOCKED: REMARK                            x       y       z     vdW  Elec       q    Type
DOCKED: REMARK                         _______ _______ _______ _____ _____    ______ ____
DOCKED: USER                              x       y       z     vdW  Elec       q    Type
DOCKED: USER                           _______ _______ _______ _____ _____    ______ ____
DOCKED: ROOT
DOCKED: ATOM      1  C   UNL     1      37.919  14.997 122.868 -0.36 -0.00    +0.000 A 
DOCKED: ATOM      2  C   UNL     1      37.731  13.611 122.787 -0.46 -0.00    +0.000 A 
DOCKED: ATOM      3  C   UNL     1      36.565  13.014 123.296 -0.56 -0.00    +0.000 A 
DOCKED: ATOM      4  C   UNL     1      35.593  13.832 123.906 -0.44 -0.00    +0.000 A 
DOCKED: ATOM      5  C   UNL     1      35.779  15.215 123.979 -0.43 -0.00    +0.000 A 
DOCKED: ATOM      6  C   UNL     1      36.935  15.798 123.458 -0.32 -0.00    +0.000 A 
DOCKED: ATOM      7  CM  UNL     1      36.753  14.411 123.382 +0.00 -0.00    +0.000 AC
DOCKED: ENDROOT
DOCKED: BRANCH   1   8
DOCKED: ATOM      8  O   UNL     1      40.536  14.749 122.297 -0.89 -0.00    +0.000 OA
DOCKED: ATOM      9  S   UNL     1      39.393  15.723 122.232 -0.40 -0.00    +0.000 S 
DOCKED: ATOM     10  O   UNL     1      39.730  16.931 123.057 -0.26 -0.00    +0.000 OA
DOCKED: BRANCH   8  10
DOCKED: ATOM     11  N   UNL     1      39.156  16.207 120.580 -0.15 -0.00    +0.000 N 
DOCKED: ATOM     12  H   UNL     1      39.607  17.025 120.269 +0.00 -0.00    +0.000 HD
DOCKED: BRANCH  10  12
DOCKED: ATOM     13  C   UNL     1      38.341  15.484 119.641 -0.17 -0.00    +0.000 A 
DOCKED: ATOM     14  C   UNL     1      37.683  16.125 118.573 -0.13 -0.00    +0.000 A 
DOCKED: ATOM     15  C   UNL     1      36.906  15.387 117.675 -0.19 -0.00    +0.000 A 
DOCKED: ATOM     16  C   UNL     1      36.774  14.006 117.833 -0.35 -0.00    +0.000 A 
DOCKED: ATOM     17  C   UNL     1      37.415  13.360 118.892 -0.38 -0.00    +0.000 A 
DOCKED: ATOM     18  C   UNL     1      38.193  14.094 119.792 -0.26 -0.00    +0.000 A 
DOCKED: ATOM     19  CM  UNL     1      37.552  14.743 118.734 +0.00 -0.00    +0.000 AC
DOCKED: ENDBRANCH  10  12
DOCKED: ENDBRANCH   8  10
DOCKED: ENDBRANCH   1   8
DOCKED: BRANCH   3  18
DOCKED: ATOM     20  C   UNL     1      36.427  11.539 123.204 -0.70 -0.00    +0.000 C 
DOCKED: ATOM     21  C   UNL     1      37.029  10.793 122.266 -0.56 -0.00    +0.000 C 
DOCKED: BRANCH  19  20
DOCKED: ATOM     22  C   UNL     1      36.888   9.324 122.179 -0.68 -0.00    +0.000 C 
DOCKED: ATOM     23  N   UNL     1      36.975   8.474 123.330 -0.69 -0.00    +0.000 N 
DOCKED: ATOM     24  O   UNL     1      36.713   8.805 121.044 -2.59 -0.00    +0.000 OA
DOCKED: ATOM     25  H   UNL     1      37.225   8.855 124.203 -0.56 -0.00    +0.000 HD
DOCKED: BRANCH  21  24
DOCKED: ATOM     26  O   UNL     1      36.712   7.150 123.221 -1.84 -0.00    +0.000 OA
DOCKED: ATOM     27  H   UNL     1      36.683   6.903 122.284 -0.08 -0.00    +0.000 HD
DOCKED: ENDBRANCH  21  24
DOCKED: ENDBRANCH  19  20
DOCKED: ENDBRANCH   3  18
DOCKED: TORSDOF 6DOCKED: TER
DOCKED: ENDMDL
________________________________________________________________________________


	BEGINNING GENETIC ALGORITHM DOCKING 72 of 100
Run: 72 Seed: 744532707 735062172 [ Run 72 of 100 GA/GALS ]
Beginning LAMARCKIAN GENETIC ALGORITHM (LGA), with a maximum of 2500000 energy evaluations.

Final-Value: -14.410


	FINAL GENETIC ALGORITHM DOCKED STATE
	_______________________________________________


Detailed state:  trans 38.194 12.557 122.769 quatxyzw -0.070888 -0.728799 0.616181 0.290081 center 0.320 0.169 0.303 ntor 6 16.8422 -123.3811 -107.7640 -133.8799 6.3059 124.2978
State:	 38.194  12.557 122.769  -0.074 -0.762  0.644 146.274     16.84 -123.38 -107.76 -133.88    6.31  124.30

DOCKED: MODEL       72
DOCKED: USER    Run = 72
DOCKED: USER    DPF = ligand_dock.biased.dpf
DOCKED: USER  
DOCKED: USER    Estimated Free Energy of Binding    =  -10.84 kcal/mol  [=(1)+(2)+(3)-(4)]
DOCKED: USER    Estimated Inhibition Constant, Ki   =   11.36 nM (nanomolar)  [Temperature = 298.15 K]
DOCKED: USER    
DOCKED: USER    (1) Final Intermolecular Energy     =  -12.63 kcal/mol
DOCKED: USER        vdW + Hbond + desolv Energy     =  -12.63 kcal/mol
DOCKED: USER        Electrostatic Energy            =   +0.00 kcal/mol
DOCKED: USER    (2) Final Total Internal Energy     =   -1.78 kcal/mol
DOCKED: USER    (3) Torsional Free Energy           =   +1.79 kcal/mol
DOCKED: USER    (4) Unbound System's Energy  [=(2)] =   -1.78 kcal/mol
DOCKED: USER    
DOCKED: USER    
DOCKED: USER    NEWDPF move ligand.dum.pdbqt
DOCKED: USER    NEWDPF about 0.320000 0.169000 0.303000
DOCKED: USER    NEWDPF tran0 38.193526 12.556578 122.768559
DOCKED: USER    NEWDPF quaternion0 -0.070888 -0.728799 0.616181 0.290081
DOCKED: USER    NEWDPF axisangle0 -0.074073 -0.761544 0.643866 146.274357
DOCKED: USER    NEWDPF quat0 -0.074073 -0.761544 0.643866 146.274357
DOCKED: USER    NEWDPF dihe0 16.84 -123.38 -107.76 -133.88 6.31 124.30 
DOCKED: USER  keepresnum = 1 
DOCKED: USER  
DOCKED: REMARK  Name = 
DOCKED: REMARK  6 active torsions:
DOCKED: REMARK  status: ('A' for Active; 'I' for Inactive)
DOCKED: REMARK    1  A    between atoms: S_2  and  N_3
DOCKED: REMARK    2  A    between atoms: S_2  and  C_10
DOCKED: REMARK    3  A    between atoms: N_3  and  C_4
DOCKED: REMARK    4  A    between atoms: C_12  and  C_13
DOCKED: REMARK    5  A    between atoms: C_14  and  C_15
DOCKED: REMARK    6  A    between atoms: N_16  and  O_17
DOCKED: REMARK                            x       y       z     vdW  Elec       q    Type
DOCKED: REMARK                         _______ _______ _______ _____ _____    ______ ____
DOCKED: USER                              x       y       z     vdW  Elec       q    Type
DOCKED: USER                           _______ _______ _______ _____ _____    ______ ____
DOCKED: ROOT
DOCKED: ATOM      1  C   UNL     1      38.026  14.903 122.764 -0.36 -0.00    +0.000 A 
DOCKED: ATOM      2  C   UNL     1      37.786  13.575 122.387 -0.44 -0.00    +0.000 A 
DOCKED: ATOM      3  C   UNL     1      36.582  12.937 122.734 -0.51 -0.00    +0.000 A 
DOCKED: ATOM      4  C   UNL     1      35.626  13.651 123.484 -0.44 -0.00    +0.000 A 
DOCKED: ATOM      5  C   UNL     1      35.864  14.978 123.852 -0.45 -0.00    +0.000 A 
DOCKED: ATOM      6  C   UNL     1      37.057  15.605 123.490 -0.32 -0.00    +0.000 A 
DOCKED: ATOM      7  CM  UNL     1      36.823  14.275 123.118 +0.00 -0.00    +0.000 AC
DOCKED: ENDROOT
DOCKED: BRANCH   1   8
DOCKED: ATOM      8  O   UNL     1      40.658  14.673 122.263 -0.94 -0.00    +0.000 OA
DOCKED: ATOM      9  S   UNL     1      39.545  15.681 122.327 -0.42 -0.00    +0.000 S 
DOCKED: ATOM     10  O   UNL     1      39.876  16.712 123.366 -0.32 -0.00    +0.000 OA
DOCKED: BRANCH   8  10
DOCKED: ATOM     11  N   UNL     1      39.396  16.456 120.779 -0.14 -0.00    +0.000 N 
DOCKED: ATOM     12  H   UNL     1      39.732  17.376 120.690 +0.00 -0.00    +0.000 HD
DOCKED: BRANCH  10  12
DOCKED: ATOM     13  C   UNL     1      38.811  15.832 119.622 -0.15 -0.00    +0.000 A 
DOCKED: ATOM     14  C   UNL     1      39.543  15.621 118.437 -0.10 -0.00    +0.000 A 
DOCKED: ATOM     15  C   UNL     1      38.942  15.003 117.335 -0.12 -0.00    +0.000 A 
DOCKED: ATOM     16  C   UNL     1      37.608  14.595 117.402 -0.25 -0.00    +0.000 A 
DOCKED: ATOM     17  C   UNL     1      36.871  14.807 118.568 -0.25 -0.00    +0.000 A 
DOCKED: ATOM     18  C   UNL     1      37.468  15.423 119.673 -0.20 -0.00    +0.000 A 
DOCKED: ATOM     19  CM  UNL     1      38.207  15.213 118.506 +0.00 -0.00    +0.000 AC
DOCKED: ENDBRANCH  10  12
DOCKED: ENDBRANCH   8  10
DOCKED: ENDBRANCH   1   8
DOCKED: BRANCH   3  18
DOCKED: ATOM     20  C   UNL     1      36.389  11.522 122.329 -0.64 -0.00    +0.000 C 
DOCKED: ATOM     21  C   UNL     1      37.104  10.502 122.827 -0.53 -0.00    +0.000 C 
DOCKED: BRANCH  19  20
DOCKED: ATOM     22  C   UNL     1      36.908   9.095 122.420 -0.69 -0.00    +0.000 C 
DOCKED: ATOM     23  N   UNL     1      36.988   8.007 123.351 -0.74 -0.00    +0.000 N 
DOCKED: ATOM     24  O   UNL     1      36.689   8.847 121.203 -2.61 -0.00    +0.000 OA
DOCKED: ATOM     25  H   UNL     1      37.271   8.175 124.278 -0.38 -0.00    +0.000 HD
DOCKED: BRANCH  21  24
DOCKED: ATOM     26  O   UNL     1      36.675   6.749 122.957 -1.48 -0.00    +0.000 OA
DOCKED: ATOM     27  H   UNL     1      36.678   6.703 121.989 -0.13 -0.00    +0.000 HD
DOCKED: ENDBRANCH  21  24
DOCKED: ENDBRANCH  19  20
DOCKED: ENDBRANCH   3  18
DOCKED: TORSDOF 6DOCKED: TER
DOCKED: ENDMDL
________________________________________________________________________________


	BEGINNING GENETIC ALGORITHM DOCKING 73 of 100
Run: 73 Seed: 1971690100 862951012 [ Run 73 of 100 GA/GALS ]
Beginning LAMARCKIAN GENETIC ALGORITHM (LGA), with a maximum of 2500000 energy evaluations.

Final-Value: -15.254


	FINAL GENETIC ALGORITHM DOCKED STATE
	_______________________________________________


Detailed state:  trans 35.668 13.291 122.199 quatxyzw 0.785112 -0.390516 -0.006678 -0.480678 center 0.320 0.169 0.303 ntor 6 15.1843 175.5795 88.1825 101.4198 60.9824 -99.7559
State:	 35.668  13.291 122.199   0.895 -0.445 -0.008 -122.541     15.18  175.58   88.18  101.42   60.98  -99.76

DOCKED: MODEL       73
DOCKED: USER    Run = 73
DOCKED: USER    DPF = ligand_dock.biased.dpf
DOCKED: USER  
DOCKED: USER    Estimated Free Energy of Binding    =  -11.69 kcal/mol  [=(1)+(2)+(3)-(4)]
DOCKED: USER    Estimated Inhibition Constant, Ki   =    2.69 nM (nanomolar)  [Temperature = 298.15 K]
DOCKED: USER    
DOCKED: USER    (1) Final Intermolecular Energy     =  -13.48 kcal/mol
DOCKED: USER        vdW + Hbond + desolv Energy     =  -13.48 kcal/mol
DOCKED: USER        Electrostatic Energy            =   +0.00 kcal/mol
DOCKED: USER    (2) Final Total Internal Energy     =   -1.77 kcal/mol
DOCKED: USER    (3) Torsional Free Energy           =   +1.79 kcal/mol
DOCKED: USER    (4) Unbound System's Energy  [=(2)] =   -1.77 kcal/mol
DOCKED: USER    
DOCKED: USER    
DOCKED: USER    NEWDPF move ligand.dum.pdbqt
DOCKED: USER    NEWDPF about 0.320000 0.169000 0.303000
DOCKED: USER    NEWDPF tran0 35.667782 13.290873 122.199420
DOCKED: USER    NEWDPF quaternion0 0.785112 -0.390516 -0.006678 -0.480678
DOCKED: USER    NEWDPF axisangle0 0.895330 -0.445339 -0.007615 -122.540610
DOCKED: USER    NEWDPF quat0 0.895330 -0.445339 -0.007615 -122.540610
DOCKED: USER    NEWDPF dihe0 15.18 175.58 88.18 101.42 60.98 -99.76 
DOCKED: USER  keepresnum = 1 
DOCKED: USER  
DOCKED: REMARK  Name = 
DOCKED: REMARK  6 active torsions:
DOCKED: REMARK  status: ('A' for Active; 'I' for Inactive)
DOCKED: REMARK    1  A    between atoms: S_2  and  N_3
DOCKED: REMARK    2  A    between atoms: S_2  and  C_10
DOCKED: REMARK    3  A    between atoms: N_3  and  C_4
DOCKED: REMARK    4  A    between atoms: C_12  and  C_13
DOCKED: REMARK    5  A    between atoms: C_14  and  C_15
DOCKED: REMARK    6  A    between atoms: N_16  and  O_17
DOCKED: REMARK                            x       y       z     vdW  Elec       q    Type
DOCKED: REMARK                         _______ _______ _______ _____ _____    ______ ____
DOCKED: USER                              x       y       z     vdW  Elec       q    Type
DOCKED: USER                           _______ _______ _______ _____ _____    ______ ____
DOCKED: ROOT
DOCKED: ATOM      1  C   UNL     1      35.939  15.158 123.604 -0.43 -0.00    +0.000 A 
DOCKED: ATOM      2  C   UNL     1      36.041  13.835 123.156 -0.42 -0.00    +0.000 A 
DOCKED: ATOM      3  C   UNL     1      37.258  13.336 122.660 -0.48 -0.00    +0.000 A 
DOCKED: ATOM      4  C   UNL     1      38.373  14.196 122.605 -0.41 -0.00    +0.000 A 
DOCKED: ATOM      5  C   UNL     1      38.272  15.514 123.060 -0.29 -0.00    +0.000 A 
DOCKED: ATOM      6  C   UNL     1      37.061  15.994 123.563 -0.28 -0.00    +0.000 A 
DOCKED: ATOM      7  CM  UNL     1      37.158  14.672 123.108 +0.00 -0.00    +0.000 AC
DOCKED: ENDROOT
DOCKED: BRANCH   1   8
DOCKED: ATOM      8  O   UNL     1      34.430  15.878 125.711 -0.57 -0.00    +0.000 OA
DOCKED: ATOM      9  S   UNL     1      34.401  15.766 124.212 -0.73 -0.00    +0.000 S 
DOCKED: ATOM     10  O   UNL     1      33.313  14.811 123.813 -0.64 -0.00    +0.000 OA
DOCKED: BRANCH   8  10
DOCKED: ATOM     11  N   UNL     1      34.066  17.330 123.535 -0.42 -0.00    +0.000 N 
DOCKED: ATOM     12  H   UNL     1      33.295  17.830 123.887 -0.03 -0.00    +0.000 HD
DOCKED: BRANCH  10  12
DOCKED: ATOM     13  C   UNL     1      34.849  17.937 122.491 -0.31 -0.00    +0.000 A 
DOCKED: ATOM     14  C   UNL     1      34.732  17.541 121.144 -0.23 -0.00    +0.000 A 
DOCKED: ATOM     15  C   UNL     1      35.503  18.161 120.155 -0.19 -0.00    +0.000 A 
DOCKED: ATOM     16  C   UNL     1      36.399  19.175 120.499 -0.13 -0.00    +0.000 A 
DOCKED: ATOM     17  C   UNL     1      36.529  19.570 121.832 -0.14 -0.00    +0.000 A 
DOCKED: ATOM     18  C   UNL     1      35.759  18.954 122.823 -0.20 -0.00    +0.000 A 
DOCKED: ATOM     19  CM  UNL     1      35.628  18.556 121.490 +0.00 -0.00    +0.000 AC
DOCKED: ENDBRANCH  10  12
DOCKED: ENDBRANCH   8  10
DOCKED: ENDBRANCH   1   8
DOCKED: BRANCH   3  18
DOCKED: ATOM     20  C   UNL     1      37.304  11.933 122.178 -0.49 -0.00    +0.000 C 
DOCKED: ATOM     21  C   UNL     1      36.979  10.875 122.936 -0.63 -0.00    +0.000 C 
DOCKED: BRANCH  19  20
DOCKED: ATOM     22  C   UNL     1      37.027   9.480 122.451 -0.63 -0.00    +0.000 C 
DOCKED: ATOM     23  N   UNL     1      37.147   8.361 123.339 -0.70 -0.00    +0.000 N 
DOCKED: ATOM     24  O   UNL     1      36.987   9.276 121.208 -2.67 -0.00    +0.000 OA
DOCKED: ATOM     25  H   UNL     1      37.294   8.512 124.301 -0.50 -0.00    +0.000 HD
DOCKED: BRANCH  21  24
DOCKED: ATOM     26  O   UNL     1      37.058   7.097 122.859 -1.82 -0.00    +0.000 OA
DOCKED: ATOM     27  H   UNL     1      37.154   7.111 121.894 -0.13 -0.00    +0.000 HD
DOCKED: ENDBRANCH  21  24
DOCKED: ENDBRANCH  19  20
DOCKED: ENDBRANCH   3  18
DOCKED: TORSDOF 6DOCKED: TER
DOCKED: ENDMDL
________________________________________________________________________________


	BEGINNING GENETIC ALGORITHM DOCKING 74 of 100
Run: 74 Seed: 1730950434 2123709879 [ Run 74 of 100 GA/GALS ]
Beginning LAMARCKIAN GENETIC ALGORITHM (LGA), with a maximum of 2500000 energy evaluations.

Final-Value: -14.618


	FINAL GENETIC ALGORITHM DOCKED STATE
	_______________________________________________


Detailed state:  trans 37.597 13.053 122.030 quatxyzw 0.265631 -0.725999 0.628997 0.082025 center 0.320 0.169 0.303 ntor 6 19.7681 -32.4197 86.7111 -179.9420 -5.4771 -22.3695
State:	 37.597  13.053 122.030   0.267 -0.728  0.631 170.590     19.77  -32.42   86.71 -179.94   -5.48  -22.37

DOCKED: MODEL       74
DOCKED: USER    Run = 74
DOCKED: USER    DPF = ligand_dock.biased.dpf
DOCKED: USER  
DOCKED: USER    Estimated Free Energy of Binding    =  -11.05 kcal/mol  [=(1)+(2)+(3)-(4)]
DOCKED: USER    Estimated Inhibition Constant, Ki   =    8.01 nM (nanomolar)  [Temperature = 298.15 K]
DOCKED: USER    
DOCKED: USER    (1) Final Intermolecular Energy     =  -12.84 kcal/mol
DOCKED: USER        vdW + Hbond + desolv Energy     =  -12.84 kcal/mol
DOCKED: USER        Electrostatic Energy            =   +0.00 kcal/mol
DOCKED: USER    (2) Final Total Internal Energy     =   -1.78 kcal/mol
DOCKED: USER    (3) Torsional Free Energy           =   +1.79 kcal/mol
DOCKED: USER    (4) Unbound System's Energy  [=(2)] =   -1.78 kcal/mol
DOCKED: USER    
DOCKED: USER    
DOCKED: USER    NEWDPF move ligand.dum.pdbqt
DOCKED: USER    NEWDPF about 0.320000 0.169000 0.303000
DOCKED: USER    NEWDPF tran0 37.597102 13.053189 122.029551
DOCKED: USER    NEWDPF quaternion0 0.265631 -0.725999 0.628997 0.082025
DOCKED: USER    NEWDPF axisangle0 0.266529 -0.728454 0.631124 170.590097
DOCKED: USER    NEWDPF quat0 0.266529 -0.728454 0.631124 170.590097
DOCKED: USER    NEWDPF dihe0 19.77 -32.42 86.71 -179.94 -5.48 -22.37 
DOCKED: USER  keepresnum = 1 
DOCKED: USER  
DOCKED: REMARK  Name = 
DOCKED: REMARK  6 active torsions:
DOCKED: REMARK  status: ('A' for Active; 'I' for Inactive)
DOCKED: REMARK    1  A    between atoms: S_2  and  N_3
DOCKED: REMARK    2  A    between atoms: S_2  and  C_10
DOCKED: REMARK    3  A    between atoms: N_3  and  C_4
DOCKED: REMARK    4  A    between atoms: C_12  and  C_13
DOCKED: REMARK    5  A    between atoms: C_14  and  C_15
DOCKED: REMARK    6  A    between atoms: N_16  and  O_17
DOCKED: REMARK                            x       y       z     vdW  Elec       q    Type
DOCKED: REMARK                         _______ _______ _______ _____ _____    ______ ____
DOCKED: USER                              x       y       z     vdW  Elec       q    Type
DOCKED: USER                           _______ _______ _______ _____ _____    ______ ____
DOCKED: ROOT
DOCKED: ATOM      1  C   UNL     1      36.826  15.273 121.925 -0.25 -0.00    +0.000 A 
DOCKED: ATOM      2  C   UNL     1      36.779  13.873 121.938 -0.29 -0.00    +0.000 A 
DOCKED: ATOM      3  C   UNL     1      36.315  13.181 123.070 -0.52 -0.00    +0.000 A 
DOCKED: ATOM      4  C   UNL     1      35.913  13.920 124.201 -0.39 -0.00    +0.000 A 
DOCKED: ATOM      5  C   UNL     1      35.954  15.317 124.184 -0.38 -0.00    +0.000 A 
DOCKED: ATOM      6  C   UNL     1      36.403  15.993 123.048 -0.32 -0.00    +0.000 A 
DOCKED: ATOM      7  CM  UNL     1      36.365  14.593 123.061 +0.00 -0.00    +0.000 AC
DOCKED: ENDROOT
DOCKED: BRANCH   1   8
DOCKED: ATOM      8  O   UNL     1      37.438  17.605 120.733 -0.11 -0.00    +0.000 OA
DOCKED: ATOM      9  S   UNL     1      37.420  16.120 120.499 -0.24 -0.00    +0.000 S 
DOCKED: ATOM     10  O   UNL     1      36.511  15.817 119.344 -0.21 -0.00    +0.000 OA
DOCKED: BRANCH   8  10
DOCKED: ATOM     11  N   UNL     1      39.029  15.589 120.115 -0.18 -0.00    +0.000 N 
DOCKED: ATOM     12  H   UNL     1      39.186  15.199 119.225 -0.05 -0.00    +0.000 HD
DOCKED: BRANCH  10  12
DOCKED: ATOM     13  C   UNL     1      40.143  15.686 121.020 -0.22 -0.00    +0.000 A 
DOCKED: ATOM     14  C   UNL     1      40.296  14.811 122.114 -0.38 -0.00    +0.000 A 
DOCKED: ATOM     15  C   UNL     1      41.398  14.931 122.966 -0.45 -0.00    +0.000 A 
DOCKED: ATOM     16  C   UNL     1      42.354  15.923 122.741 -0.43 -0.00    +0.000 A 
DOCKED: ATOM     17  C   UNL     1      42.209  16.800 121.665 -0.23 -0.00    +0.000 A 
DOCKED: ATOM     18  C   UNL     1      41.110  16.684 120.808 -0.15 -0.00    +0.000 A 
DOCKED: ATOM     19  CM  UNL     1      41.252  15.805 121.885 +0.00 -0.00    +0.000 AC
DOCKED: ENDBRANCH  10  12
DOCKED: ENDBRANCH   8  10
DOCKED: ENDBRANCH   1   8
DOCKED: BRANCH   3  18
DOCKED: ATOM     20  C   UNL     1      36.308  11.697 123.039 -0.69 -0.00    +0.000 C 
DOCKED: ATOM     21  C   UNL     1      37.066  10.967 122.206 -0.55 -0.00    +0.000 C 
DOCKED: BRANCH  19  20
DOCKED: ATOM     22  C   UNL     1      37.055   9.490 122.179 -0.62 -0.00    +0.000 C 
DOCKED: ATOM     23  N   UNL     1      37.210   8.698 123.364 -0.62 -0.00    +0.000 N 
DOCKED: ATOM     24  O   UNL     1      36.931   8.911 121.066 -2.67 -0.00    +0.000 OA
DOCKED: ATOM     25  H   UNL     1      37.422   9.133 124.221 -0.62 -0.00    +0.000 HD
DOCKED: BRANCH  21  24
DOCKED: ATOM     26  O   UNL     1      37.065   7.352 123.308 -2.13 -0.00    +0.000 OA
DOCKED: ATOM     27  H   UNL     1      37.171   7.053 122.392 -0.14 -0.00    +0.000 HD
DOCKED: ENDBRANCH  21  24
DOCKED: ENDBRANCH  19  20
DOCKED: ENDBRANCH   3  18
DOCKED: TORSDOF 6DOCKED: TER
DOCKED: ENDMDL
________________________________________________________________________________


	BEGINNING GENETIC ALGORITHM DOCKING 75 of 100
Run: 75 Seed: 69858375 1921223718 [ Run 75 of 100 GA/GALS ]
Beginning LAMARCKIAN GENETIC ALGORITHM (LGA), with a maximum of 2500000 energy evaluations.

Final-Value: -14.323


	FINAL GENETIC ALGORITHM DOCKED STATE
	_______________________________________________


Detailed state:  trans 36.064 12.999 121.941 quatxyzw 0.603882 -0.027227 -0.273532 -0.748174 center 0.320 0.169 0.303 ntor 6 18.7173 171.3766 49.5288 168.9165 -1.0290 166.4568
State:	 36.064  12.999 121.941   0.910 -0.041 -0.412 -83.135     18.72  171.38   49.53  168.92   -1.03  166.46

DOCKED: MODEL       75
DOCKED: USER    Run = 75
DOCKED: USER    DPF = ligand_dock.biased.dpf
DOCKED: USER  
DOCKED: USER    Estimated Free Energy of Binding    =  -10.87 kcal/mol  [=(1)+(2)+(3)-(4)]
DOCKED: USER    Estimated Inhibition Constant, Ki   =   10.78 nM (nanomolar)  [Temperature = 298.15 K]
DOCKED: USER    
DOCKED: USER    (1) Final Intermolecular Energy     =  -12.66 kcal/mol
DOCKED: USER        vdW + Hbond + desolv Energy     =  -12.66 kcal/mol
DOCKED: USER        Electrostatic Energy            =   +0.00 kcal/mol
DOCKED: USER    (2) Final Total Internal Energy     =   -1.66 kcal/mol
DOCKED: USER    (3) Torsional Free Energy           =   +1.79 kcal/mol
DOCKED: USER    (4) Unbound System's Energy  [=(2)] =   -1.66 kcal/mol
DOCKED: USER    
DOCKED: USER    
DOCKED: USER    NEWDPF move ligand.dum.pdbqt
DOCKED: USER    NEWDPF about 0.320000 0.169000 0.303000
DOCKED: USER    NEWDPF tran0 36.064393 12.998503 121.941031
DOCKED: USER    NEWDPF quaternion0 0.603882 -0.027227 -0.273532 -0.748174
DOCKED: USER    NEWDPF axisangle0 0.910144 -0.041035 -0.412255 -83.135035
DOCKED: USER    NEWDPF quat0 0.910144 -0.041035 -0.412255 -83.135035
DOCKED: USER    NEWDPF dihe0 18.72 171.38 49.53 168.92 -1.03 166.46 
DOCKED: USER  keepresnum = 1 
DOCKED: USER  
DOCKED: REMARK  Name = 
DOCKED: REMARK  6 active torsions:
DOCKED: REMARK  status: ('A' for Active; 'I' for Inactive)
DOCKED: REMARK    1  A    between atoms: S_2  and  N_3
DOCKED: REMARK    2  A    between atoms: S_2  and  C_10
DOCKED: REMARK    3  A    between atoms: N_3  and  C_4
DOCKED: REMARK    4  A    between atoms: C_12  and  C_13
DOCKED: REMARK    5  A    between atoms: C_14  and  C_15
DOCKED: REMARK    6  A    between atoms: N_16  and  O_17
DOCKED: REMARK                            x       y       z     vdW  Elec       q    Type
DOCKED: REMARK                         _______ _______ _______ _____ _____    ______ ____
DOCKED: USER                              x       y       z     vdW  Elec       q    Type
DOCKED: USER                           _______ _______ _______ _____ _____    ______ ____
DOCKED: ROOT
DOCKED: ATOM      1  C   UNL     1      36.692  15.265 121.895 -0.22 -0.00    +0.000 A 
DOCKED: ATOM      2  C   UNL     1      36.831  13.871 121.919 -0.30 -0.00    +0.000 A 
DOCKED: ATOM      3  C   UNL     1      37.218  13.168 120.765 -0.41 -0.00    +0.000 A 
DOCKED: ATOM      4  C   UNL     1      37.449  13.888 119.576 -0.34 -0.00    +0.000 A 
DOCKED: ATOM      5  C   UNL     1      37.317  15.279 119.555 -0.20 -0.00    +0.000 A 
DOCKED: ATOM      6  C   UNL     1      36.945  15.968 120.711 -0.17 -0.00    +0.000 A 
DOCKED: ATOM      7  CM  UNL     1      37.076  14.573 120.737 +0.00 -0.00    +0.000 AC
DOCKED: ENDROOT
DOCKED: BRANCH   1   8
DOCKED: ATOM      8  O   UNL     1      36.246  15.218 124.547 -0.40 -0.00    +0.000 OA
DOCKED: ATOM      9  S   UNL     1      36.196  16.126 123.350 -0.47 -0.00    +0.000 S 
DOCKED: ATOM     10  O   UNL     1      34.789  16.616 123.165 -0.43 -0.00    +0.000 OA
DOCKED: BRANCH   8  10
DOCKED: ATOM     11  N   UNL     1      37.243  17.484 123.627 -0.21 -0.00    +0.000 N 
DOCKED: ATOM     12  H   UNL     1      36.830  18.371 123.734 +0.00 -0.00    +0.000 HD
DOCKED: BRANCH  10  12
DOCKED: ATOM     13  C   UNL     1      38.676  17.389 123.709 -0.21 -0.00    +0.000 A 
DOCKED: ATOM     14  C   UNL     1      39.417  16.526 122.878 -0.23 -0.00    +0.000 A 
DOCKED: ATOM     15  C   UNL     1      40.810  16.467 122.980 -0.31 -0.00    +0.000 A 
DOCKED: ATOM     16  C   UNL     1      41.478  17.264 123.913 -0.28 -0.00    +0.000 A 
DOCKED: ATOM     17  C   UNL     1      40.754  18.118 124.747 -0.29 -0.00    +0.000 A 
DOCKED: ATOM     18  C   UNL     1      39.361  18.181 124.647 -0.21 -0.00    +0.000 A 
DOCKED: ATOM     19  CM  UNL     1      40.083  17.324 123.812 +0.00 -0.00    +0.000 AC
DOCKED: ENDBRANCH  10  12
DOCKED: ENDBRANCH   8  10
DOCKED: ENDBRANCH   1   8
DOCKED: BRANCH   3  18
DOCKED: ATOM     20  C   UNL     1      37.328  11.690 120.841 -0.49 -0.00    +0.000 C 
DOCKED: ATOM     21  C   UNL     1      36.897  10.965 121.884 -0.56 -0.00    +0.000 C 
DOCKED: BRANCH  19  20
DOCKED: ATOM     22  C   UNL     1      37.009   9.493 121.955 -0.63 -0.00    +0.000 C 
DOCKED: ATOM     23  N   UNL     1      37.088   8.787 123.200 -0.67 -0.00    +0.000 N 
DOCKED: ATOM     24  O   UNL     1      37.064   8.843 120.876 -2.72 -0.00    +0.000 OA
DOCKED: ATOM     25  H   UNL     1      37.161   9.288 124.044 -0.54 -0.00    +0.000 HD
DOCKED: BRANCH  21  24
DOCKED: ATOM     26  O   UNL     1      37.060   7.432 123.219 -2.18 -0.00    +0.000 OA
DOCKED: ATOM     27  H   UNL     1      37.280   7.093 122.337 -0.16 -0.00    +0.000 HD
DOCKED: ENDBRANCH  21  24
DOCKED: ENDBRANCH  19  20
DOCKED: ENDBRANCH   3  18
DOCKED: TORSDOF 6DOCKED: TER
DOCKED: ENDMDL
________________________________________________________________________________


	BEGINNING GENETIC ALGORITHM DOCKING 76 of 100
Run: 76 Seed: 1492975620 1201196658 [ Run 76 of 100 GA/GALS ]
Beginning LAMARCKIAN GENETIC ALGORITHM (LGA), with a maximum of 2500000 energy evaluations.

Final-Value: -15.110


	FINAL GENETIC ALGORITHM DOCKED STATE
	_______________________________________________


Detailed state:  trans 38.280 12.832 123.180 quatxyzw 0.022228 -0.672912 0.685827 0.276291 center 0.320 0.169 0.303 ntor 6 12.7784 -21.7395 -78.8261 132.3135 80.6575 88.6705
State:	 38.280  12.832 123.180   0.023 -0.700  0.714 147.922     12.78  -21.74  -78.83  132.31   80.66   88.67

DOCKED: MODEL       76
DOCKED: USER    Run = 76
DOCKED: USER    DPF = ligand_dock.biased.dpf
DOCKED: USER  
DOCKED: USER    Estimated Free Energy of Binding    =  -11.28 kcal/mol  [=(1)+(2)+(3)-(4)]
DOCKED: USER    Estimated Inhibition Constant, Ki   =    5.38 nM (nanomolar)  [Temperature = 298.15 K]
DOCKED: USER    
DOCKED: USER    (1) Final Intermolecular Energy     =  -13.07 kcal/mol
DOCKED: USER        vdW + Hbond + desolv Energy     =  -13.07 kcal/mol
DOCKED: USER        Electrostatic Energy            =   +0.00 kcal/mol
DOCKED: USER    (2) Final Total Internal Energy     =   -2.04 kcal/mol
DOCKED: USER    (3) Torsional Free Energy           =   +1.79 kcal/mol
DOCKED: USER    (4) Unbound System's Energy  [=(2)] =   -2.04 kcal/mol
DOCKED: USER    
DOCKED: USER    
DOCKED: USER    NEWDPF move ligand.dum.pdbqt
DOCKED: USER    NEWDPF about 0.320000 0.169000 0.303000
DOCKED: USER    NEWDPF tran0 38.279928 12.832202 123.179948
DOCKED: USER    NEWDPF quaternion0 0.022228 -0.672912 0.685827 0.276291
DOCKED: USER    NEWDPF axisangle0 0.023128 -0.700167 0.713605 147.922017
DOCKED: USER    NEWDPF quat0 0.023128 -0.700167 0.713605 147.922017
DOCKED: USER    NEWDPF dihe0 12.78 -21.74 -78.83 132.31 80.66 88.67 
DOCKED: USER  keepresnum = 1 
DOCKED: USER  
DOCKED: REMARK  Name = 
DOCKED: REMARK  6 active torsions:
DOCKED: REMARK  status: ('A' for Active; 'I' for Inactive)
DOCKED: REMARK    1  A    between atoms: S_2  and  N_3
DOCKED: REMARK    2  A    between atoms: S_2  and  C_10
DOCKED: REMARK    3  A    between atoms: N_3  and  C_4
DOCKED: REMARK    4  A    between atoms: C_12  and  C_13
DOCKED: REMARK    5  A    between atoms: C_14  and  C_15
DOCKED: REMARK    6  A    between atoms: N_16  and  O_17
DOCKED: REMARK                            x       y       z     vdW  Elec       q    Type
DOCKED: REMARK                         _______ _______ _______ _____ _____    ______ ____
DOCKED: USER                              x       y       z     vdW  Elec       q    Type
DOCKED: USER                           _______ _______ _______ _____ _____    ______ ____
DOCKED: ROOT
DOCKED: ATOM      1  C   UNL     1      37.920  15.104 122.687 -0.34 -0.00    +0.000 A 
DOCKED: ATOM      2  C   UNL     1      37.752  13.714 122.638 -0.45 -0.00    +0.000 A 
DOCKED: ATOM      3  C   UNL     1      36.648  13.102 123.256 -0.55 -0.00    +0.000 A 
DOCKED: ATOM      4  C   UNL     1      35.718  13.910 123.942 -0.45 -0.00    +0.000 A 
DOCKED: ATOM      5  C   UNL     1      35.884  15.297 123.983 -0.41 -0.00    +0.000 A 
DOCKED: ATOM      6  C   UNL     1      36.977  15.895 123.354 -0.31 -0.00    +0.000 A 
DOCKED: ATOM      7  CM  UNL     1      36.816  14.504 123.310 +0.00 -0.00    +0.000 AC
DOCKED: ENDROOT
DOCKED: BRANCH   1   8
DOCKED: ATOM      8  O   UNL     1      40.587  15.448 122.611 -0.50 -0.00    +0.000 OA
DOCKED: ATOM      9  S   UNL     1      39.317  15.849 121.914 -0.35 -0.00    +0.000 S 
DOCKED: ATOM     10  O   UNL     1      39.169  17.342 121.986 -0.14 -0.00    +0.000 OA
DOCKED: BRANCH   8  10
DOCKED: ATOM     11  N   UNL     1      39.408  15.364 120.249 -0.20 -0.00    +0.000 N 
DOCKED: ATOM     12  H   UNL     1      40.295  15.344 119.821 -0.03 -0.00    +0.000 HD
DOCKED: BRANCH  10  12
DOCKED: ATOM     13  C   UNL     1      38.266  14.989 119.458 -0.20 -0.00    +0.000 A 
DOCKED: ATOM     14  C   UNL     1      37.812  13.657 119.384 -0.31 -0.00    +0.000 A 
DOCKED: ATOM     15  C   UNL     1      36.693  13.333 118.612 -0.36 -0.00    +0.000 A 
DOCKED: ATOM     16  C   UNL     1      36.018  14.329 117.903 -0.31 -0.00    +0.000 A 
DOCKED: ATOM     17  C   UNL     1      36.463  15.651 117.962 -0.18 -0.00    +0.000 A 
DOCKED: ATOM     18  C   UNL     1      37.581  15.980 118.734 -0.14 -0.00    +0.000 A 
DOCKED: ATOM     19  CM  UNL     1      37.139  14.657 118.676 +0.00 -0.00    +0.000 AC
DOCKED: ENDBRANCH  10  12
DOCKED: ENDBRANCH   8  10
DOCKED: ENDBRANCH   1   8
DOCKED: BRANCH   3  18
DOCKED: ATOM     20  C   UNL     1      36.531  11.624 123.193 -0.70 -0.00    +0.000 C 
DOCKED: ATOM     21  C   UNL     1      37.062  10.877 122.213 -0.55 -0.00    +0.000 C 
DOCKED: BRANCH  19  20
DOCKED: ATOM     22  C   UNL     1      36.943   9.405 122.155 -0.66 -0.00    +0.000 C 
DOCKED: ATOM     23  N   UNL     1      37.049   8.579 123.322 -0.68 -0.00    +0.000 N 
DOCKED: ATOM     24  O   UNL     1      36.769   8.862 121.031 -2.63 -0.00    +0.000 OA
DOCKED: ATOM     25  H   UNL     1      37.298   8.979 124.186 -0.58 -0.00    +0.000 HD
DOCKED: BRANCH  21  24
DOCKED: ATOM     26  O   UNL     1      36.805   7.248 123.239 -1.95 -0.00    +0.000 OA
DOCKED: ATOM     27  H   UNL     1      36.773   6.983 122.307 -0.08 -0.00    +0.000 HD
DOCKED: ENDBRANCH  21  24
DOCKED: ENDBRANCH  19  20
DOCKED: ENDBRANCH   3  18
DOCKED: TORSDOF 6DOCKED: TER
DOCKED: ENDMDL
________________________________________________________________________________


	BEGINNING GENETIC ALGORITHM DOCKING 77 of 100
Run: 77 Seed: 933621750 424092477 [ Run 77 of 100 GA/GALS ]
Beginning LAMARCKIAN GENETIC ALGORITHM (LGA), with a maximum of 2500000 energy evaluations.

Final-Value: -14.771


	FINAL GENETIC ALGORITHM DOCKED STATE
	_______________________________________________


Detailed state:  trans 38.009 12.523 122.914 quatxyzw 0.018188 0.713056 -0.658126 -0.241018 center 0.320 0.169 0.303 ntor 6 9.1477 -65.9810 90.6459 -180.0000 79.6661 88.1867
State:	 38.009  12.523 122.914   0.019  0.735 -0.678 -152.107      9.15  -65.98   90.65 -180.00   79.67   88.19

DOCKED: MODEL       77
DOCKED: USER    Run = 77
DOCKED: USER    DPF = ligand_dock.biased.dpf
DOCKED: USER  
DOCKED: USER    Estimated Free Energy of Binding    =  -10.97 kcal/mol  [=(1)+(2)+(3)-(4)]
DOCKED: USER    Estimated Inhibition Constant, Ki   =    9.06 nM (nanomolar)  [Temperature = 298.15 K]
DOCKED: USER    
DOCKED: USER    (1) Final Intermolecular Energy     =  -12.76 kcal/mol
DOCKED: USER        vdW + Hbond + desolv Energy     =  -12.76 kcal/mol
DOCKED: USER        Electrostatic Energy            =   +0.00 kcal/mol
DOCKED: USER    (2) Final Total Internal Energy     =   -2.01 kcal/mol
DOCKED: USER    (3) Torsional Free Energy           =   +1.79 kcal/mol
DOCKED: USER    (4) Unbound System's Energy  [=(2)] =   -2.01 kcal/mol
DOCKED: USER    
DOCKED: USER    
DOCKED: USER    NEWDPF move ligand.dum.pdbqt
DOCKED: USER    NEWDPF about 0.320000 0.169000 0.303000
DOCKED: USER    NEWDPF tran0 38.009108 12.522531 122.913945
DOCKED: USER    NEWDPF quaternion0 0.018188 0.713056 -0.658126 -0.241018
DOCKED: USER    NEWDPF axisangle0 0.018741 0.734715 -0.678117 -152.106730
DOCKED: USER    NEWDPF quat0 0.018741 0.734715 -0.678117 -152.106730
DOCKED: USER    NEWDPF dihe0 9.15 -65.98 90.65 -180.00 79.67 88.19 
DOCKED: USER  keepresnum = 1 
DOCKED: USER  
DOCKED: REMARK  Name = 
DOCKED: REMARK  6 active torsions:
DOCKED: REMARK  status: ('A' for Active; 'I' for Inactive)
DOCKED: REMARK    1  A    between atoms: S_2  and  N_3
DOCKED: REMARK    2  A    between atoms: S_2  and  C_10
DOCKED: REMARK    3  A    between atoms: N_3  and  C_4
DOCKED: REMARK    4  A    between atoms: C_12  and  C_13
DOCKED: REMARK    5  A    between atoms: C_14  and  C_15
DOCKED: REMARK    6  A    between atoms: N_16  and  O_17
DOCKED: REMARK                            x       y       z     vdW  Elec       q    Type
DOCKED: REMARK                         _______ _______ _______ _____ _____    ______ ____
DOCKED: USER                              x       y       z     vdW  Elec       q    Type
DOCKED: USER                           _______ _______ _______ _____ _____    ______ ____
DOCKED: ROOT
DOCKED: ATOM      1  C   UNL     1      37.850  14.859 122.686 -0.37 -0.00    +0.000 A 
DOCKED: ATOM      2  C   UNL     1      37.557  13.503 122.485 -0.46 -0.00    +0.000 A 
DOCKED: ATOM      3  C   UNL     1      36.409  12.925 123.053 -0.54 -0.00    +0.000 A 
DOCKED: ATOM      4  C   UNL     1      35.563  13.728 123.844 -0.45 -0.00    +0.000 A 
DOCKED: ATOM      5  C   UNL     1      35.853  15.082 124.037 -0.43 -0.00    +0.000 A 
DOCKED: ATOM      6  C   UNL     1      36.989  15.648 123.457 -0.33 -0.00    +0.000 A 
DOCKED: ATOM      7  CM  UNL     1      36.703  14.291 123.260 +0.00 -0.00    +0.000 AC
DOCKED: ENDROOT
DOCKED: BRANCH   1   8
DOCKED: ATOM      8  O   UNL     1      40.535  14.981 122.603 -0.73 -0.00    +0.000 OA
DOCKED: ATOM      9  S   UNL     1      39.300  15.561 121.973 -0.40 -0.00    +0.000 S 
DOCKED: ATOM     10  O   UNL     1      39.282  17.044 122.204 -0.17 -0.00    +0.000 OA
DOCKED: BRANCH   8  10
DOCKED: ATOM     11  N   UNL     1      39.337  15.249 120.265 -0.21 -0.00    +0.000 N 
DOCKED: ATOM     12  H   UNL     1      40.214  15.215 119.820 -0.04 -0.00    +0.000 HD
DOCKED: BRANCH  10  12
DOCKED: ATOM     13  C   UNL     1      38.161  15.039 119.461 -0.21 -0.00    +0.000 A 
DOCKED: ATOM     14  C   UNL     1      37.363  16.109 119.012 -0.14 -0.00    +0.000 A 
DOCKED: ATOM     15  C   UNL     1      36.233  15.866 118.225 -0.16 -0.00    +0.000 A 
DOCKED: ATOM     16  C   UNL     1      35.885  14.557 117.883 -0.28 -0.00    +0.000 A 
DOCKED: ATOM     17  C   UNL     1      36.665  13.488 118.330 -0.36 -0.00    +0.000 A 
DOCKED: ATOM     18  C   UNL     1      37.797  13.727 119.115 -0.30 -0.00    +0.000 A 
DOCKED: ATOM     19  CM  UNL     1      37.018  14.798 118.671 +0.00 -0.00    +0.000 AC
DOCKED: ENDBRANCH  10  12
DOCKED: ENDBRANCH   8  10
DOCKED: ENDBRANCH   1   8
DOCKED: BRANCH   3  18
DOCKED: ATOM     20  C   UNL     1      36.159  11.479 122.827 -0.68 -0.00    +0.000 C 
DOCKED: ATOM     21  C   UNL     1      37.115  10.605 122.481 -0.48 -0.00    +0.000 C 
DOCKED: BRANCH  19  20
DOCKED: ATOM     22  C   UNL     1      36.861   9.166 122.257 -0.70 -0.00    +0.000 C 
DOCKED: ATOM     23  N   UNL     1      36.831   8.215 123.329 -0.71 -0.00    +0.000 N 
DOCKED: ATOM     24  O   UNL     1      36.692   8.764 121.074 -2.54 -0.00    +0.000 OA
DOCKED: ATOM     25  H   UNL     1      37.074   8.495 124.241 -0.48 -0.00    +0.000 HD
DOCKED: BRANCH  21  24
DOCKED: ATOM     26  O   UNL     1      36.468   6.931 123.091 -1.53 -0.00    +0.000 OA
DOCKED: ATOM     27  H   UNL     1      36.401   6.786 122.135 -0.06 -0.00    +0.000 HD
DOCKED: ENDBRANCH  21  24
DOCKED: ENDBRANCH  19  20
DOCKED: ENDBRANCH   3  18
DOCKED: TORSDOF 6DOCKED: TER
DOCKED: ENDMDL
________________________________________________________________________________


	BEGINNING GENETIC ALGORITHM DOCKING 78 of 100
Run: 78 Seed: 565124279 1875706217 [ Run 78 of 100 GA/GALS ]
Beginning LAMARCKIAN GENETIC ALGORITHM (LGA), with a maximum of 2500000 energy evaluations.

Final-Value: -15.261


	FINAL GENETIC ALGORITHM DOCKED STATE
	_______________________________________________


Detailed state:  trans 38.134 12.675 123.278 quatxyzw -0.014517 -0.672813 0.682136 0.286010 center 0.320 0.169 0.303 ntor 6 13.9049 -36.9424 167.6170 142.4345 11.3057 128.5154
State:	 38.134  12.675 123.278  -0.015 -0.702  0.712 146.762     13.90  -36.94  167.62  142.43   11.31  128.52

DOCKED: MODEL       78
DOCKED: USER    Run = 78
DOCKED: USER    DPF = ligand_dock.biased.dpf
DOCKED: USER  
DOCKED: USER    Estimated Free Energy of Binding    =  -11.59 kcal/mol  [=(1)+(2)+(3)-(4)]
DOCKED: USER    Estimated Inhibition Constant, Ki   =    3.17 nM (nanomolar)  [Temperature = 298.15 K]
DOCKED: USER    
DOCKED: USER    (1) Final Intermolecular Energy     =  -13.38 kcal/mol
DOCKED: USER        vdW + Hbond + desolv Energy     =  -13.38 kcal/mol
DOCKED: USER        Electrostatic Energy            =   +0.00 kcal/mol
DOCKED: USER    (2) Final Total Internal Energy     =   -1.88 kcal/mol
DOCKED: USER    (3) Torsional Free Energy           =   +1.79 kcal/mol
DOCKED: USER    (4) Unbound System's Energy  [=(2)] =   -1.88 kcal/mol
DOCKED: USER    
DOCKED: USER    
DOCKED: USER    NEWDPF move ligand.dum.pdbqt
DOCKED: USER    NEWDPF about 0.320000 0.169000 0.303000
DOCKED: USER    NEWDPF tran0 38.134192 12.675042 123.278473
DOCKED: USER    NEWDPF quaternion0 -0.014517 -0.672813 0.682136 0.286010
DOCKED: USER    NEWDPF axisangle0 -0.015150 -0.702144 0.711874 146.761504
DOCKED: USER    NEWDPF quat0 -0.015150 -0.702144 0.711874 146.761504
DOCKED: USER    NEWDPF dihe0 13.90 -36.94 167.62 142.43 11.31 128.52 
DOCKED: USER  keepresnum = 1 
DOCKED: USER  
DOCKED: REMARK  Name = 
DOCKED: REMARK  6 active torsions:
DOCKED: REMARK  status: ('A' for Active; 'I' for Inactive)
DOCKED: REMARK    1  A    between atoms: S_2  and  N_3
DOCKED: REMARK    2  A    between atoms: S_2  and  C_10
DOCKED: REMARK    3  A    between atoms: N_3  and  C_4
DOCKED: REMARK    4  A    between atoms: C_12  and  C_13
DOCKED: REMARK    5  A    between atoms: C_14  and  C_15
DOCKED: REMARK    6  A    between atoms: N_16  and  O_17
DOCKED: REMARK                            x       y       z     vdW  Elec       q    Type
DOCKED: REMARK                         _______ _______ _______ _____ _____    ______ ____
DOCKED: USER                              x       y       z     vdW  Elec       q    Type
DOCKED: USER                           _______ _______ _______ _____ _____    ______ ____
DOCKED: ROOT
DOCKED: ATOM      1  C   UNL     1      37.882  14.970 122.824 -0.36 -0.00    +0.000 A 
DOCKED: ATOM      2  C   UNL     1      37.672  13.588 122.728 -0.46 -0.00    +0.000 A 
DOCKED: ATOM      3  C   UNL     1      36.511  12.999 123.259 -0.55 -0.00    +0.000 A 
DOCKED: ATOM      4  C   UNL     1      35.567  13.823 123.906 -0.43 -0.00    +0.000 A 
DOCKED: ATOM      5  C   UNL     1      35.775  15.202 123.995 -0.43 -0.00    +0.000 A 
DOCKED: ATOM      6  C   UNL     1      36.925  15.776 123.452 -0.32 -0.00    +0.000 A 
DOCKED: ATOM      7  CM  UNL     1      36.722  14.393 123.361 +0.00 -0.00    +0.000 AC
DOCKED: ENDROOT
DOCKED: BRANCH   1   8
DOCKED: ATOM      8  O   UNL     1      40.467  14.680 122.140 -0.92 -0.00    +0.000 OA
DOCKED: ATOM      9  S   UNL     1      39.349  15.684 122.161 -0.40 -0.00    +0.000 S 
DOCKED: ATOM     10  O   UNL     1      39.751  16.848 123.021 -0.27 -0.00    +0.000 OA
DOCKED: BRANCH   8  10
DOCKED: ATOM     11  N   UNL     1      39.062  16.243 120.541 -0.14 -0.00    +0.000 N 
DOCKED: ATOM     12  H   UNL     1      39.442  17.112 120.279 +0.00 -0.00    +0.000 HD
DOCKED: BRANCH  10  12
DOCKED: ATOM     13  C   UNL     1      38.302  15.512 119.563 -0.17 -0.00    +0.000 A 
DOCKED: ATOM     14  C   UNL     1      37.678  16.150 118.473 -0.12 -0.00    +0.000 A 
DOCKED: ATOM     15  C   UNL     1      36.955  15.404 117.536 -0.18 -0.00    +0.000 A 
DOCKED: ATOM     16  C   UNL     1      36.843  14.019 117.679 -0.34 -0.00    +0.000 A 
DOCKED: ATOM     17  C   UNL     1      37.451  13.377 118.759 -0.37 -0.00    +0.000 A 
DOCKED: ATOM     18  C   UNL     1      38.177  14.119 119.697 -0.25 -0.00    +0.000 A 
DOCKED: ATOM     19  CM  UNL     1      37.568  14.764 118.618 +0.00 -0.00    +0.000 AC
DOCKED: ENDBRANCH  10  12
DOCKED: ENDBRANCH   8  10
DOCKED: ENDBRANCH   1   8
DOCKED: BRANCH   3  18
DOCKED: ATOM     20  C   UNL     1      36.349  11.528 123.149 -0.70 -0.00    +0.000 C 
DOCKED: ATOM     21  C   UNL     1      37.065  10.762 122.312 -0.56 -0.00    +0.000 C 
DOCKED: BRANCH  19  20
DOCKED: ATOM     22  C   UNL     1      36.899   9.297 122.207 -0.68 -0.00    +0.000 C 
DOCKED: ATOM     23  N   UNL     1      37.009   8.428 123.342 -0.70 -0.00    +0.000 N 
DOCKED: ATOM     24  O   UNL     1      36.683   8.798 121.070 -2.57 -0.00    +0.000 OA
DOCKED: ATOM     25  H   UNL     1      37.290   8.791 124.213 -0.56 -0.00    +0.000 HD
DOCKED: BRANCH  21  24
DOCKED: ATOM     26  O   UNL     1      36.723   7.109 123.220 -1.80 -0.00    +0.000 OA
DOCKED: ATOM     27  H   UNL     1      36.678   6.874 122.280 -0.08 -0.00    +0.000 HD
DOCKED: ENDBRANCH  21  24
DOCKED: ENDBRANCH  19  20
DOCKED: ENDBRANCH   3  18
DOCKED: TORSDOF 6DOCKED: TER
DOCKED: ENDMDL
________________________________________________________________________________


	BEGINNING GENETIC ALGORITHM DOCKING 79 of 100
Run: 79 Seed: 191382877 719638016 [ Run 79 of 100 GA/GALS ]
Beginning LAMARCKIAN GENETIC ALGORITHM (LGA), with a maximum of 2500000 energy evaluations.

Final-Value: -14.817


	FINAL GENETIC ALGORITHM DOCKED STATE
	_______________________________________________


Detailed state:  trans 35.762 13.361 122.013 quatxyzw 0.760496 -0.404353 -0.023260 -0.507546 center 0.320 0.169 0.303 ntor 6 9.5168 179.3648 -74.2517 96.8052 -112.4550 -179.8884
State:	 35.762  13.361 122.013   0.883 -0.469 -0.027 -118.999      9.52  179.36  -74.25   96.81 -112.45 -179.89

DOCKED: MODEL       79
DOCKED: USER    Run = 79
DOCKED: USER    DPF = ligand_dock.biased.dpf
DOCKED: USER  
DOCKED: USER    Estimated Free Energy of Binding    =  -11.56 kcal/mol  [=(1)+(2)+(3)-(4)]
DOCKED: USER    Estimated Inhibition Constant, Ki   =    3.34 nM (nanomolar)  [Temperature = 298.15 K]
DOCKED: USER    
DOCKED: USER    (1) Final Intermolecular Energy     =  -13.35 kcal/mol
DOCKED: USER        vdW + Hbond + desolv Energy     =  -13.35 kcal/mol
DOCKED: USER        Electrostatic Energy            =   +0.00 kcal/mol
DOCKED: USER    (2) Final Total Internal Energy     =   -1.46 kcal/mol
DOCKED: USER    (3) Torsional Free Energy           =   +1.79 kcal/mol
DOCKED: USER    (4) Unbound System's Energy  [=(2)] =   -1.46 kcal/mol
DOCKED: USER    
DOCKED: USER    
DOCKED: USER    NEWDPF move ligand.dum.pdbqt
DOCKED: USER    NEWDPF about 0.320000 0.169000 0.303000
DOCKED: USER    NEWDPF tran0 35.762328 13.360889 122.013152
DOCKED: USER    NEWDPF quaternion0 0.760496 -0.404353 -0.023260 -0.507546
DOCKED: USER    NEWDPF axisangle0 0.882631 -0.469291 -0.026996 -118.998934
DOCKED: USER    NEWDPF quat0 0.882631 -0.469291 -0.026996 -118.998934
DOCKED: USER    NEWDPF dihe0 9.52 179.36 -74.25 96.81 -112.45 -179.89 
DOCKED: USER  keepresnum = 1 
DOCKED: USER  
DOCKED: REMARK  Name = 
DOCKED: REMARK  6 active torsions:
DOCKED: REMARK  status: ('A' for Active; 'I' for Inactive)
DOCKED: REMARK    1  A    between atoms: S_2  and  N_3
DOCKED: REMARK    2  A    between atoms: S_2  and  C_10
DOCKED: REMARK    3  A    between atoms: N_3  and  C_4
DOCKED: REMARK    4  A    between atoms: C_12  and  C_13
DOCKED: REMARK    5  A    between atoms: C_14  and  C_15
DOCKED: REMARK    6  A    between atoms: N_16  and  O_17
DOCKED: REMARK                            x       y       z     vdW  Elec       q    Type
DOCKED: REMARK                         _______ _______ _______ _____ _____    ______ ____
DOCKED: USER                              x       y       z     vdW  Elec       q    Type
DOCKED: USER                           _______ _______ _______ _____ _____    ______ ____
DOCKED: ROOT
DOCKED: ATOM      1  C   UNL     1      36.187  15.280 123.305 -0.39 -0.00    +0.000 A 
DOCKED: ATOM      2  C   UNL     1      36.198  13.932 122.926 -0.36 -0.00    +0.000 A 
DOCKED: ATOM      3  C   UNL     1      37.368  13.338 122.419 -0.47 -0.00    +0.000 A 
DOCKED: ATOM      4  C   UNL     1      38.527  14.130 122.281 -0.39 -0.00    +0.000 A 
DOCKED: ATOM      5  C   UNL     1      38.515  15.473 122.667 -0.31 -0.00    +0.000 A 
DOCKED: ATOM      6  C   UNL     1      37.351  16.047 123.182 -0.28 -0.00    +0.000 A 
DOCKED: ATOM      7  CM  UNL     1      37.358  14.700 122.797 +0.00 -0.00    +0.000 AC
DOCKED: ENDROOT
DOCKED: BRANCH   1   8
DOCKED: ATOM      8  O   UNL     1      33.815  14.957 124.533 -0.54 -0.00    +0.000 OA
DOCKED: ATOM      9  S   UNL     1      34.708  16.006 123.930 -0.67 -0.00    +0.000 S 
DOCKED: ATOM     10  O   UNL     1      33.983  16.675 122.798 -0.47 -0.00    +0.000 OA
DOCKED: BRANCH   8  10
DOCKED: ATOM     11  N   UNL     1      35.088  17.189 125.143 -0.33 -0.00    +0.000 N 
DOCKED: ATOM     12  H   UNL     1      36.020  17.499 125.209 -0.01 -0.00    +0.000 HD
DOCKED: BRANCH  10  12
DOCKED: ATOM     13  C   UNL     1      34.123  17.743 126.056 -0.33 -0.00    +0.000 A 
DOCKED: ATOM     14  C   UNL     1      33.321  18.850 125.714 -0.26 -0.00    +0.000 A 
DOCKED: ATOM     15  C   UNL     1      32.388  19.354 126.625 -0.23 -0.00    +0.000 A 
DOCKED: ATOM     16  C   UNL     1      32.247  18.765 127.883 -0.20 -0.00    +0.000 A 
DOCKED: ATOM     17  C   UNL     1      33.042  17.673 128.235 -0.27 -0.00    +0.000 A 
DOCKED: ATOM     18  C   UNL     1      33.976  17.164 127.328 -0.25 -0.00    +0.000 A 
DOCKED: ATOM     19  CM  UNL     1      33.182  18.258 126.973 +0.00 -0.00    +0.000 AC
DOCKED: ENDBRANCH  10  12
DOCKED: ENDBRANCH   8  10
DOCKED: ENDBRANCH   1   8
DOCKED: BRANCH   3  18
DOCKED: ATOM     20  C   UNL     1      37.318  11.912 122.012 -0.48 -0.00    +0.000 C 
DOCKED: ATOM     21  C   UNL     1      37.050  10.906 122.858 -0.61 -0.00    +0.000 C 
DOCKED: BRANCH  19  20
DOCKED: ATOM     22  C   UNL     1      37.002   9.488 122.447 -0.63 -0.00    +0.000 C 
DOCKED: ATOM     23  N   UNL     1      37.109   8.411 123.388 -0.69 -0.00    +0.000 N 
DOCKED: ATOM     24  O   UNL     1      36.891   9.222 121.220 -2.67 -0.00    +0.000 OA
DOCKED: ATOM     25  H   UNL     1      37.310   8.603 124.332 -0.52 -0.00    +0.000 HD
DOCKED: BRANCH  21  24
DOCKED: ATOM     26  O   UNL     1      36.931   7.131 122.982 -1.87 -0.00    +0.000 OA
DOCKED: ATOM     27  H   UNL     1      36.891   7.102 122.014 -0.09 -0.00    +0.000 HD
DOCKED: ENDBRANCH  21  24
DOCKED: ENDBRANCH  19  20
DOCKED: ENDBRANCH   3  18
DOCKED: TORSDOF 6DOCKED: TER
DOCKED: ENDMDL
________________________________________________________________________________


	BEGINNING GENETIC ALGORITHM DOCKING 80 of 100
Run: 80 Seed: 2136423745 554486080 [ Run 80 of 100 GA/GALS ]
Beginning LAMARCKIAN GENETIC ALGORITHM (LGA), with a maximum of 2500000 energy evaluations.

Final-Value: -13.976


	FINAL GENETIC ALGORITHM DOCKED STATE
	_______________________________________________


Detailed state:  trans 37.633 12.988 121.176 quatxyzw -0.327467 0.704990 -0.624331 0.077237 center 0.320 0.169 0.303 ntor 6 8.9352 -19.5823 56.0377 -177.1514 -72.1271 69.2073
State:	 37.633  12.988 121.176  -0.328  0.707 -0.626 171.140      8.94  -19.58   56.04 -177.15  -72.13   69.21

DOCKED: MODEL       80
DOCKED: USER    Run = 80
DOCKED: USER    DPF = ligand_dock.biased.dpf
DOCKED: USER  
DOCKED: USER    Estimated Free Energy of Binding    =  -10.58 kcal/mol  [=(1)+(2)+(3)-(4)]
DOCKED: USER    Estimated Inhibition Constant, Ki   =   17.67 nM (nanomolar)  [Temperature = 298.15 K]
DOCKED: USER    
DOCKED: USER    (1) Final Intermolecular Energy     =  -12.37 kcal/mol
DOCKED: USER        vdW + Hbond + desolv Energy     =  -12.37 kcal/mol
DOCKED: USER        Electrostatic Energy            =   +0.00 kcal/mol
DOCKED: USER    (2) Final Total Internal Energy     =   -1.61 kcal/mol
DOCKED: USER    (3) Torsional Free Energy           =   +1.79 kcal/mol
DOCKED: USER    (4) Unbound System's Energy  [=(2)] =   -1.61 kcal/mol
DOCKED: USER    
DOCKED: USER    
DOCKED: USER    NEWDPF move ligand.dum.pdbqt
DOCKED: USER    NEWDPF about 0.320000 0.169000 0.303000
DOCKED: USER    NEWDPF tran0 37.632523 12.988229 121.176109
DOCKED: USER    NEWDPF quaternion0 -0.327467 0.704990 -0.624331 0.077237
DOCKED: USER    NEWDPF axisangle0 -0.328448 0.707102 -0.626202 171.140437
DOCKED: USER    NEWDPF quat0 -0.328448 0.707102 -0.626202 171.140437
DOCKED: USER    NEWDPF dihe0 8.94 -19.58 56.04 -177.15 -72.13 69.21 
DOCKED: USER  keepresnum = 1 
DOCKED: USER  
DOCKED: REMARK  Name = 
DOCKED: REMARK  6 active torsions:
DOCKED: REMARK  status: ('A' for Active; 'I' for Inactive)
DOCKED: REMARK    1  A    between atoms: S_2  and  N_3
DOCKED: REMARK    2  A    between atoms: S_2  and  C_10
DOCKED: REMARK    3  A    between atoms: N_3  and  C_4
DOCKED: REMARK    4  A    between atoms: C_12  and  C_13
DOCKED: REMARK    5  A    between atoms: C_14  and  C_15
DOCKED: REMARK    6  A    between atoms: N_16  and  O_17
DOCKED: REMARK                            x       y       z     vdW  Elec       q    Type
DOCKED: REMARK                         _______ _______ _______ _____ _____    ______ ____
DOCKED: USER                              x       y       z     vdW  Elec       q    Type
DOCKED: USER                           _______ _______ _______ _____ _____    ______ ____
DOCKED: ROOT
DOCKED: ATOM      1  C   UNL     1      37.046  15.261 121.023 -0.21 -0.00    +0.000 A 
DOCKED: ATOM      2  C   UNL     1      36.894  13.884 121.228 -0.18 -0.00    +0.000 A 
DOCKED: ATOM      3  C   UNL     1      36.750  13.363 122.526 -0.46 -0.00    +0.000 A 
DOCKED: ATOM      4  C   UNL     1      36.777  14.250 123.621 -0.40 -0.00    +0.000 A 
DOCKED: ATOM      5  C   UNL     1      36.921  15.625 123.414 -0.34 -0.00    +0.000 A 
DOCKED: ATOM      6  C   UNL     1      37.050  16.131 122.120 -0.22 -0.00    +0.000 A 
DOCKED: ATOM      7  CM  UNL     1      36.906  14.752 122.322 +0.00 -0.00    +0.000 AC
DOCKED: ENDROOT
DOCKED: BRANCH   1   8
DOCKED: ATOM      8  O   UNL     1      38.678  15.850 118.968 -0.16 -0.00    +0.000 OA
DOCKED: ATOM      9  S   UNL     1      37.236  15.892 119.389 -0.23 -0.00    +0.000 S 
DOCKED: ATOM     10  O   UNL     1      36.757  17.314 119.361 -0.12 -0.00    +0.000 OA
DOCKED: BRANCH   8  10
DOCKED: ATOM     11  N   UNL     1      36.294  14.951 118.272 -0.24 -0.00    +0.000 N 
DOCKED: ATOM     12  H   UNL     1      35.333  14.843 118.455 -0.02 -0.00    +0.000 HD
DOCKED: BRANCH  10  12
DOCKED: ATOM     13  C   UNL     1      36.836  14.319 117.098 -0.30 -0.00    +0.000 A 
DOCKED: ATOM     14  C   UNL     1      38.048  13.602 117.128 -0.26 -0.00    +0.000 A 
DOCKED: ATOM     15  C   UNL     1      38.539  12.994 115.968 -0.46 -0.00    +0.000 A 
DOCKED: ATOM     16  C   UNL     1      37.830  13.098 114.769 -0.40 -0.00    +0.000 A 
DOCKED: ATOM     17  C   UNL     1      36.632  13.813 114.726 -0.30 -0.00    +0.000 A 
DOCKED: ATOM     18  C   UNL     1      36.137  14.422 115.884 -0.26 -0.00    +0.000 A 
DOCKED: ATOM     19  CM  UNL     1      37.337  13.708 115.929 +0.00 -0.00    +0.000 AC
DOCKED: ENDBRANCH  10  12
DOCKED: ENDBRANCH   8  10
DOCKED: ENDBRANCH   1   8
DOCKED: BRANCH   3  18
DOCKED: ATOM     20  C   UNL     1      36.615  11.894 122.688 -0.65 -0.00    +0.000 C 
DOCKED: ATOM     21  C   UNL     1      37.066  11.002 121.793 -0.53 -0.00    +0.000 C 
DOCKED: BRANCH  19  20
DOCKED: ATOM     22  C   UNL     1      36.929   9.540 121.959 -0.64 -0.00    +0.000 C 
DOCKED: ATOM     23  N   UNL     1      37.068   8.896 123.232 -0.65 -0.00    +0.000 N 
DOCKED: ATOM     24  O   UNL     1      36.710   8.838 120.936 -2.62 -0.00    +0.000 OA
DOCKED: ATOM     25  H   UNL     1      37.352   9.416 124.018 -0.53 -0.00    +0.000 HD
DOCKED: BRANCH  21  24
DOCKED: ATOM     26  O   UNL     1      36.808   7.572 123.357 -2.13 -0.00    +0.000 OA
DOCKED: ATOM     27  H   UNL     1      36.679   7.183 122.478 -0.05 -0.00    +0.000 HD
DOCKED: ENDBRANCH  21  24
DOCKED: ENDBRANCH  19  20
DOCKED: ENDBRANCH   3  18
DOCKED: TORSDOF 6DOCKED: TER
DOCKED: ENDMDL
________________________________________________________________________________


	BEGINNING GENETIC ALGORITHM DOCKING 81 of 100
Run: 81 Seed: 1307730495 1449703380 [ Run 81 of 100 GA/GALS ]
Beginning LAMARCKIAN GENETIC ALGORITHM (LGA), with a maximum of 2500000 energy evaluations.

Final-Value: -15.180


	FINAL GENETIC ALGORITHM DOCKED STATE
	_______________________________________________


Detailed state:  trans 38.216 12.603 123.357 quatxyzw 0.027883 0.650773 -0.699501 -0.293966 center 0.320 0.169 0.303 ntor 6 9.0606 -37.1848 -148.7983 136.1912 -0.5028 132.0861
State:	 38.216  12.603 123.357   0.029  0.681 -0.732 -145.809      9.06  -37.18 -148.80  136.19   -0.50  132.09

DOCKED: MODEL       81
DOCKED: USER    Run = 81
DOCKED: USER    DPF = ligand_dock.biased.dpf
DOCKED: USER  
DOCKED: USER    Estimated Free Energy of Binding    =  -11.65 kcal/mol  [=(1)+(2)+(3)-(4)]
DOCKED: USER    Estimated Inhibition Constant, Ki   =    2.89 nM (nanomolar)  [Temperature = 298.15 K]
DOCKED: USER    
DOCKED: USER    (1) Final Intermolecular Energy     =  -13.44 kcal/mol
DOCKED: USER        vdW + Hbond + desolv Energy     =  -13.44 kcal/mol
DOCKED: USER        Electrostatic Energy            =   +0.00 kcal/mol
DOCKED: USER    (2) Final Total Internal Energy     =   -1.74 kcal/mol
DOCKED: USER    (3) Torsional Free Energy           =   +1.79 kcal/mol
DOCKED: USER    (4) Unbound System's Energy  [=(2)] =   -1.74 kcal/mol
DOCKED: USER    
DOCKED: USER    
DOCKED: USER    NEWDPF move ligand.dum.pdbqt
DOCKED: USER    NEWDPF about 0.320000 0.169000 0.303000
DOCKED: USER    NEWDPF tran0 38.215896 12.603123 123.356551
DOCKED: USER    NEWDPF quaternion0 0.027883 0.650773 -0.699501 -0.293966
DOCKED: USER    NEWDPF axisangle0 0.029172 0.680856 -0.731836 -145.808911
DOCKED: USER    NEWDPF quat0 0.029172 0.680856 -0.731836 -145.808911
DOCKED: USER    NEWDPF dihe0 9.06 -37.18 -148.80 136.19 -0.50 132.09 
DOCKED: USER  keepresnum = 1 
DOCKED: USER  
DOCKED: REMARK  Name = 
DOCKED: REMARK  6 active torsions:
DOCKED: REMARK  status: ('A' for Active; 'I' for Inactive)
DOCKED: REMARK    1  A    between atoms: S_2  and  N_3
DOCKED: REMARK    2  A    between atoms: S_2  and  C_10
DOCKED: REMARK    3  A    between atoms: N_3  and  C_4
DOCKED: REMARK    4  A    between atoms: C_12  and  C_13
DOCKED: REMARK    5  A    between atoms: C_14  and  C_15
DOCKED: REMARK    6  A    between atoms: N_16  and  O_17
DOCKED: REMARK                            x       y       z     vdW  Elec       q    Type
DOCKED: REMARK                         _______ _______ _______ _____ _____    ______ ____
DOCKED: USER                              x       y       z     vdW  Elec       q    Type
DOCKED: USER                           _______ _______ _______ _____ _____    ______ ____
DOCKED: ROOT
DOCKED: ATOM      1  C   UNL     1      38.025  14.878 122.788 -0.37 -0.00    +0.000 A 
DOCKED: ATOM      2  C   UNL     1      37.793  13.497 122.746 -0.46 -0.00    +0.000 A 
DOCKED: ATOM      3  C   UNL     1      36.601  12.953 123.255 -0.56 -0.00    +0.000 A 
DOCKED: ATOM      4  C   UNL     1      35.647  13.821 123.824 -0.47 -0.00    +0.000 A 
DOCKED: ATOM      5  C   UNL     1      35.877  15.199 123.858 -0.43 -0.00    +0.000 A 
DOCKED: ATOM      6  C   UNL     1      37.059  15.729 123.338 -0.32 -0.00    +0.000 A 
DOCKED: ATOM      7  CM  UNL     1      36.833  14.346 123.302 +0.00 -0.00    +0.000 AC
DOCKED: ENDROOT
DOCKED: BRANCH   1   8
DOCKED: ATOM      8  O   UNL     1      40.608  14.487 122.145 -1.07 -0.00    +0.000 OA
DOCKED: ATOM      9  S   UNL     1      39.531  15.537 122.154 -0.43 -0.00    +0.000 S 
DOCKED: ATOM     10  O   UNL     1      39.965  16.677 123.029 -0.30 -0.00    +0.000 OA
DOCKED: BRANCH   8  10
DOCKED: ATOM     11  N   UNL     1      39.295  16.117 120.534 -0.15 -0.00    +0.000 N 
DOCKED: ATOM     12  H   UNL     1      39.558  17.044 120.332 +0.00 -0.00    +0.000 HD
DOCKED: BRANCH  10  12
DOCKED: ATOM     13  C   UNL     1      38.737  15.324 119.471 -0.17 -0.00    +0.000 A 
DOCKED: ATOM     14  C   UNL     1      38.928  15.653 118.114 -0.14 -0.00    +0.000 A 
DOCKED: ATOM     15  C   UNL     1      38.377  14.853 117.108 -0.21 -0.00    +0.000 A 
DOCKED: ATOM     16  C   UNL     1      37.629  13.722 117.443 -0.33 -0.00    +0.000 A 
DOCKED: ATOM     17  C   UNL     1      37.426  13.391 118.784 -0.38 -0.00    +0.000 A 
DOCKED: ATOM     18  C   UNL     1      37.976  14.187 119.793 -0.28 -0.00    +0.000 A 
DOCKED: ATOM     19  CM  UNL     1      38.179  14.521 118.452 +0.00 -0.00    +0.000 AC
DOCKED: ENDBRANCH  10  12
DOCKED: ENDBRANCH   8  10
DOCKED: ENDBRANCH   1   8
DOCKED: BRANCH   3  18
DOCKED: ATOM     20  C   UNL     1      36.416  11.482 123.206 -0.71 -0.00    +0.000 C 
DOCKED: ATOM     21  C   UNL     1      37.066  10.679 122.349 -0.56 -0.00    +0.000 C 
DOCKED: BRANCH  19  20
DOCKED: ATOM     22  C   UNL     1      36.878   9.214 122.305 -0.69 -0.00    +0.000 C 
DOCKED: ATOM     23  N   UNL     1      37.059   8.380 123.457 -0.69 -0.00    +0.000 N 
DOCKED: ATOM     24  O   UNL     1      36.576   8.681 121.203 -2.35 -0.00    +0.000 OA
DOCKED: ATOM     25  H   UNL     1      37.406   8.767 124.293 -0.57 -0.00    +0.000 HD
DOCKED: BRANCH  21  24
DOCKED: ATOM     26  O   UNL     1      36.752   7.062 123.400 -1.74 -0.00    +0.000 OA
DOCKED: ATOM     27  H   UNL     1      36.562   6.814 122.481 -0.07 -0.00    +0.000 HD
DOCKED: ENDBRANCH  21  24
DOCKED: ENDBRANCH  19  20
DOCKED: ENDBRANCH   3  18
DOCKED: TORSDOF 6DOCKED: TER
DOCKED: ENDMDL
________________________________________________________________________________


	BEGINNING GENETIC ALGORITHM DOCKING 82 of 100
Run: 82 Seed: 260653139 599022720 [ Run 82 of 100 GA/GALS ]
Beginning LAMARCKIAN GENETIC ALGORITHM (LGA), with a maximum of 2500000 energy evaluations.

Final-Value: -14.961


	FINAL GENETIC ALGORITHM DOCKED STATE
	_______________________________________________


Detailed state:  trans 35.730 13.306 121.999 quatxyzw -0.774309 0.426603 -0.022059 0.466871 center 0.320 0.169 0.303 ntor 6 8.7591 180.0000 -54.7921 93.1983 163.6506 159.1530
State:	 35.730  13.306 121.999  -0.876  0.482 -0.025 124.337      8.76  180.00  -54.79   93.20  163.65  159.15

DOCKED: MODEL       82
DOCKED: USER    Run = 82
DOCKED: USER    DPF = ligand_dock.biased.dpf
DOCKED: USER  
DOCKED: USER    Estimated Free Energy of Binding    =  -11.63 kcal/mol  [=(1)+(2)+(3)-(4)]
DOCKED: USER    Estimated Inhibition Constant, Ki   =    2.97 nM (nanomolar)  [Temperature = 298.15 K]
DOCKED: USER    
DOCKED: USER    (1) Final Intermolecular Energy     =  -13.42 kcal/mol
DOCKED: USER        vdW + Hbond + desolv Energy     =  -13.42 kcal/mol
DOCKED: USER        Electrostatic Energy            =   +0.00 kcal/mol
DOCKED: USER    (2) Final Total Internal Energy     =   -1.54 kcal/mol
DOCKED: USER    (3) Torsional Free Energy           =   +1.79 kcal/mol
DOCKED: USER    (4) Unbound System's Energy  [=(2)] =   -1.54 kcal/mol
DOCKED: USER    
DOCKED: USER    
DOCKED: USER    NEWDPF move ligand.dum.pdbqt
DOCKED: USER    NEWDPF about 0.320000 0.169000 0.303000
DOCKED: USER    NEWDPF tran0 35.729552 13.305535 121.998546
DOCKED: USER    NEWDPF quaternion0 -0.774309 0.426603 -0.022059 0.466871
DOCKED: USER    NEWDPF axisangle0 -0.875593 0.482405 -0.024944 124.337186
DOCKED: USER    NEWDPF quat0 -0.875593 0.482405 -0.024944 124.337186
DOCKED: USER    NEWDPF dihe0 8.76 180.00 -54.79 93.20 163.65 159.15 
DOCKED: USER  keepresnum = 1 
DOCKED: USER  
DOCKED: REMARK  Name = 
DOCKED: REMARK  6 active torsions:
DOCKED: REMARK  status: ('A' for Active; 'I' for Inactive)
DOCKED: REMARK    1  A    between atoms: S_2  and  N_3
DOCKED: REMARK    2  A    between atoms: S_2  and  C_10
DOCKED: REMARK    3  A    between atoms: N_3  and  C_4
DOCKED: REMARK    4  A    between atoms: C_12  and  C_13
DOCKED: REMARK    5  A    between atoms: C_14  and  C_15
DOCKED: REMARK    6  A    between atoms: N_16  and  O_17
DOCKED: REMARK                            x       y       z     vdW  Elec       q    Type
DOCKED: REMARK                         _______ _______ _______ _____ _____    ______ ____
DOCKED: USER                              x       y       z     vdW  Elec       q    Type
DOCKED: USER                           _______ _______ _______ _____ _____    ______ ____
DOCKED: ROOT
DOCKED: ATOM      1  C   UNL     1      35.944  15.180 123.403 -0.42 -0.00    +0.000 A 
DOCKED: ATOM      2  C   UNL     1      36.035  13.848 122.979 -0.33 -0.00    +0.000 A 
DOCKED: ATOM      3  C   UNL     1      37.272  13.298 122.601 -0.48 -0.00    +0.000 A 
DOCKED: ATOM      4  C   UNL     1      38.420  14.115 122.639 -0.41 -0.00    +0.000 A 
DOCKED: ATOM      5  C   UNL     1      38.328  15.442 123.069 -0.29 -0.00    +0.000 A 
DOCKED: ATOM      6  C   UNL     1      37.097  15.973 123.456 -0.30 -0.00    +0.000 A 
DOCKED: ATOM      7  CM  UNL     1      37.183  14.643 123.025 +0.00 -0.00    +0.000 AC
DOCKED: ENDROOT
DOCKED: BRANCH   1   8
DOCKED: ATOM      8  O   UNL     1      33.315  14.795 123.818 -0.64 -0.00    +0.000 OA
DOCKED: ATOM      9  S   UNL     1      34.382  15.852 123.864 -0.70 -0.00    +0.000 S 
DOCKED: ATOM     10  O   UNL     1      34.027  16.950 122.903 -0.48 -0.00    +0.000 OA
DOCKED: BRANCH   8  10
DOCKED: ATOM     11  N   UNL     1      34.463  16.505 125.472 -0.44 -0.00    +0.000 N 
DOCKED: ATOM     12  H   UNL     1      34.558  15.874 126.222 -0.02 -0.00    +0.000 HD
DOCKED: BRANCH  10  12
DOCKED: ATOM     13  C   UNL     1      34.399  17.910 125.772 -0.32 -0.00    +0.000 A 
DOCKED: ATOM     14  C   UNL     1      35.411  18.806 125.375 -0.21 -0.00    +0.000 A 
DOCKED: ATOM     15  C   UNL     1      35.309  20.167 125.677 -0.15 -0.00    +0.000 A 
DOCKED: ATOM     16  C   UNL     1      34.203  20.648 126.381 -0.14 -0.00    +0.000 A 
DOCKED: ATOM     17  C   UNL     1      33.198  19.769 126.787 -0.20 -0.00    +0.000 A 
DOCKED: ATOM     18  C   UNL     1      33.294  18.407 126.486 -0.29 -0.00    +0.000 A 
DOCKED: ATOM     19  CM  UNL     1      34.302  19.285 126.079 -0.04 -0.00    +0.000 AC
DOCKED: ENDBRANCH  10  12
DOCKED: ENDBRANCH   8  10
DOCKED: ENDBRANCH   1   8
DOCKED: BRANCH   3  18
DOCKED: ATOM     20  C   UNL     1      37.308  11.888 122.138 -0.48 -0.00    +0.000 C 
DOCKED: ATOM     21  C   UNL     1      37.027  10.839 122.927 -0.62 -0.00    +0.000 C 
DOCKED: BRANCH  19  20
DOCKED: ATOM     22  C   UNL     1      37.064   9.437 122.462 -0.62 -0.00    +0.000 C 
DOCKED: ATOM     23  N   UNL     1      37.141   8.329 123.368 -0.70 -0.00    +0.000 N 
DOCKED: ATOM     24  O   UNL     1      37.055   9.217 121.221 -2.72 -0.00    +0.000 OA
DOCKED: ATOM     25  H   UNL     1      37.264   8.490 124.331 -0.49 -0.00    +0.000 HD
DOCKED: BRANCH  21  24
DOCKED: ATOM     26  O   UNL     1      37.043   7.060 122.902 -1.80 -0.00    +0.000 OA
DOCKED: ATOM     27  H   UNL     1      37.064   7.069 121.933 -0.13 -0.00    +0.000 HD
DOCKED: ENDBRANCH  21  24
DOCKED: ENDBRANCH  19  20
DOCKED: ENDBRANCH   3  18
DOCKED: TORSDOF 6DOCKED: TER
DOCKED: ENDMDL
________________________________________________________________________________


	BEGINNING GENETIC ALGORITHM DOCKING 83 of 100
Run: 83 Seed: 1583524361 1957896318 [ Run 83 of 100 GA/GALS ]
Beginning LAMARCKIAN GENETIC ALGORITHM (LGA), with a maximum of 2500000 energy evaluations.

Final-Value: -15.159


	FINAL GENETIC ALGORITHM DOCKED STATE
	_______________________________________________


Detailed state:  trans 38.396 13.184 123.513 quatxyzw 0.039828 -0.644881 0.647229 0.404520 center 0.320 0.169 0.303 ntor 6 12.7136 40.8876 -59.0740 66.4267 58.9033 102.4635
State:	 38.396  13.184 123.513   0.044 -0.705  0.708 132.278     12.71   40.89  -59.07   66.43   58.90  102.46

DOCKED: MODEL       83
DOCKED: USER    Run = 83
DOCKED: USER    DPF = ligand_dock.biased.dpf
DOCKED: USER  
DOCKED: USER    Estimated Free Energy of Binding    =  -11.38 kcal/mol  [=(1)+(2)+(3)-(4)]
DOCKED: USER    Estimated Inhibition Constant, Ki   =    4.52 nM (nanomolar)  [Temperature = 298.15 K]
DOCKED: USER    
DOCKED: USER    (1) Final Intermolecular Energy     =  -13.17 kcal/mol
DOCKED: USER        vdW + Hbond + desolv Energy     =  -13.17 kcal/mol
DOCKED: USER        Electrostatic Energy            =   +0.00 kcal/mol
DOCKED: USER    (2) Final Total Internal Energy     =   -1.99 kcal/mol
DOCKED: USER    (3) Torsional Free Energy           =   +1.79 kcal/mol
DOCKED: USER    (4) Unbound System's Energy  [=(2)] =   -1.99 kcal/mol
DOCKED: USER    
DOCKED: USER    
DOCKED: USER    NEWDPF move ligand.dum.pdbqt
DOCKED: USER    NEWDPF about 0.320000 0.169000 0.303000
DOCKED: USER    NEWDPF tran0 38.395886 13.183826 123.512511
DOCKED: USER    NEWDPF quaternion0 0.039828 -0.644881 0.647229 0.404520
DOCKED: USER    NEWDPF axisangle0 0.043550 -0.705151 0.707718 132.277937
DOCKED: USER    NEWDPF quat0 0.043550 -0.705151 0.707718 132.277937
DOCKED: USER    NEWDPF dihe0 12.71 40.89 -59.07 66.43 58.90 102.46 
DOCKED: USER  keepresnum = 1 
DOCKED: USER  
DOCKED: REMARK  Name = 
DOCKED: REMARK  6 active torsions:
DOCKED: REMARK  status: ('A' for Active; 'I' for Inactive)
DOCKED: REMARK    1  A    between atoms: S_2  and  N_3
DOCKED: REMARK    2  A    between atoms: S_2  and  C_10
DOCKED: REMARK    3  A    between atoms: N_3  and  C_4
DOCKED: REMARK    4  A    between atoms: C_12  and  C_13
DOCKED: REMARK    5  A    between atoms: C_14  and  C_15
DOCKED: REMARK    6  A    between atoms: N_16  and  O_17
DOCKED: REMARK                            x       y       z     vdW  Elec       q    Type
DOCKED: REMARK                         _______ _______ _______ _____ _____    ______ ____
DOCKED: USER                              x       y       z     vdW  Elec       q    Type
DOCKED: USER                           _______ _______ _______ _____ _____    ______ ____
DOCKED: ROOT
DOCKED: ATOM      1  C   UNL     1      37.627  15.334 122.948 -0.33 -0.00    +0.000 A 
DOCKED: ATOM      2  C   UNL     1      37.780  13.943 122.885 -0.45 -0.00    +0.000 A 
DOCKED: ATOM      3  C   UNL     1      36.754  13.087 123.321 -0.55 -0.00    +0.000 A 
DOCKED: ATOM      4  C   UNL     1      35.572  13.653 123.841 -0.44 -0.00    +0.000 A 
DOCKED: ATOM      5  C   UNL     1      35.418  15.040 123.896 -0.49 -0.00    +0.000 A 
DOCKED: ATOM      6  C   UNL     1      36.438  15.880 123.447 -0.34 -0.00    +0.000 A 
DOCKED: ATOM      7  CM  UNL     1      36.598  14.489 123.390 +0.00 -0.00    +0.000 AC
DOCKED: ENDROOT
DOCKED: BRANCH   1   8
DOCKED: ATOM      8  O   UNL     1      40.224  16.023 123.076 -0.40 -0.00    +0.000 OA
DOCKED: ATOM      9  S   UNL     1      38.929  16.389 122.405 -0.31 -0.00    +0.000 S 
DOCKED: ATOM     10  O   UNL     1      38.580  17.807 122.753 -0.15 -0.00    +0.000 OA
DOCKED: BRANCH   8  10
DOCKED: ATOM     11  N   UNL     1      39.128  16.255 120.684 -0.14 -0.00    +0.000 N 
DOCKED: ATOM     12  H   UNL     1      39.884  16.729 120.269 +0.00 -0.00    +0.000 HD
DOCKED: BRANCH  10  12
DOCKED: ATOM     13  C   UNL     1      38.254  15.494 119.832 -0.18 -0.00    +0.000 A 
DOCKED: ATOM     14  C   UNL     1      38.229  14.085 119.854 -0.25 -0.00    +0.000 A 
DOCKED: ATOM     15  C   UNL     1      37.359  13.380 119.016 -0.39 -0.00    +0.000 A 
DOCKED: ATOM     16  C   UNL     1      36.510  14.069 118.148 -0.34 -0.00    +0.000 A 
DOCKED: ATOM     17  C   UNL     1      36.531  15.465 118.112 -0.19 -0.00    +0.000 A 
DOCKED: ATOM     18  C   UNL     1      37.399  16.174 118.948 -0.14 -0.00    +0.000 A 
DOCKED: ATOM     19  CM  UNL     1      37.380  14.778 118.985 +0.00 -0.00    +0.000 AC
DOCKED: ENDBRANCH  10  12
DOCKED: ENDBRANCH   8  10
DOCKED: ENDBRANCH   1   8
DOCKED: BRANCH   3  18
DOCKED: ATOM     20  C   UNL     1      36.978  11.621 123.253 -0.67 -0.00    +0.000 C 
DOCKED: ATOM     21  C   UNL     1      36.621  10.863 122.205 -0.64 -0.00    +0.000 C 
DOCKED: BRANCH  19  20
DOCKED: ATOM     22  C   UNL     1      36.846   9.404 122.142 -0.68 -0.00    +0.000 C 
DOCKED: ATOM     23  N   UNL     1      37.015   8.601 123.318 -0.67 -0.00    +0.000 N 
DOCKED: ATOM     24  O   UNL     1      36.918   8.857 121.009 -2.67 -0.00    +0.000 OA
DOCKED: ATOM     25  H   UNL     1      37.075   9.030 124.201 -0.56 -0.00    +0.000 HD
DOCKED: BRANCH  21  24
DOCKED: ATOM     26  O   UNL     1      37.090   7.251 123.216 -2.04 -0.00    +0.000 OA
DOCKED: ATOM     27  H   UNL     1      37.215   7.004 122.287 -0.16 -0.00    +0.000 HD
DOCKED: ENDBRANCH  21  24
DOCKED: ENDBRANCH  19  20
DOCKED: ENDBRANCH   3  18
DOCKED: TORSDOF 6DOCKED: TER
DOCKED: ENDMDL
________________________________________________________________________________


	BEGINNING GENETIC ALGORITHM DOCKING 84 of 100
Run: 84 Seed: 208959672 318017649 [ Run 84 of 100 GA/GALS ]
Beginning LAMARCKIAN GENETIC ALGORITHM (LGA), with a maximum of 2500000 energy evaluations.

Final-Value: -14.608


	FINAL GENETIC ALGORITHM DOCKED STATE
	_______________________________________________


Detailed state:  trans 38.579 12.926 123.469 quatxyzw 0.047208 0.605311 -0.715459 -0.345673 center 0.320 0.169 0.303 ntor 6 11.8863 -8.0076 -179.9355 102.1794 -9.4635 -73.3748
State:	 38.579  12.926 123.469   0.050  0.645 -0.762 -139.554     11.89   -8.01 -179.94  102.18   -9.46  -73.37

DOCKED: MODEL       84
DOCKED: USER    Run = 84
DOCKED: USER    DPF = ligand_dock.biased.dpf
DOCKED: USER  
DOCKED: USER    Estimated Free Energy of Binding    =  -11.23 kcal/mol  [=(1)+(2)+(3)-(4)]
DOCKED: USER    Estimated Inhibition Constant, Ki   =    5.91 nM (nanomolar)  [Temperature = 298.15 K]
DOCKED: USER    
DOCKED: USER    (1) Final Intermolecular Energy     =  -13.02 kcal/mol
DOCKED: USER        vdW + Hbond + desolv Energy     =  -13.02 kcal/mol
DOCKED: USER        Electrostatic Energy            =   +0.00 kcal/mol
DOCKED: USER    (2) Final Total Internal Energy     =   -1.59 kcal/mol
DOCKED: USER    (3) Torsional Free Energy           =   +1.79 kcal/mol
DOCKED: USER    (4) Unbound System's Energy  [=(2)] =   -1.59 kcal/mol
DOCKED: USER    
DOCKED: USER    
DOCKED: USER    NEWDPF move ligand.dum.pdbqt
DOCKED: USER    NEWDPF about 0.320000 0.169000 0.303000
DOCKED: USER    NEWDPF tran0 38.578535 12.925803 123.468827
DOCKED: USER    NEWDPF quaternion0 0.047208 0.605311 -0.715459 -0.345673
DOCKED: USER    NEWDPF axisangle0 0.050309 0.645076 -0.762460 -139.554289
DOCKED: USER    NEWDPF quat0 0.050309 0.645076 -0.762460 -139.554289
DOCKED: USER    NEWDPF dihe0 11.89 -8.01 -179.94 102.18 -9.46 -73.37 
DOCKED: USER  keepresnum = 1 
DOCKED: USER  
DOCKED: REMARK  Name = 
DOCKED: REMARK  6 active torsions:
DOCKED: REMARK  status: ('A' for Active; 'I' for Inactive)
DOCKED: REMARK    1  A    between atoms: S_2  and  N_3
DOCKED: REMARK    2  A    between atoms: S_2  and  C_10
DOCKED: REMARK    3  A    between atoms: N_3  and  C_4
DOCKED: REMARK    4  A    between atoms: C_12  and  C_13
DOCKED: REMARK    5  A    between atoms: C_14  and  C_15
DOCKED: REMARK    6  A    between atoms: N_16  and  O_17
DOCKED: REMARK                            x       y       z     vdW  Elec       q    Type
DOCKED: REMARK                         _______ _______ _______ _____ _____    ______ ____
DOCKED: USER                              x       y       z     vdW  Elec       q    Type
DOCKED: USER                           _______ _______ _______ _____ _____    ______ ____
DOCKED: ROOT
DOCKED: ATOM      1  C   UNL     1      38.389  15.143 122.707 -0.34 -0.00    +0.000 A 
DOCKED: ATOM      2  C   UNL     1      38.206  13.755 122.745 -0.42 -0.00    +0.000 A 
DOCKED: ATOM      3  C   UNL     1      36.978  13.203 123.150 -0.53 -0.00    +0.000 A 
DOCKED: ATOM      4  C   UNL     1      35.936  14.072 123.533 -0.49 -0.00    +0.000 A 
DOCKED: ATOM      5  C   UNL     1      36.118  15.457 123.486 -0.40 -0.00    +0.000 A 
DOCKED: ATOM      6  C   UNL     1      37.337  15.993 123.070 -0.29 -0.00    +0.000 A 
DOCKED: ATOM      7  CM  UNL     1      37.160  14.604 123.115 +0.00 -0.00    +0.000 AC
DOCKED: ENDROOT
DOCKED: BRANCH   1   8
DOCKED: ATOM      8  O   UNL     1      39.745  16.893 121.179 -0.14 -0.00    +0.000 OA
DOCKED: ATOM      9  S   UNL     1      39.940  15.813 122.206 -0.41 -0.00    +0.000 S 
DOCKED: ATOM     10  O   UNL     1      40.770  14.713 121.611 -0.74 -0.00    +0.000 OA
DOCKED: BRANCH   8  10
DOCKED: ATOM     11  N   UNL     1      40.772  16.480 123.576 -0.24 -0.00    +0.000 N 
DOCKED: ATOM     12  H   UNL     1      41.636  16.082 123.831 -0.05 +0.00    +0.000 HD
DOCKED: BRANCH  10  12
DOCKED: ATOM     13  C   UNL     1      40.276  17.580 124.360 -0.21 -0.00    +0.000 A 
DOCKED: ATOM     14  C   UNL     1      40.856  17.942 125.592 -0.29 -0.00    +0.000 A 
DOCKED: ATOM     15  C   UNL     1      40.351  19.023 126.321 -0.24 -0.00    +0.000 A 
DOCKED: ATOM     16  C   UNL     1      39.262  19.750 125.834 -0.11 -0.00    +0.000 A 
DOCKED: ATOM     17  C   UNL     1      38.674  19.395 124.619 -0.11 -0.00    +0.000 A 
DOCKED: ATOM     18  C   UNL     1      39.177  18.316 123.885 -0.17 -0.00    +0.000 A 
DOCKED: ATOM     19  CM  UNL     1      39.766  18.668 125.102 +0.00 -0.00    +0.000 AC
DOCKED: ENDBRANCH  10  12
DOCKED: ENDBRANCH   8  10
DOCKED: ENDBRANCH   1   8
DOCKED: BRANCH   3  18
DOCKED: ATOM     20  C   UNL     1      36.845  11.726 123.194 -0.68 -0.00    +0.000 C 
DOCKED: ATOM     21  C   UNL     1      37.067  10.928 122.138 -0.55 -0.00    +0.000 C 
DOCKED: BRANCH  19  20
DOCKED: ATOM     22  C   UNL     1      36.933   9.457 122.187 -0.65 -0.00    +0.000 C 
DOCKED: ATOM     23  N   UNL     1      37.101   8.710 123.400 -0.64 -0.00    +0.000 N 
DOCKED: ATOM     24  O   UNL     1      36.692   8.840 121.115 -2.61 -0.00    +0.000 OA
DOCKED: ATOM     25  H   UNL     1      37.402   9.165 124.219 -0.62 -0.00    +0.000 HD
DOCKED: BRANCH  21  24
DOCKED: ATOM     26  O   UNL     1      36.843   7.380 123.422 -2.04 -0.00    +0.000 OA
DOCKED: ATOM     27  H   UNL     1      36.741   7.056 122.514 -0.06 -0.00    +0.000 HD
DOCKED: ENDBRANCH  21  24
DOCKED: ENDBRANCH  19  20
DOCKED: ENDBRANCH   3  18
DOCKED: TORSDOF 6DOCKED: TER
DOCKED: ENDMDL
________________________________________________________________________________


	BEGINNING GENETIC ALGORITHM DOCKING 85 of 100
Run: 85 Seed: 162531744 278696041 [ Run 85 of 100 GA/GALS ]
Beginning LAMARCKIAN GENETIC ALGORITHM (LGA), with a maximum of 2500000 energy evaluations.

Final-Value: -14.206


	FINAL GENETIC ALGORITHM DOCKED STATE
	_______________________________________________


Detailed state:  trans 36.132 13.288 121.563 quatxyzw -0.569504 0.098770 0.329248 0.746663 center 0.320 0.169 0.303 ntor 6 11.1715 -168.9573 -78.7423 141.1986 -147.7563 -37.1475
State:	 36.132  13.288 121.563  -0.856  0.148  0.495 83.396     11.17 -168.96  -78.74  141.20 -147.76  -37.15

DOCKED: MODEL       85
DOCKED: USER    Run = 85
DOCKED: USER    DPF = ligand_dock.biased.dpf
DOCKED: USER  
DOCKED: USER    Estimated Free Energy of Binding    =  -10.91 kcal/mol  [=(1)+(2)+(3)-(4)]
DOCKED: USER    Estimated Inhibition Constant, Ki   =    9.99 nM (nanomolar)  [Temperature = 298.15 K]
DOCKED: USER    
DOCKED: USER    (1) Final Intermolecular Energy     =  -12.70 kcal/mol
DOCKED: USER        vdW + Hbond + desolv Energy     =  -12.70 kcal/mol
DOCKED: USER        Electrostatic Energy            =   +0.00 kcal/mol
DOCKED: USER    (2) Final Total Internal Energy     =   -1.50 kcal/mol
DOCKED: USER    (3) Torsional Free Energy           =   +1.79 kcal/mol
DOCKED: USER    (4) Unbound System's Energy  [=(2)] =   -1.50 kcal/mol
DOCKED: USER    
DOCKED: USER    
DOCKED: USER    NEWDPF move ligand.dum.pdbqt
DOCKED: USER    NEWDPF about 0.320000 0.169000 0.303000
DOCKED: USER    NEWDPF tran0 36.131773 13.287632 121.562772
DOCKED: USER    NEWDPF quaternion0 -0.569504 0.098770 0.329248 0.746663
DOCKED: USER    NEWDPF axisangle0 -0.856136 0.148480 0.494959 83.395736
DOCKED: USER    NEWDPF quat0 -0.856136 0.148480 0.494959 83.395736
DOCKED: USER    NEWDPF dihe0 11.17 -168.96 -78.74 141.20 -147.76 -37.15 
DOCKED: USER  keepresnum = 1 
DOCKED: USER  
DOCKED: REMARK  Name = 
DOCKED: REMARK  6 active torsions:
DOCKED: REMARK  status: ('A' for Active; 'I' for Inactive)
DOCKED: REMARK    1  A    between atoms: S_2  and  N_3
DOCKED: REMARK    2  A    between atoms: S_2  and  C_10
DOCKED: REMARK    3  A    between atoms: N_3  and  C_4
DOCKED: REMARK    4  A    between atoms: C_12  and  C_13
DOCKED: REMARK    5  A    between atoms: C_14  and  C_15
DOCKED: REMARK    6  A    between atoms: N_16  and  O_17
DOCKED: REMARK                            x       y       z     vdW  Elec       q    Type
DOCKED: REMARK                         _______ _______ _______ _____ _____    ______ ____
DOCKED: USER                              x       y       z     vdW  Elec       q    Type
DOCKED: USER                           _______ _______ _______ _____ _____    ______ ____
DOCKED: ROOT
DOCKED: ATOM      1  C   UNL     1      37.142  15.401 121.345 -0.23 -0.00    +0.000 A 
DOCKED: ATOM      2  C   UNL     1      37.038  14.011 121.490 -0.30 -0.00    +0.000 A 
DOCKED: ATOM      3  C   UNL     1      37.313  13.154 120.410 -0.41 -0.00    +0.000 A 
DOCKED: ATOM      4  C   UNL     1      37.681  13.718 119.171 -0.32 -0.00    +0.000 A 
DOCKED: ATOM      5  C   UNL     1      37.792  15.104 119.031 -0.20 -0.00    +0.000 A 
DOCKED: ATOM      6  C   UNL     1      37.528  15.944 120.114 -0.16 -0.00    +0.000 A 
DOCKED: ATOM      7  CM  UNL     1      37.416  14.556 120.260 +0.00 -0.00    +0.000 AC
DOCKED: ENDROOT
DOCKED: BRANCH   1   8
DOCKED: ATOM      8  O   UNL     1      37.239  17.861 122.428 -0.15 -0.00    +0.000 OA
DOCKED: ATOM      9  S   UNL     1      36.782  16.457 122.709 -0.36 -0.00    +0.000 S 
DOCKED: ATOM     10  O   UNL     1      37.501  15.941 123.922 -0.33 -0.00    +0.000 OA
DOCKED: BRANCH   8  10
DOCKED: ATOM     11  N   UNL     1      35.073  16.470 123.020 -0.37 -0.00    +0.000 N 
DOCKED: ATOM     12  H   UNL     1      34.469  16.195 122.293 -0.03 -0.00    +0.000 HD
DOCKED: BRANCH  10  12
DOCKED: ATOM     13  C   UNL     1      34.489  16.859 124.276 -0.43 -0.00    +0.000 A 
DOCKED: ATOM     14  C   UNL     1      34.244  15.930 125.306 -0.41 -0.00    +0.000 A 
DOCKED: ATOM     15  C   UNL     1      33.683  16.347 126.516 -0.36 -0.00    +0.000 A 
DOCKED: ATOM     16  C   UNL     1      33.356  17.691 126.711 -0.32 -0.00    +0.000 A 
DOCKED: ATOM     17  C   UNL     1      33.586  18.620 125.695 -0.30 -0.00    +0.000 A 
DOCKED: ATOM     18  C   UNL     1      34.149  18.207 124.483 -0.31 -0.00    +0.000 A 
DOCKED: ATOM     19  CM  UNL     1      33.918  17.276 125.498 -0.18 -0.00    +0.000 AC
DOCKED: ENDBRANCH  10  12
DOCKED: ENDBRANCH   8  10
DOCKED: ENDBRANCH   1   8
DOCKED: BRANCH   3  18
DOCKED: ATOM     20  C   UNL     1      37.165  11.692 120.612 -0.40 -0.00    +0.000 C 
DOCKED: ATOM     21  C   UNL     1      37.121  11.108 121.820 -0.47 -0.00    +0.000 C 
DOCKED: BRANCH  19  20
DOCKED: ATOM     22  C   UNL     1      36.974   9.651 122.015 -0.62 -0.00    +0.000 C 
DOCKED: ATOM     23  N   UNL     1      37.081   9.034 123.305 -0.61 -0.00    +0.000 N 
DOCKED: ATOM     24  O   UNL     1      36.776   8.927 121.003 -2.63 -0.00    +0.000 OA
DOCKED: ATOM     25  H   UNL     1      37.349   9.571 124.086 -0.57 -0.00    +0.000 HD
DOCKED: BRANCH  21  24
DOCKED: ATOM     26  O   UNL     1      36.811   7.715 123.454 -2.18 -0.00    +0.000 OA
DOCKED: ATOM     27  H   UNL     1      36.737   7.300 122.581 -0.05 -0.00    +0.000 HD
DOCKED: ENDBRANCH  21  24
DOCKED: ENDBRANCH  19  20
DOCKED: ENDBRANCH   3  18
DOCKED: TORSDOF 6DOCKED: TER
DOCKED: ENDMDL
________________________________________________________________________________


	BEGINNING GENETIC ALGORITHM DOCKING 86 of 100
Run: 86 Seed: 1932883185 1923794949 [ Run 86 of 100 GA/GALS ]
Beginning LAMARCKIAN GENETIC ALGORITHM (LGA), with a maximum of 2500000 energy evaluations.

Final-Value: -14.505


	FINAL GENETIC ALGORITHM DOCKED STATE
	_______________________________________________


Detailed state:  trans 38.382 13.548 123.043 quatxyzw 0.059324 -0.718175 0.557231 0.412551 center 0.320 0.169 0.303 ntor 6 14.9974 132.8393 -34.3779 -18.9706 175.1369 -32.3801
State:	 38.382  13.548 123.043   0.065 -0.788  0.612 131.270     15.00  132.84  -34.38  -18.97  175.14  -32.38

DOCKED: MODEL       86
DOCKED: USER    Run = 86
DOCKED: USER    DPF = ligand_dock.biased.dpf
DOCKED: USER  
DOCKED: USER    Estimated Free Energy of Binding    =  -11.23 kcal/mol  [=(1)+(2)+(3)-(4)]
DOCKED: USER    Estimated Inhibition Constant, Ki   =    5.84 nM (nanomolar)  [Temperature = 298.15 K]
DOCKED: USER    
DOCKED: USER    (1) Final Intermolecular Energy     =  -13.02 kcal/mol
DOCKED: USER        vdW + Hbond + desolv Energy     =  -13.02 kcal/mol
DOCKED: USER        Electrostatic Energy            =   +0.00 kcal/mol
DOCKED: USER    (2) Final Total Internal Energy     =   -1.48 kcal/mol
DOCKED: USER    (3) Torsional Free Energy           =   +1.79 kcal/mol
DOCKED: USER    (4) Unbound System's Energy  [=(2)] =   -1.48 kcal/mol
DOCKED: USER    
DOCKED: USER    
DOCKED: USER    NEWDPF move ligand.dum.pdbqt
DOCKED: USER    NEWDPF about 0.320000 0.169000 0.303000
DOCKED: USER    NEWDPF tran0 38.382043 13.547572 123.042984
DOCKED: USER    NEWDPF quaternion0 0.059324 -0.718175 0.557231 0.412551
DOCKED: USER    NEWDPF axisangle0 0.065124 -0.788394 0.611714 131.269600
DOCKED: USER    NEWDPF quat0 0.065124 -0.788394 0.611714 131.269600
DOCKED: USER    NEWDPF dihe0 15.00 132.84 -34.38 -18.97 175.14 -32.38 
DOCKED: USER  keepresnum = 1 
DOCKED: USER  
DOCKED: REMARK  Name = 
DOCKED: REMARK  6 active torsions:
DOCKED: REMARK  status: ('A' for Active; 'I' for Inactive)
DOCKED: REMARK    1  A    between atoms: S_2  and  N_3
DOCKED: REMARK    2  A    between atoms: S_2  and  C_10
DOCKED: REMARK    3  A    between atoms: N_3  and  C_4
DOCKED: REMARK    4  A    between atoms: C_12  and  C_13
DOCKED: REMARK    5  A    between atoms: C_14  and  C_15
DOCKED: REMARK    6  A    between atoms: N_16  and  O_17
DOCKED: REMARK                            x       y       z     vdW  Elec       q    Type
DOCKED: REMARK                         _______ _______ _______ _____ _____    ______ ____
DOCKED: USER                              x       y       z     vdW  Elec       q    Type
DOCKED: USER                           _______ _______ _______ _____ _____    ______ ____
DOCKED: ROOT
DOCKED: ATOM      1  C   UNL     1      37.366  15.668 122.973 -0.31 -0.00    +0.000 A 
DOCKED: ATOM      2  C   UNL     1      37.643  14.340 122.624 -0.41 -0.00    +0.000 A 
DOCKED: ATOM      3  C   UNL     1      36.746  13.309 122.953 -0.51 -0.00    +0.000 A 
DOCKED: ATOM      4  C   UNL     1      35.568  13.632 123.657 -0.43 -0.00    +0.000 A 
DOCKED: ATOM      5  C   UNL     1      35.290  14.959 123.998 -0.50 -0.00    +0.000 A 
DOCKED: ATOM      6  C   UNL     1      36.182  15.976 123.653 -0.35 -0.00    +0.000 A 
DOCKED: ATOM      7  CM  UNL     1      36.466  14.647 123.309 +0.00 -0.00    +0.000 AC
DOCKED: ENDROOT
DOCKED: BRANCH   1   8
DOCKED: ATOM      8  O   UNL     1      37.930  18.296 122.864 -0.13 -0.00    +0.000 OA
DOCKED: ATOM      9  S   UNL     1      38.510  16.943 122.559 -0.26 -0.00    +0.000 S 
DOCKED: ATOM     10  O   UNL     1      38.815  16.860 121.091 -0.12 -0.00    +0.000 OA
DOCKED: BRANCH   8  10
DOCKED: ATOM     11  N   UNL     1      39.981  16.743 123.461 -0.27 -0.00    +0.000 N 
DOCKED: ATOM     12  H   UNL     1      39.922  16.734 124.443 -0.02 -0.00    +0.000 HD
DOCKED: BRANCH  10  12
DOCKED: ATOM     13  C   UNL     1      41.278  16.589 122.857 -0.33 -0.00    +0.000 A 
DOCKED: ATOM     14  C   UNL     1      41.499  15.718 121.772 -0.33 -0.00    +0.000 A 
DOCKED: ATOM     15  C   UNL     1      42.772  15.602 121.206 -0.26 -0.00    +0.000 A 
DOCKED: ATOM     16  C   UNL     1      43.836  16.348 121.717 -0.27 -0.00    +0.000 A 
DOCKED: ATOM     17  C   UNL     1      43.631  17.209 122.797 -0.31 -0.00    +0.000 A 
DOCKED: ATOM     18  C   UNL     1      42.359  17.329 123.365 -0.31 -0.00    +0.000 A 
DOCKED: ATOM     19  CM  UNL     1      42.562  16.466 122.285 +0.00 -0.00    +0.000 AC
DOCKED: ENDBRANCH  10  12
DOCKED: ENDBRANCH   8  10
DOCKED: ENDBRANCH   1   8
DOCKED: BRANCH   3  18
DOCKED: ATOM     20  C   UNL     1      37.099  11.917 122.579 -0.60 -0.00    +0.000 C 
DOCKED: ATOM     21  C   UNL     1      36.302  10.862 122.806 -0.69 -0.00    +0.000 C 
DOCKED: BRANCH  19  20
DOCKED: ATOM     22  C   UNL     1      36.659   9.477 122.431 -0.72 -0.00    +0.000 C 
DOCKED: ATOM     23  N   UNL     1      36.877   8.449 123.407 -0.68 -0.00    +0.000 N 
DOCKED: ATOM     24  O   UNL     1      36.801   9.204 121.209 -2.66 -0.00    +0.000 OA
DOCKED: ATOM     25  H   UNL     1      36.882   8.675 124.365 -0.44 -0.00    +0.000 HD
DOCKED: BRANCH  21  24
DOCKED: ATOM     26  O   UNL     1      37.075   7.168 123.014 -1.95 -0.00    +0.000 OA
DOCKED: ATOM     27  H   UNL     1      37.275   7.148 122.065 -0.15 -0.00    +0.000 HD
DOCKED: ENDBRANCH  21  24
DOCKED: ENDBRANCH  19  20
DOCKED: ENDBRANCH   3  18
DOCKED: TORSDOF 6DOCKED: TER
DOCKED: ENDMDL
________________________________________________________________________________


	BEGINNING GENETIC ALGORITHM DOCKING 87 of 100
Run: 87 Seed: 2131739250 780669625 [ Run 87 of 100 GA/GALS ]
Beginning LAMARCKIAN GENETIC ALGORITHM (LGA), with a maximum of 2500000 energy evaluations.

Final-Value: -14.290


	FINAL GENETIC ALGORITHM DOCKED STATE
	_______________________________________________


Detailed state:  trans 36.015 12.985 122.123 quatxyzw 0.608429 -0.024383 -0.287046 -0.739475 center 0.320 0.169 0.303 ntor 6 26.4747 -179.7145 132.1949 160.4281 22.4845 -98.3208
State:	 36.015  12.985 122.123   0.904 -0.036 -0.426 -84.627     26.47 -179.71  132.19  160.43   22.48  -98.32

DOCKED: MODEL       87
DOCKED: USER    Run = 87
DOCKED: USER    DPF = ligand_dock.biased.dpf
DOCKED: USER  
DOCKED: USER    Estimated Free Energy of Binding    =  -10.99 kcal/mol  [=(1)+(2)+(3)-(4)]
DOCKED: USER    Estimated Inhibition Constant, Ki   =    8.78 nM (nanomolar)  [Temperature = 298.15 K]
DOCKED: USER    
DOCKED: USER    (1) Final Intermolecular Energy     =  -12.78 kcal/mol
DOCKED: USER        vdW + Hbond + desolv Energy     =  -12.78 kcal/mol
DOCKED: USER        Electrostatic Energy            =   +0.00 kcal/mol
DOCKED: USER    (2) Final Total Internal Energy     =   -1.51 kcal/mol
DOCKED: USER    (3) Torsional Free Energy           =   +1.79 kcal/mol
DOCKED: USER    (4) Unbound System's Energy  [=(2)] =   -1.51 kcal/mol
DOCKED: USER    
DOCKED: USER    
DOCKED: USER    NEWDPF move ligand.dum.pdbqt
DOCKED: USER    NEWDPF about 0.320000 0.169000 0.303000
DOCKED: USER    NEWDPF tran0 36.014644 12.984909 122.123436
DOCKED: USER    NEWDPF quaternion0 0.608429 -0.024383 -0.287046 -0.739475
DOCKED: USER    NEWDPF axisangle0 0.903809 -0.036220 -0.426401 -84.626511
DOCKED: USER    NEWDPF quat0 0.903809 -0.036220 -0.426401 -84.626511
DOCKED: USER    NEWDPF dihe0 26.47 -179.71 132.19 160.43 22.48 -98.32 
DOCKED: USER  keepresnum = 1 
DOCKED: USER  
DOCKED: REMARK  Name = 
DOCKED: REMARK  6 active torsions:
DOCKED: REMARK  status: ('A' for Active; 'I' for Inactive)
DOCKED: REMARK    1  A    between atoms: S_2  and  N_3
DOCKED: REMARK    2  A    between atoms: S_2  and  C_10
DOCKED: REMARK    3  A    between atoms: N_3  and  C_4
DOCKED: REMARK    4  A    between atoms: C_12  and  C_13
DOCKED: REMARK    5  A    between atoms: C_14  and  C_15
DOCKED: REMARK    6  A    between atoms: N_16  and  O_17
DOCKED: REMARK                            x       y       z     vdW  Elec       q    Type
DOCKED: REMARK                         _______ _______ _______ _____ _____    ______ ____
DOCKED: USER                              x       y       z     vdW  Elec       q    Type
DOCKED: USER                           _______ _______ _______ _____ _____    ______ ____
DOCKED: ROOT
DOCKED: ATOM      1  C   UNL     1      36.690  15.238 122.110 -0.26 -0.00    +0.000 A 
DOCKED: ATOM      2  C   UNL     1      36.799  13.842 122.105 -0.34 -0.00    +0.000 A 
DOCKED: ATOM      3  C   UNL     1      37.151  13.153 120.931 -0.41 -0.00    +0.000 A 
DOCKED: ATOM      4  C   UNL     1      37.376  13.892 119.751 -0.34 -0.00    +0.000 A 
DOCKED: ATOM      5  C   UNL     1      37.274  15.285 119.760 -0.21 -0.00    +0.000 A 
DOCKED: ATOM      6  C   UNL     1      36.938  15.959 120.936 -0.18 -0.00    +0.000 A 
DOCKED: ATOM      7  CM  UNL     1      37.038  14.561 120.932 +0.00 -0.00    +0.000 AC
DOCKED: ENDROOT
DOCKED: BRANCH   1   8
DOCKED: ATOM      8  O   UNL     1      37.425  16.786 124.183 -0.29 -0.00    +0.000 OA
DOCKED: ATOM      9  S   UNL     1      36.238  16.080 123.590 -0.48 -0.00    +0.000 S 
DOCKED: ATOM     10  O   UNL     1      35.721  15.075 124.578 -0.53 -0.00    +0.000 OA
DOCKED: BRANCH   8  10
DOCKED: ATOM     11  N   UNL     1      34.995  17.247 123.258 -0.34 -0.00    +0.000 N 
DOCKED: ATOM     12  H   UNL     1      34.348  17.449 123.972 -0.01 -0.00    +0.000 HD
DOCKED: BRANCH  10  12
DOCKED: ATOM     13  C   UNL     1      34.856  17.937 122.003 -0.31 -0.00    +0.000 A 
DOCKED: ATOM     14  C   UNL     1      33.684  17.845 121.226 -0.30 -0.00    +0.000 A 
DOCKED: ATOM     15  C   UNL     1      33.582  18.537 120.015 -0.31 -0.00    +0.000 A 
DOCKED: ATOM     16  C   UNL     1      34.646  19.321 119.564 -0.18 -0.00    +0.000 A 
DOCKED: ATOM     17  C   UNL     1      35.815  19.413 120.321 -0.12 -0.00    +0.000 A 
DOCKED: ATOM     18  C   UNL     1      35.921  18.724 121.534 -0.19 -0.00    +0.000 A 
DOCKED: ATOM     19  CM  UNL     1      34.750  18.630 120.778 +0.00 -0.00    +0.000 AC
DOCKED: ENDBRANCH  10  12
DOCKED: ENDBRANCH   8  10
DOCKED: ENDBRANCH   1   8
DOCKED: BRANCH   3  18
DOCKED: ATOM     20  C   UNL     1      37.231  11.672 120.976 -0.49 -0.00    +0.000 C 
DOCKED: ATOM     21  C   UNL     1      36.956  10.945 122.070 -0.57 -0.00    +0.000 C 
DOCKED: BRANCH  19  20
DOCKED: ATOM     22  C   UNL     1      37.037   9.470 122.110 -0.63 -0.00    +0.000 C 
DOCKED: ATOM     23  N   UNL     1      37.113   8.738 123.340 -0.64 -0.00    +0.000 N 
DOCKED: ATOM     24  O   UNL     1      37.068   8.842 121.018 -2.70 -0.00    +0.000 OA
DOCKED: ATOM     25  H   UNL     1      37.206   9.220 124.193 -0.59 -0.00    +0.000 HD
DOCKED: BRANCH  21  24
DOCKED: ATOM     26  O   UNL     1      37.056   7.384 123.331 -2.14 -0.00    +0.000 OA
DOCKED: ATOM     27  H   UNL     1      37.378   7.052 122.479 -0.21 -0.00    +0.000 HD
DOCKED: ENDBRANCH  21  24
DOCKED: ENDBRANCH  19  20
DOCKED: ENDBRANCH   3  18
DOCKED: TORSDOF 6DOCKED: TER
DOCKED: ENDMDL
________________________________________________________________________________


	BEGINNING GENETIC ALGORITHM DOCKING 88 of 100
Run: 88 Seed: 1736052439 1824132300 [ Run 88 of 100 GA/GALS ]
Beginning LAMARCKIAN GENETIC ALGORITHM (LGA), with a maximum of 2500000 energy evaluations.

Final-Value: -15.221


	FINAL GENETIC ALGORITHM DOCKED STATE
	_______________________________________________


Detailed state:  trans 35.814 13.368 122.063 quatxyzw -0.766268 0.404506 -0.027078 0.498472 center 0.320 0.169 0.303 ntor 6 8.8078 148.7662 64.9979 119.6270 -93.2531 -180.0000
State:	 35.814  13.368 122.063  -0.884  0.467 -0.031 120.202      8.81  148.77   65.00  119.63  -93.25 -180.00

DOCKED: MODEL       88
DOCKED: USER    Run = 88
DOCKED: USER    DPF = ligand_dock.biased.dpf
DOCKED: USER  
DOCKED: USER    Estimated Free Energy of Binding    =  -11.96 kcal/mol  [=(1)+(2)+(3)-(4)]
DOCKED: USER    Estimated Inhibition Constant, Ki   =    1.71 nM (nanomolar)  [Temperature = 298.15 K]
DOCKED: USER    
DOCKED: USER    (1) Final Intermolecular Energy     =  -13.75 kcal/mol
DOCKED: USER        vdW + Hbond + desolv Energy     =  -13.75 kcal/mol
DOCKED: USER        Electrostatic Energy            =   +0.00 kcal/mol
DOCKED: USER    (2) Final Total Internal Energy     =   -1.47 kcal/mol
DOCKED: USER    (3) Torsional Free Energy           =   +1.79 kcal/mol
DOCKED: USER    (4) Unbound System's Energy  [=(2)] =   -1.47 kcal/mol
DOCKED: USER    
DOCKED: USER    
DOCKED: USER    NEWDPF move ligand.dum.pdbqt
DOCKED: USER    NEWDPF about 0.320000 0.169000 0.303000
DOCKED: USER    NEWDPF tran0 35.813771 13.368189 122.062884
DOCKED: USER    NEWDPF quaternion0 -0.766268 0.404506 -0.027078 0.498472
DOCKED: USER    NEWDPF axisangle0 -0.883912 0.466609 -0.031235 120.202090
DOCKED: USER    NEWDPF quat0 -0.883912 0.466609 -0.031235 120.202090
DOCKED: USER    NEWDPF dihe0 8.81 148.77 65.00 119.63 -93.25 -180.00 
DOCKED: USER  keepresnum = 1 
DOCKED: USER  
DOCKED: REMARK  Name = 
DOCKED: REMARK  6 active torsions:
DOCKED: REMARK  status: ('A' for Active; 'I' for Inactive)
DOCKED: REMARK    1  A    between atoms: S_2  and  N_3
DOCKED: REMARK    2  A    between atoms: S_2  and  C_10
DOCKED: REMARK    3  A    between atoms: N_3  and  C_4
DOCKED: REMARK    4  A    between atoms: C_12  and  C_13
DOCKED: REMARK    5  A    between atoms: C_14  and  C_15
DOCKED: REMARK    6  A    between atoms: N_16  and  O_17
DOCKED: REMARK                            x       y       z     vdW  Elec       q    Type
DOCKED: REMARK                         _______ _______ _______ _____ _____    ______ ____
DOCKED: USER                              x       y       z     vdW  Elec       q    Type
DOCKED: USER                           _______ _______ _______ _____ _____    ______ ____
DOCKED: ROOT
DOCKED: ATOM      1  C   UNL     1      36.023  15.332 123.341 -0.40 -0.00    +0.000 A 
DOCKED: ATOM      2  C   UNL     1      36.139  13.979 122.996 -0.37 -0.00    +0.000 A 
DOCKED: ATOM      3  C   UNL     1      37.378  13.443 122.602 -0.47 -0.00    +0.000 A 
DOCKED: ATOM      4  C   UNL     1      38.500  14.295 122.543 -0.40 -0.00    +0.000 A 
DOCKED: ATOM      5  C   UNL     1      38.382  15.643 122.895 -0.29 -0.00    +0.000 A 
DOCKED: ATOM      6  C   UNL     1      37.150  16.160 123.298 -0.28 -0.00    +0.000 A 
DOCKED: ATOM      7  CM  UNL     1      37.262  14.809 122.946 +0.00 -0.00    +0.000 AC
DOCKED: ENDROOT
DOCKED: BRANCH   1   8
DOCKED: ATOM      8  O   UNL     1      33.576  14.899 124.370 -0.52 -0.00    +0.000 OA
DOCKED: ATOM      9  S   UNL     1      34.459  15.985 123.822 -0.69 -0.00    +0.000 S 
DOCKED: ATOM     10  O   UNL     1      33.799  16.594 122.619 -0.40 -0.00    +0.000 OA
DOCKED: BRANCH   8  10
DOCKED: ATOM     11  N   UNL     1      34.670  17.209 125.037 -0.38 -0.00    +0.000 N 
DOCKED: ATOM     12  H   UNL     1      35.477  17.771 124.991 -0.01 -0.00    +0.000 HD
DOCKED: BRANCH  10  12
DOCKED: ATOM     13  C   UNL     1      33.738  17.448 126.107 -0.35 -0.00    +0.000 A 
DOCKED: ATOM     14  C   UNL     1      33.314  16.420 126.972 -0.36 -0.00    +0.000 A 
DOCKED: ATOM     15  C   UNL     1      32.413  16.693 128.006 -0.40 -0.00    +0.000 A 
DOCKED: ATOM     16  C   UNL     1      31.923  17.988 128.185 -0.26 -0.00    +0.000 A 
DOCKED: ATOM     17  C   UNL     1      32.330  19.013 127.329 -0.22 -0.00    +0.000 A 
DOCKED: ATOM     18  C   UNL     1      33.232  18.745 126.294 -0.27 -0.00    +0.000 A 
DOCKED: ATOM     19  CM  UNL     1      32.825  17.718 127.149 +0.00 -0.00    +0.000 AC
DOCKED: ENDBRANCH  10  12
DOCKED: ENDBRANCH   8  10
DOCKED: ENDBRANCH   1   8
DOCKED: BRANCH   3  18
DOCKED: ATOM     20  C   UNL     1      37.441  12.009 122.225 -0.45 -0.00    +0.000 C 
DOCKED: ATOM     21  C   UNL     1      36.766  11.042 122.865 -0.67 -0.00    +0.000 C 
DOCKED: BRANCH  19  20
DOCKED: ATOM     22  C   UNL     1      36.832   9.615 122.486 -0.67 -0.00    +0.000 C 
DOCKED: ATOM     23  N   UNL     1      37.080   8.577 123.443 -0.66 -0.00    +0.000 N 
DOCKED: ATOM     24  O   UNL     1      36.691   9.310 121.271 -2.50 -0.00    +0.000 OA
DOCKED: ATOM     25  H   UNL     1      37.306   8.810 124.373 -0.56 -0.00    +0.000 HD
DOCKED: BRANCH  21  24
DOCKED: ATOM     26  O   UNL     1      37.005   7.276 123.072 -2.07 -0.00    +0.000 OA
DOCKED: ATOM     27  H   UNL     1      36.912   7.220 122.108 -0.08 -0.00    +0.000 HD
DOCKED: ENDBRANCH  21  24
DOCKED: ENDBRANCH  19  20
DOCKED: ENDBRANCH   3  18
DOCKED: TORSDOF 6DOCKED: TER
DOCKED: ENDMDL
________________________________________________________________________________


	BEGINNING GENETIC ALGORITHM DOCKING 89 of 100
Run: 89 Seed: 1765510334 1218092524 [ Run 89 of 100 GA/GALS ]
Beginning LAMARCKIAN GENETIC ALGORITHM (LGA), with a maximum of 2500000 energy evaluations.

Final-Value: -15.252


	FINAL GENETIC ALGORITHM DOCKED STATE
	_______________________________________________


Detailed state:  trans 35.596 13.046 122.765 quatxyzw 0.682767 -0.385316 0.039744 -0.619501 center 0.320 0.169 0.303 ntor 6 16.8178 19.1783 118.2915 -102.1244 175.9037 142.1129
State:	 35.596  13.046 122.765   0.870 -0.491  0.051 -103.441     16.82   19.18  118.29 -102.12  175.90  142.11

DOCKED: MODEL       89
DOCKED: USER    Run = 89
DOCKED: USER    DPF = ligand_dock.biased.dpf
DOCKED: USER  
DOCKED: USER    Estimated Free Energy of Binding    =  -11.96 kcal/mol  [=(1)+(2)+(3)-(4)]
DOCKED: USER    Estimated Inhibition Constant, Ki   =    1.72 nM (nanomolar)  [Temperature = 298.15 K]
DOCKED: USER    
DOCKED: USER    (1) Final Intermolecular Energy     =  -13.75 kcal/mol
DOCKED: USER        vdW + Hbond + desolv Energy     =  -13.75 kcal/mol
DOCKED: USER        Electrostatic Energy            =   +0.00 kcal/mol
DOCKED: USER    (2) Final Total Internal Energy     =   -1.51 kcal/mol
DOCKED: USER    (3) Torsional Free Energy           =   +1.79 kcal/mol
DOCKED: USER    (4) Unbound System's Energy  [=(2)] =   -1.51 kcal/mol
DOCKED: USER    
DOCKED: USER    
DOCKED: USER    NEWDPF move ligand.dum.pdbqt
DOCKED: USER    NEWDPF about 0.320000 0.169000 0.303000
DOCKED: USER    NEWDPF tran0 35.595545 13.046048 122.764998
DOCKED: USER    NEWDPF quaternion0 0.682767 -0.385316 0.039744 -0.619501
DOCKED: USER    NEWDPF axisangle0 0.869771 -0.490851 0.050629 -103.440601
DOCKED: USER    NEWDPF quat0 0.869771 -0.490851 0.050629 -103.440601
DOCKED: USER    NEWDPF dihe0 16.82 19.18 118.29 -102.12 175.90 142.11 
DOCKED: USER  keepresnum = 1 
DOCKED: USER  
DOCKED: REMARK  Name = 
DOCKED: REMARK  6 active torsions:
DOCKED: REMARK  status: ('A' for Active; 'I' for Inactive)
DOCKED: REMARK    1  A    between atoms: S_2  and  N_3
DOCKED: REMARK    2  A    between atoms: S_2  and  C_10
DOCKED: REMARK    3  A    between atoms: N_3  and  C_4
DOCKED: REMARK    4  A    between atoms: C_12  and  C_13
DOCKED: REMARK    5  A    between atoms: C_14  and  C_15
DOCKED: REMARK    6  A    between atoms: N_16  and  O_17
DOCKED: REMARK                            x       y       z     vdW  Elec       q    Type
DOCKED: REMARK                         _______ _______ _______ _____ _____    ______ ____
DOCKED: USER                              x       y       z     vdW  Elec       q    Type
DOCKED: USER                           _______ _______ _______ _____ _____    ______ ____
DOCKED: ROOT
DOCKED: ATOM      1  C   UNL     1      35.963  15.275 123.422 -0.42 -0.00    +0.000 A 
DOCKED: ATOM      2  C   UNL     1      36.021  13.875 123.458 -0.50 -0.00    +0.000 A 
DOCKED: ATOM      3  C   UNL     1      37.205  13.197 123.123 -0.52 -0.00    +0.000 A 
DOCKED: ATOM      4  C   UNL     1      38.332  13.948 122.731 -0.40 -0.00    +0.000 A 
DOCKED: ATOM      5  C   UNL     1      38.275  15.344 122.703 -0.32 -0.00    +0.000 A 
DOCKED: ATOM      6  C   UNL     1      37.097  16.007 123.052 -0.29 -0.00    +0.000 A 
DOCKED: ATOM      7  CM  UNL     1      37.149  14.608 123.082 +0.00 -0.00    +0.000 AC
DOCKED: ENDROOT
DOCKED: BRANCH   1   8
DOCKED: ATOM      8  O   UNL     1      33.318  15.135 123.888 -0.55 -0.00    +0.000 OA
DOCKED: ATOM      9  S   UNL     1      34.466  16.105 123.838 -0.68 -0.00    +0.000 S 
DOCKED: ATOM     10  O   UNL     1      34.184  17.145 122.792 -0.47 -0.00    +0.000 OA
DOCKED: BRANCH   8  10
DOCKED: ATOM     11  N   UNL     1      34.621  16.877 125.386 -0.39 -0.00    +0.000 N 
DOCKED: ATOM     12  H   UNL     1      34.860  16.318 126.159 -0.00 -0.00    +0.000 HD
DOCKED: BRANCH  10  12
DOCKED: ATOM     13  C   UNL     1      34.420  18.286 125.604 -0.30 -0.00    +0.000 A 
DOCKED: ATOM     14  C   UNL     1      33.278  18.785 126.261 -0.28 -0.00    +0.000 A 
DOCKED: ATOM     15  C   UNL     1      33.123  20.160 126.463 -0.19 -0.00    +0.000 A 
DOCKED: ATOM     16  C   UNL     1      34.098  21.049 126.008 -0.15 -0.00    +0.000 A 
DOCKED: ATOM     17  C   UNL     1      35.230  20.567 125.348 -0.15 -0.00    +0.000 A 
DOCKED: ATOM     18  C   UNL     1      35.391  19.193 125.145 -0.20 -0.00    +0.000 A 
DOCKED: ATOM     19  CM  UNL     1      34.257  19.673 125.805 -0.02 -0.00    +0.000 AC
DOCKED: ENDBRANCH  10  12
DOCKED: ENDBRANCH   8  10
DOCKED: ENDBRANCH   1   8
DOCKED: BRANCH   3  18
DOCKED: ATOM     20  C   UNL     1      37.205  11.713 123.156 -0.58 -0.00    +0.000 C 
DOCKED: ATOM     21  C   UNL     1      37.058  10.945 122.066 -0.55 -0.00    +0.000 C 
DOCKED: BRANCH  19  20
DOCKED: ATOM     22  C   UNL     1      37.058   9.467 122.105 -0.62 -0.00    +0.000 C 
DOCKED: ATOM     23  N   UNL     1      37.198   8.731 123.327 -0.62 -0.00    +0.000 N 
DOCKED: ATOM     24  O   UNL     1      36.959   8.839 121.017 -2.68 -0.00    +0.000 OA
DOCKED: ATOM     25  H   UNL     1      37.390   9.206 124.167 -0.60 -0.00    +0.000 HD
DOCKED: BRANCH  21  24
DOCKED: ATOM     26  O   UNL     1      37.063   7.382 123.329 -2.14 -0.00    +0.000 OA
DOCKED: ATOM     27  H   UNL     1      37.142   7.049 122.422 -0.13 -0.00    +0.000 HD
DOCKED: ENDBRANCH  21  24
DOCKED: ENDBRANCH  19  20
DOCKED: ENDBRANCH   3  18
DOCKED: TORSDOF 6DOCKED: TER
DOCKED: ENDMDL
________________________________________________________________________________


	BEGINNING GENETIC ALGORITHM DOCKING 90 of 100
Run: 90 Seed: 915685528 45073246 [ Run 90 of 100 GA/GALS ]
Beginning LAMARCKIAN GENETIC ALGORITHM (LGA), with a maximum of 2500000 energy evaluations.

Final-Value: -14.877


	FINAL GENETIC ALGORITHM DOCKED STATE
	_______________________________________________


Detailed state:  trans 37.921 13.248 122.540 quatxyzw -0.228121 0.673380 -0.660764 -0.240647 center 0.320 0.169 0.303 ntor 6 27.6109 18.0466 -180.0000 118.0945 127.7599 -74.8543
State:	 37.921  13.248 122.540  -0.235  0.694 -0.681 -152.151     27.61   18.05 -180.00  118.09  127.76  -74.85

DOCKED: MODEL       90
DOCKED: USER    Run = 90
DOCKED: USER    DPF = ligand_dock.biased.dpf
DOCKED: USER  
DOCKED: USER    Estimated Free Energy of Binding    =  -11.44 kcal/mol  [=(1)+(2)+(3)-(4)]
DOCKED: USER    Estimated Inhibition Constant, Ki   =    4.11 nM (nanomolar)  [Temperature = 298.15 K]
DOCKED: USER    
DOCKED: USER    (1) Final Intermolecular Energy     =  -13.23 kcal/mol
DOCKED: USER        vdW + Hbond + desolv Energy     =  -13.23 kcal/mol
DOCKED: USER        Electrostatic Energy            =   +0.00 kcal/mol
DOCKED: USER    (2) Final Total Internal Energy     =   -1.65 kcal/mol
DOCKED: USER    (3) Torsional Free Energy           =   +1.79 kcal/mol
DOCKED: USER    (4) Unbound System's Energy  [=(2)] =   -1.65 kcal/mol
DOCKED: USER    
DOCKED: USER    
DOCKED: USER    NEWDPF move ligand.dum.pdbqt
DOCKED: USER    NEWDPF about 0.320000 0.169000 0.303000
DOCKED: USER    NEWDPF tran0 37.920500 13.247552 122.539941
DOCKED: USER    NEWDPF quaternion0 -0.228121 0.673380 -0.660764 -0.240647
DOCKED: USER    NEWDPF axisangle0 -0.235028 0.693768 -0.680770 -152.150522
DOCKED: USER    NEWDPF quat0 -0.235028 0.693768 -0.680770 -152.150522
DOCKED: USER    NEWDPF dihe0 27.61 18.05 -180.00 118.09 127.76 -74.85 
DOCKED: USER  keepresnum = 1 
DOCKED: USER  
DOCKED: REMARK  Name = 
DOCKED: REMARK  6 active torsions:
DOCKED: REMARK  status: ('A' for Active; 'I' for Inactive)
DOCKED: REMARK    1  A    between atoms: S_2  and  N_3
DOCKED: REMARK    2  A    between atoms: S_2  and  C_10
DOCKED: REMARK    3  A    between atoms: N_3  and  C_4
DOCKED: REMARK    4  A    between atoms: C_12  and  C_13
DOCKED: REMARK    5  A    between atoms: C_14  and  C_15
DOCKED: REMARK    6  A    between atoms: N_16  and  O_17
DOCKED: REMARK                            x       y       z     vdW  Elec       q    Type
DOCKED: REMARK                         _______ _______ _______ _____ _____    ______ ____
DOCKED: USER                              x       y       z     vdW  Elec       q    Type
DOCKED: USER                           _______ _______ _______ _____ _____    ______ ____
DOCKED: ROOT
DOCKED: ATOM      1  C   UNL     1      36.868  15.306 122.107 -0.27 -0.00    +0.000 A 
DOCKED: ATOM      2  C   UNL     1      37.046  13.918 122.172 -0.39 -0.00    +0.000 A 
DOCKED: ATOM      3  C   UNL     1      36.383  13.153 123.146 -0.53 -0.00    +0.000 A 
DOCKED: ATOM      4  C   UNL     1      35.545  13.809 124.072 -0.32 -0.00    +0.000 A 
DOCKED: ATOM      5  C   UNL     1      35.362  15.193 124.001 -0.48 -0.00    +0.000 A 
DOCKED: ATOM      6  C   UNL     1      36.016  15.940 123.020 -0.34 -0.00    +0.000 A 
DOCKED: ATOM      7  CM  UNL     1      36.203  14.553 123.086 +0.00 -0.00    +0.000 AC
DOCKED: ENDROOT
DOCKED: BRANCH   1   8
DOCKED: ATOM      8  O   UNL     1      36.764  17.149 120.151 -0.15 -0.00    +0.000 OA
DOCKED: ATOM      9  S   UNL     1      37.717  16.247 120.883 -0.23 -0.00    +0.000 S 
DOCKED: ATOM     10  O   UNL     1      38.350  15.303 119.903 -0.22 -0.00    +0.000 OA
DOCKED: BRANCH   8  10
DOCKED: ATOM     11  N   UNL     1      38.954  17.215 121.625 -0.11 -0.00    +0.000 N 
DOCKED: ATOM     12  H   UNL     1      38.791  18.181 121.717 +0.01 -0.00    +0.000 HD
DOCKED: BRANCH  10  12
DOCKED: ATOM     13  C   UNL     1      40.201  16.688 122.113 -0.20 -0.00    +0.000 A 
DOCKED: ATOM     14  C   UNL     1      41.268  17.526 122.492 -0.20 -0.00    +0.000 A 
DOCKED: ATOM     15  C   UNL     1      42.462  16.977 122.970 -0.35 -0.00    +0.000 A 
DOCKED: ATOM     16  C   UNL     1      42.606  15.592 123.070 -0.27 +0.00    +0.000 A 
DOCKED: ATOM     17  C   UNL     1      41.558  14.751 122.690 -0.53 -0.00    +0.000 A 
DOCKED: ATOM     18  C   UNL     1      40.362  15.296 122.213 -0.38 -0.00    +0.000 A 
DOCKED: ATOM     19  CM  UNL     1      41.409  16.138 122.592 +0.00 -0.00    +0.000 AC
DOCKED: ENDBRANCH  10  12
DOCKED: ENDBRANCH   8  10
DOCKED: ENDBRANCH   1   8
DOCKED: BRANCH   3  18
DOCKED: ATOM     20  C   UNL     1      36.625  11.690 123.184 -0.69 -0.00    +0.000 C 
DOCKED: ATOM     21  C   UNL     1      36.719  10.923 122.087 -0.63 -0.00    +0.000 C 
DOCKED: BRANCH  19  20
DOCKED: ATOM     22  C   UNL     1      36.961   9.466 122.129 -0.65 -0.00    +0.000 C 
DOCKED: ATOM     23  N   UNL     1      37.120   8.749 123.361 -0.63 -0.00    +0.000 N 
DOCKED: ATOM     24  O   UNL     1      37.057   8.842 121.038 -2.70 -0.00    +0.000 OA
DOCKED: ATOM     25  H   UNL     1      37.162   9.240 124.213 -0.59 -0.00    +0.000 HD
DOCKED: BRANCH  21  24
DOCKED: ATOM     26  O   UNL     1      37.211   7.397 123.355 -2.09 -0.00    +0.000 OA
DOCKED: ATOM     27  H   UNL     1      37.582   7.102 122.509 -0.29 -0.00    +0.000 HD
DOCKED: ENDBRANCH  21  24
DOCKED: ENDBRANCH  19  20
DOCKED: ENDBRANCH   3  18
DOCKED: TORSDOF 6DOCKED: TER
DOCKED: ENDMDL
________________________________________________________________________________


	BEGINNING GENETIC ALGORITHM DOCKING 91 of 100
Run: 91 Seed: 1905060154 645391057 [ Run 91 of 100 GA/GALS ]
Beginning LAMARCKIAN GENETIC ALGORITHM (LGA), with a maximum of 2500000 energy evaluations.

Final-Value: -14.800


	FINAL GENETIC ALGORITHM DOCKED STATE
	_______________________________________________


Detailed state:  trans 37.622 13.120 121.821 quatxyzw -0.399787 -0.166275 0.575053 0.694145 center 0.320 0.169 0.303 ntor 6 172.2075 172.5211 94.1697 -155.4212 36.8262 -34.2910
State:	 37.622  13.120 121.821  -0.555 -0.231  0.799 92.082    172.21  172.52   94.17 -155.42   36.83  -34.29

DOCKED: MODEL       91
DOCKED: USER    Run = 91
DOCKED: USER    DPF = ligand_dock.biased.dpf
DOCKED: USER  
DOCKED: USER    Estimated Free Energy of Binding    =  -11.48 kcal/mol  [=(1)+(2)+(3)-(4)]
DOCKED: USER    Estimated Inhibition Constant, Ki   =    3.85 nM (nanomolar)  [Temperature = 298.15 K]
DOCKED: USER    
DOCKED: USER    (1) Final Intermolecular Energy     =  -13.27 kcal/mol
DOCKED: USER        vdW + Hbond + desolv Energy     =  -13.27 kcal/mol
DOCKED: USER        Electrostatic Energy            =   +0.00 kcal/mol
DOCKED: USER    (2) Final Total Internal Energy     =   -1.53 kcal/mol
DOCKED: USER    (3) Torsional Free Energy           =   +1.79 kcal/mol
DOCKED: USER    (4) Unbound System's Energy  [=(2)] =   -1.53 kcal/mol
DOCKED: USER    
DOCKED: USER    
DOCKED: USER    NEWDPF move ligand.dum.pdbqt
DOCKED: USER    NEWDPF about 0.320000 0.169000 0.303000
DOCKED: USER    NEWDPF tran0 37.622392 13.119998 121.820889
DOCKED: USER    NEWDPF quaternion0 -0.399787 -0.166275 0.575053 0.694145
DOCKED: USER    NEWDPF axisangle0 -0.555387 -0.230990 0.798867 92.081791
DOCKED: USER    NEWDPF quat0 -0.555387 -0.230990 0.798867 92.081791
DOCKED: USER    NEWDPF dihe0 172.21 172.52 94.17 -155.42 36.83 -34.29 
DOCKED: USER  keepresnum = 1 
DOCKED: USER  
DOCKED: REMARK  Name = 
DOCKED: REMARK  6 active torsions:
DOCKED: REMARK  status: ('A' for Active; 'I' for Inactive)
DOCKED: REMARK    1  A    between atoms: S_2  and  N_3
DOCKED: REMARK    2  A    between atoms: S_2  and  C_10
DOCKED: REMARK    3  A    between atoms: N_3  and  C_4
DOCKED: REMARK    4  A    between atoms: C_12  and  C_13
DOCKED: REMARK    5  A    between atoms: C_14  and  C_15
DOCKED: REMARK    6  A    between atoms: N_16  and  O_17
DOCKED: REMARK                            x       y       z     vdW  Elec       q    Type
DOCKED: REMARK                         _______ _______ _______ _____ _____    ______ ____
DOCKED: USER                              x       y       z     vdW  Elec       q    Type
DOCKED: USER                           _______ _______ _______ _____ _____    ______ ____
DOCKED: ROOT
DOCKED: ATOM      1  C   UNL     1      38.446  15.119 120.893 -0.25 -0.00    +0.000 A 
DOCKED: ATOM      2  C   UNL     1      38.292  13.742 121.103 -0.36 -0.00    +0.000 A 
DOCKED: ATOM      3  C   UNL     1      37.598  12.948 120.174 -0.43 -0.00    +0.000 A 
DOCKED: ATOM      4  C   UNL     1      37.045  13.563 119.033 -0.38 -0.00    +0.000 A 
DOCKED: ATOM      5  C   UNL     1      37.207  14.935 118.821 -0.23 -0.00    +0.000 A 
DOCKED: ATOM      6  C   UNL     1      37.909  15.711 119.745 -0.17 -0.00    +0.000 A 
DOCKED: ATOM      7  CM  UNL     1      37.750  14.336 119.961 +0.00 -0.00    +0.000 AC
DOCKED: ENDROOT
DOCKED: BRANCH   1   8
DOCKED: ATOM      8  O   UNL     1      39.553  17.483 121.544 -0.11 -0.00    +0.000 OA
DOCKED: ATOM      9  S   UNL     1      39.311  16.097 122.076 -0.33 -0.00    +0.000 S 
DOCKED: ATOM     10  O   UNL     1      40.632  15.447 122.368 -0.47 -0.00    +0.000 OA
DOCKED: BRANCH   8  10
DOCKED: ATOM     11  N   UNL     1      38.392  16.209 123.546 -0.25 -0.00    +0.000 N 
DOCKED: ATOM     12  H   UNL     1      38.856  16.514 124.359 -0.02 -0.00    +0.000 HD
DOCKED: BRANCH  10  12
DOCKED: ATOM     13  C   UNL     1      36.994  15.882 123.646 -0.28 -0.00    +0.000 A 
DOCKED: ATOM     14  C   UNL     1      36.547  14.557 123.814 -0.39 -0.00    +0.000 A 
DOCKED: ATOM     15  C   UNL     1      35.181  14.279 123.915 -0.39 -0.00    +0.000 A 
DOCKED: ATOM     16  C   UNL     1      34.248  15.316 123.847 -0.51 -0.00    +0.000 A 
DOCKED: ATOM     17  C   UNL     1      34.679  16.632 123.672 -0.42 -0.00    +0.000 A 
DOCKED: ATOM     18  C   UNL     1      36.044  16.915 123.571 -0.29 -0.00    +0.000 A 
DOCKED: ATOM     19  CM  UNL     1      35.616  15.597 123.745 -0.00 -0.00    +0.000 AC
DOCKED: ENDBRANCH  10  12
DOCKED: ENDBRANCH   8  10
DOCKED: ENDBRANCH   1   8
DOCKED: BRANCH   3  18
DOCKED: ATOM     20  C   UNL     1      37.444  11.499 120.457 -0.45 -0.00    +0.000 C 
DOCKED: ATOM     21  C   UNL     1      37.077  11.009 121.651 -0.51 -0.00    +0.000 C 
DOCKED: BRANCH  19  20
DOCKED: ATOM     22  C   UNL     1      36.925   9.566 121.927 -0.63 -0.00    +0.000 C 
DOCKED: ATOM     23  N   UNL     1      37.067   9.016 123.244 -0.64 -0.00    +0.000 N 
DOCKED: ATOM     24  O   UNL     1      36.689   8.792 120.961 -2.57 -0.00    +0.000 OA
DOCKED: ATOM     25  H   UNL     1      37.363   9.591 123.987 -0.52 -0.00    +0.000 HD
DOCKED: BRANCH  21  24
DOCKED: ATOM     26  O   UNL     1      36.793   7.709 123.470 -2.16 -0.00    +0.000 OA
DOCKED: ATOM     27  H   UNL     1      37.055   7.475 124.374 -0.52 -0.00    +0.000 HD
DOCKED: ENDBRANCH  21  24
DOCKED: ENDBRANCH  19  20
DOCKED: ENDBRANCH   3  18
DOCKED: TORSDOF 6DOCKED: TER
DOCKED: ENDMDL
________________________________________________________________________________


	BEGINNING GENETIC ALGORITHM DOCKING 92 of 100
Run: 92 Seed: 1937056917 1175255971 [ Run 92 of 100 GA/GALS ]
Beginning LAMARCKIAN GENETIC ALGORITHM (LGA), with a maximum of 2500000 energy evaluations.

Final-Value: -14.994


	FINAL GENETIC ALGORITHM DOCKED STATE
	_______________________________________________


Detailed state:  trans 38.038 13.285 123.885 quatxyzw 0.050556 0.621167 -0.656275 -0.425321 center 0.320 0.169 0.303 ntor 6 8.1757 -1.0835 78.8428 99.6652 -132.5033 34.5356
State:	 38.038  13.285 123.885   0.056  0.686 -0.725 -129.658      8.18   -1.08   78.84   99.67 -132.50   34.54

DOCKED: MODEL       92
DOCKED: USER    Run = 92
DOCKED: USER    DPF = ligand_dock.biased.dpf
DOCKED: USER  
DOCKED: USER    Estimated Free Energy of Binding    =  -11.69 kcal/mol  [=(1)+(2)+(3)-(4)]
DOCKED: USER    Estimated Inhibition Constant, Ki   =    2.71 nM (nanomolar)  [Temperature = 298.15 K]
DOCKED: USER    
DOCKED: USER    (1) Final Intermolecular Energy     =  -13.48 kcal/mol
DOCKED: USER        vdW + Hbond + desolv Energy     =  -13.48 kcal/mol
DOCKED: USER        Electrostatic Energy            =   +0.00 kcal/mol
DOCKED: USER    (2) Final Total Internal Energy     =   -1.52 kcal/mol
DOCKED: USER    (3) Torsional Free Energy           =   +1.79 kcal/mol
DOCKED: USER    (4) Unbound System's Energy  [=(2)] =   -1.52 kcal/mol
DOCKED: USER    
DOCKED: USER    
DOCKED: USER    NEWDPF move ligand.dum.pdbqt
DOCKED: USER    NEWDPF about 0.320000 0.169000 0.303000
DOCKED: USER    NEWDPF tran0 38.037614 13.284726 123.885399
DOCKED: USER    NEWDPF quaternion0 0.050556 0.621167 -0.656275 -0.425321
DOCKED: USER    NEWDPF axisangle0 0.055860 0.686340 -0.725132 -129.658018
DOCKED: USER    NEWDPF quat0 0.055860 0.686340 -0.725132 -129.658018
DOCKED: USER    NEWDPF dihe0 8.18 -1.08 78.84 99.67 -132.50 34.54 
DOCKED: USER  keepresnum = 1 
DOCKED: USER  
DOCKED: REMARK  Name = 
DOCKED: REMARK  6 active torsions:
DOCKED: REMARK  status: ('A' for Active; 'I' for Inactive)
DOCKED: REMARK    1  A    between atoms: S_2  and  N_3
DOCKED: REMARK    2  A    between atoms: S_2  and  C_10
DOCKED: REMARK    3  A    between atoms: N_3  and  C_4
DOCKED: REMARK    4  A    between atoms: C_12  and  C_13
DOCKED: REMARK    5  A    between atoms: C_14  and  C_15
DOCKED: REMARK    6  A    between atoms: N_16  and  O_17
DOCKED: REMARK                            x       y       z     vdW  Elec       q    Type
DOCKED: REMARK                         _______ _______ _______ _____ _____    ______ ____
DOCKED: USER                              x       y       z     vdW  Elec       q    Type
DOCKED: USER                           _______ _______ _______ _____ _____    ______ ____
DOCKED: ROOT
DOCKED: ATOM      1  C   UNL     1      37.573  15.513 123.291 -0.30 -0.00    +0.000 A 
DOCKED: ATOM      2  C   UNL     1      37.606  14.115 123.197 -0.42 -0.00    +0.000 A 
DOCKED: ATOM      3  C   UNL     1      36.448  13.353 123.428 -0.54 -0.00    +0.000 A 
DOCKED: ATOM      4  C   UNL     1      35.253  14.018 123.772 -0.34 -0.00    +0.000 A 
DOCKED: ATOM      5  C   UNL     1      35.220  15.412 123.857 -0.49 -0.00    +0.000 A 
DOCKED: ATOM      6  C   UNL     1      36.374  16.160 123.613 -0.33 -0.00    +0.000 A 
DOCKED: ATOM      7  CM  UNL     1      36.412  14.762 123.526 +0.00 -0.00    +0.000 AC
DOCKED: ENDROOT
DOCKED: BRANCH   1   8
DOCKED: ATOM      8  O   UNL     1      39.392  17.263 124.221 -0.29 -0.00    +0.000 OA
DOCKED: ATOM      9  S   UNL     1      39.039  16.448 123.007 -0.34 -0.00    +0.000 S 
DOCKED: ATOM     10  O   UNL     1      38.804  17.373 121.848 -0.12 -0.00    +0.000 OA
DOCKED: BRANCH   8  10
DOCKED: ATOM     11  N   UNL     1      40.362  15.387 122.634 -0.40 -0.00    +0.000 N 
DOCKED: ATOM     12  H   UNL     1      40.208  14.417 122.696 -0.04 -0.00    +0.000 HD
DOCKED: BRANCH  10  12
DOCKED: ATOM     13  C   UNL     1      41.669  15.842 122.240 -0.39 -0.00    +0.000 A 
DOCKED: ATOM     14  C   UNL     1      42.520  16.529 123.128 -0.37 -0.00    +0.000 A 
DOCKED: ATOM     15  C   UNL     1      43.788  16.947 122.712 -0.33 -0.00    +0.000 A 
DOCKED: ATOM     16  C   UNL     1      44.217  16.691 121.408 -0.24 -0.00    +0.000 A 
DOCKED: ATOM     17  C   UNL     1      43.379  16.018 120.517 -0.23 -0.00    +0.000 A 
DOCKED: ATOM     18  C   UNL     1      42.111  15.596 120.929 -0.13 -0.00    +0.000 A 
DOCKED: ATOM     19  CM  UNL     1      42.948  16.270 121.823 +0.00 -0.00    +0.000 AC
DOCKED: ENDBRANCH  10  12
DOCKED: ENDBRANCH   8  10
DOCKED: ENDBRANCH   1   8
DOCKED: BRANCH   3  18
DOCKED: ATOM     20  C   UNL     1      36.544  11.875 123.338 -0.70 -0.00    +0.000 C 
DOCKED: ATOM     21  C   UNL     1      36.933  11.221 122.233 -0.59 -0.00    +0.000 C 
DOCKED: BRANCH  19  20
DOCKED: ATOM     22  C   UNL     1      37.027   9.748 122.148 -0.60 -0.00    +0.000 C 
DOCKED: ATOM     23  N   UNL     1      37.108   8.916 123.312 -0.62 -0.00    +0.000 N 
DOCKED: ATOM     24  O   UNL     1      37.065   9.215 121.007 -2.74 -0.00    +0.000 OA
DOCKED: ATOM     25  H   UNL     1      37.195   9.324 124.203 -0.60 -0.00    +0.000 HD
DOCKED: BRANCH  21  24
DOCKED: ATOM     26  O   UNL     1      37.063   7.567 123.190 -2.26 -0.00    +0.000 OA
DOCKED: ATOM     27  H   UNL     1      37.106   7.326 122.251 -0.08 -0.00    +0.000 HD
DOCKED: ENDBRANCH  21  24
DOCKED: ENDBRANCH  19  20
DOCKED: ENDBRANCH   3  18
DOCKED: TORSDOF 6DOCKED: TER
DOCKED: ENDMDL
________________________________________________________________________________


	BEGINNING GENETIC ALGORITHM DOCKING 93 of 100
Run: 93 Seed: 954050445 525645550 [ Run 93 of 100 GA/GALS ]
Beginning LAMARCKIAN GENETIC ALGORITHM (LGA), with a maximum of 2500000 energy evaluations.

Final-Value: -14.776


	FINAL GENETIC ALGORITHM DOCKED STATE
	_______________________________________________


Detailed state:  trans 38.634 12.911 123.679 quatxyzw -0.060653 -0.606252 0.703554 0.365774 center 0.320 0.169 0.303 ntor 6 34.3009 -3.9971 71.8164 93.7309 120.3564 -135.5665
State:	 38.634  12.911 123.679  -0.065 -0.651  0.756 137.090     34.30   -4.00   71.82   93.73  120.36 -135.57

DOCKED: MODEL       93
DOCKED: USER    Run = 93
DOCKED: USER    DPF = ligand_dock.biased.dpf
DOCKED: USER  
DOCKED: USER    Estimated Free Energy of Binding    =  -11.46 kcal/mol  [=(1)+(2)+(3)-(4)]
DOCKED: USER    Estimated Inhibition Constant, Ki   =    3.99 nM (nanomolar)  [Temperature = 298.15 K]
DOCKED: USER    
DOCKED: USER    (1) Final Intermolecular Energy     =  -13.25 kcal/mol
DOCKED: USER        vdW + Hbond + desolv Energy     =  -13.25 kcal/mol
DOCKED: USER        Electrostatic Energy            =   +0.00 kcal/mol
DOCKED: USER    (2) Final Total Internal Energy     =   -1.53 kcal/mol
DOCKED: USER    (3) Torsional Free Energy           =   +1.79 kcal/mol
DOCKED: USER    (4) Unbound System's Energy  [=(2)] =   -1.53 kcal/mol
DOCKED: USER    
DOCKED: USER    
DOCKED: USER    NEWDPF move ligand.dum.pdbqt
DOCKED: USER    NEWDPF about 0.320000 0.169000 0.303000
DOCKED: USER    NEWDPF tran0 38.633535 12.910881 123.678583
DOCKED: USER    NEWDPF quaternion0 -0.060653 -0.606252 0.703554 0.365774
DOCKED: USER    NEWDPF axisangle0 -0.065169 -0.651391 0.755938 137.089585
DOCKED: USER    NEWDPF quat0 -0.065169 -0.651391 0.755938 137.089585
DOCKED: USER    NEWDPF dihe0 34.30 -4.00 71.82 93.73 120.36 -135.57 
DOCKED: USER  keepresnum = 1 
DOCKED: USER  
DOCKED: REMARK  Name = 
DOCKED: REMARK  6 active torsions:
DOCKED: REMARK  status: ('A' for Active; 'I' for Inactive)
DOCKED: REMARK    1  A    between atoms: S_2  and  N_3
DOCKED: REMARK    2  A    between atoms: S_2  and  C_10
DOCKED: REMARK    3  A    between atoms: N_3  and  C_4
DOCKED: REMARK    4  A    between atoms: C_12  and  C_13
DOCKED: REMARK    5  A    between atoms: C_14  and  C_15
DOCKED: REMARK    6  A    between atoms: N_16  and  O_17
DOCKED: REMARK                            x       y       z     vdW  Elec       q    Type
DOCKED: REMARK                         _______ _______ _______ _____ _____    ______ ____
DOCKED: USER                              x       y       z     vdW  Elec       q    Type
DOCKED: USER                           _______ _______ _______ _____ _____    ______ ____
DOCKED: ROOT
DOCKED: ATOM      1  C   UNL     1      38.430  15.141 122.959 -0.30 -0.00    +0.000 A 
DOCKED: ATOM      2  C   UNL     1      38.275  13.749 122.958 -0.40 -0.00    +0.000 A 
DOCKED: ATOM      3  C   UNL     1      37.043  13.163 123.295 -0.53 -0.00    +0.000 A 
DOCKED: ATOM      4  C   UNL     1      35.966  14.002 123.651 -0.49 -0.00    +0.000 A 
DOCKED: ATOM      5  C   UNL     1      36.121  15.390 123.645 -0.40 -0.00    +0.000 A 
DOCKED: ATOM      6  C   UNL     1      37.346  15.961 123.295 -0.29 -0.00    +0.000 A 
DOCKED: ATOM      7  CM  UNL     1      37.197  14.568 123.300 +0.00 -0.00    +0.000 AC
DOCKED: ENDROOT
DOCKED: BRANCH   1   8
DOCKED: ATOM      8  O   UNL     1      40.288  15.656 121.084 -0.27 -0.00    +0.000 OA
DOCKED: ATOM      9  S   UNL     1      39.987  15.854 122.543 -0.43 -0.00    +0.000 S 
DOCKED: ATOM     10  O   UNL     1      41.056  15.188 123.360 -0.70 +0.00    +0.000 OA
DOCKED: BRANCH   8  10
DOCKED: ATOM     11  N   UNL     1      39.978  17.556 122.892 -0.18 -0.00    +0.000 N 
DOCKED: ATOM     12  H   UNL     1      40.024  18.183 122.135 +0.01 -0.00    +0.000 HD
DOCKED: BRANCH  10  12
DOCKED: ATOM     13  C   UNL     1      39.906  18.102 124.222 -0.22 -0.00    +0.000 A 
DOCKED: ATOM     14  C   UNL     1      40.892  17.836 125.193 -0.29 -0.00    +0.000 A 
DOCKED: ATOM     15  C   UNL     1      40.793  18.392 126.471 -0.33 -0.00    +0.000 A 
DOCKED: ATOM     16  C   UNL     1      39.712  19.214 126.797 -0.18 -0.00    +0.000 A 
DOCKED: ATOM     17  C   UNL     1      38.725  19.479 125.845 -0.13 -0.00    +0.000 A 
DOCKED: ATOM     18  C   UNL     1      38.821  18.926 124.564 -0.14 -0.00    +0.000 A 
DOCKED: ATOM     19  CM  UNL     1      39.809  18.658 125.515 +0.00 -0.00    +0.000 AC
DOCKED: ENDBRANCH  10  12
DOCKED: ENDBRANCH   8  10
DOCKED: ENDBRANCH   1   8
DOCKED: BRANCH   3  18
DOCKED: ATOM     20  C   UNL     1      36.940  11.683 123.300 -0.68 -0.00    +0.000 C 
DOCKED: ATOM     21  C   UNL     1      37.065  10.925 122.199 -0.55 -0.00    +0.000 C 
DOCKED: BRANCH  19  20
DOCKED: ATOM     22  C   UNL     1      36.961   9.451 122.209 -0.65 -0.00    +0.000 C 
DOCKED: ATOM     23  N   UNL     1      37.183   8.674 123.393 -0.63 -0.00    +0.000 N 
DOCKED: ATOM     24  O   UNL     1      36.696   8.861 121.128 -2.62 -0.00    +0.000 OA
DOCKED: ATOM     25  H   UNL     1      37.503   9.111 124.215 -0.62 -0.00    +0.000 HD
DOCKED: BRANCH  21  24
DOCKED: ATOM     26  O   UNL     1      36.953   7.338 123.384 -2.07 -0.00    +0.000 OA
DOCKED: ATOM     27  H   UNL     1      37.175   6.978 122.512 -0.16 -0.00    +0.000 HD
DOCKED: ENDBRANCH  21  24
DOCKED: ENDBRANCH  19  20
DOCKED: ENDBRANCH   3  18
DOCKED: TORSDOF 6DOCKED: TER
DOCKED: ENDMDL
________________________________________________________________________________


	BEGINNING GENETIC ALGORITHM DOCKING 94 of 100
Run: 94 Seed: 1062649776 765455954 [ Run 94 of 100 GA/GALS ]
Beginning LAMARCKIAN GENETIC ALGORITHM (LGA), with a maximum of 2500000 energy evaluations.

Final-Value: -14.540


	FINAL GENETIC ALGORITHM DOCKED STATE
	_______________________________________________


Detailed state:  trans 37.754 13.102 122.315 quatxyzw -0.224155 0.690888 -0.663504 -0.179417 center 0.320 0.169 0.303 ntor 6 28.6861 -8.1148 115.9476 149.8432 162.3173 30.6024
State:	 37.754  13.102 122.315  -0.228  0.702 -0.674 -159.328     28.69   -8.11  115.95  149.84  162.32   30.60

DOCKED: MODEL       94
DOCKED: USER    Run = 94
DOCKED: USER    DPF = ligand_dock.biased.dpf
DOCKED: USER  
DOCKED: USER    Estimated Free Energy of Binding    =  -11.13 kcal/mol  [=(1)+(2)+(3)-(4)]
DOCKED: USER    Estimated Inhibition Constant, Ki   =    6.99 nM (nanomolar)  [Temperature = 298.15 K]
DOCKED: USER    
DOCKED: USER    (1) Final Intermolecular Energy     =  -12.92 kcal/mol
DOCKED: USER        vdW + Hbond + desolv Energy     =  -12.92 kcal/mol
DOCKED: USER        Electrostatic Energy            =   +0.00 kcal/mol
DOCKED: USER    (2) Final Total Internal Energy     =   -1.62 kcal/mol
DOCKED: USER    (3) Torsional Free Energy           =   +1.79 kcal/mol
DOCKED: USER    (4) Unbound System's Energy  [=(2)] =   -1.62 kcal/mol
DOCKED: USER    
DOCKED: USER    
DOCKED: USER    NEWDPF move ligand.dum.pdbqt
DOCKED: USER    NEWDPF about 0.320000 0.169000 0.303000
DOCKED: USER    NEWDPF tran0 37.754336 13.102346 122.314696
DOCKED: USER    NEWDPF quaternion0 -0.224155 0.690888 -0.663504 -0.179417
DOCKED: USER    NEWDPF axisangle0 -0.227853 0.702284 -0.674449 -159.328372
DOCKED: USER    NEWDPF quat0 -0.227853 0.702284 -0.674449 -159.328372
DOCKED: USER    NEWDPF dihe0 28.69 -8.11 115.95 149.84 162.32 30.60 
DOCKED: USER  keepresnum = 1 
DOCKED: USER  
DOCKED: REMARK  Name = 
DOCKED: REMARK  6 active torsions:
DOCKED: REMARK  status: ('A' for Active; 'I' for Inactive)
DOCKED: REMARK    1  A    between atoms: S_2  and  N_3
DOCKED: REMARK    2  A    between atoms: S_2  and  C_10
DOCKED: REMARK    3  A    between atoms: N_3  and  C_4
DOCKED: REMARK    4  A    between atoms: C_12  and  C_13
DOCKED: REMARK    5  A    between atoms: C_14  and  C_15
DOCKED: REMARK    6  A    between atoms: N_16  and  O_17
DOCKED: REMARK                            x       y       z     vdW  Elec       q    Type
DOCKED: REMARK                         _______ _______ _______ _____ _____    ______ ____
DOCKED: USER                              x       y       z     vdW  Elec       q    Type
DOCKED: USER                           _______ _______ _______ _____ _____    ______ ____
DOCKED: ROOT
DOCKED: ATOM      1  C   UNL     1      36.869  15.251 121.950 -0.25 -0.00    +0.000 A 
DOCKED: ATOM      2  C   UNL     1      36.920  13.853 122.014 -0.35 -0.00    +0.000 A 
DOCKED: ATOM      3  C   UNL     1      36.271  13.157 123.049 -0.51 -0.00    +0.000 A 
DOCKED: ATOM      4  C   UNL     1      35.581  13.893 124.034 -0.39 -0.00    +0.000 A 
DOCKED: ATOM      5  C   UNL     1      35.526  15.287 123.964 -0.46 -0.00    +0.000 A 
DOCKED: ATOM      6  C   UNL     1      36.162  15.966 122.924 -0.32 -0.00    +0.000 A 
DOCKED: ATOM      7  CM  UNL     1      36.221  14.568 122.989 +0.00 -0.00    +0.000 AC
DOCKED: ENDROOT
DOCKED: BRANCH   1   8
DOCKED: ATOM      8  O   UNL     1      38.655  17.120 121.206 -0.11 -0.00    +0.000 OA
DOCKED: ATOM      9  S   UNL     1      37.698  16.103 120.649 -0.24 -0.00    +0.000 S 
DOCKED: ATOM     10  O   UNL     1      36.674  16.804 119.803 -0.17 -0.00    +0.000 OA
DOCKED: BRANCH   8  10
DOCKED: ATOM     11  N   UNL     1      38.579  14.977 119.664 -0.21 -0.00    +0.000 N 
DOCKED: ATOM     12  H   UNL     1      39.381  14.556 120.049 -0.07 -0.00    +0.000 HD
DOCKED: BRANCH  10  12
DOCKED: ATOM     13  C   UNL     1      38.207  14.624 118.319 -0.18 -0.00    +0.000 A 
DOCKED: ATOM     14  C   UNL     1      38.901  15.119 117.198 -0.16 -0.00    +0.000 A 
DOCKED: ATOM     15  C   UNL     1      38.516  14.746 115.906 -0.26 -0.00    +0.000 A 
DOCKED: ATOM     16  C   UNL     1      37.435  13.882 115.720 -0.34 -0.00    +0.000 A 
DOCKED: ATOM     17  C   UNL     1      36.735  13.391 116.823 -0.32 -0.00    +0.000 A 
DOCKED: ATOM     18  C   UNL     1      37.118  13.760 118.117 -0.36 -0.00    +0.000 A 
DOCKED: ATOM     19  CM  UNL     1      37.819  14.253 117.014 +0.00 -0.00    +0.000 AC
DOCKED: ENDBRANCH  10  12
DOCKED: ENDBRANCH   8  10
DOCKED: ENDBRANCH   1   8
DOCKED: BRANCH   3  18
DOCKED: ATOM     20  C   UNL     1      36.376  11.677 123.081 -0.70 -0.00    +0.000 C 
DOCKED: ATOM     21  C   UNL     1      36.904  10.947 122.088 -0.58 -0.00    +0.000 C 
DOCKED: BRANCH  19  20
DOCKED: ATOM     22  C   UNL     1      37.006   9.473 122.125 -0.63 -0.00    +0.000 C 
DOCKED: ATOM     23  N   UNL     1      37.081   8.739 123.354 -0.64 -0.00    +0.000 N 
DOCKED: ATOM     24  O   UNL     1      37.056   8.848 121.032 -2.70 -0.00    +0.000 OA
DOCKED: ATOM     25  H   UNL     1      37.159   9.220 124.209 -0.59 -0.00    +0.000 HD
DOCKED: BRANCH  21  24
DOCKED: ATOM     26  O   UNL     1      37.044   7.384 123.342 -2.13 -0.00    +0.000 OA
DOCKED: ATOM     27  H   UNL     1      37.411   7.059 122.506 -0.23 -0.00    +0.000 HD
DOCKED: ENDBRANCH  21  24
DOCKED: ENDBRANCH  19  20
DOCKED: ENDBRANCH   3  18
DOCKED: TORSDOF 6DOCKED: TER
DOCKED: ENDMDL
________________________________________________________________________________


	BEGINNING GENETIC ALGORITHM DOCKING 95 of 100
Run: 95 Seed: 1409448755 824184223 [ Run 95 of 100 GA/GALS ]
Beginning LAMARCKIAN GENETIC ALGORITHM (LGA), with a maximum of 2500000 energy evaluations.

Final-Value: -15.087


	FINAL GENETIC ALGORITHM DOCKED STATE
	_______________________________________________


Detailed state:  trans 38.400 13.179 123.773 quatxyzw -0.021563 -0.625468 0.649917 0.431199 center 0.320 0.169 0.303 ntor 6 9.6271 31.5847 -117.5687 70.9032 -121.7720 37.3130
State:	 38.400  13.179 123.773  -0.024 -0.693  0.720 128.913      9.63   31.58 -117.57   70.90 -121.77   37.31

DOCKED: MODEL       95
DOCKED: USER    Run = 95
DOCKED: USER    DPF = ligand_dock.biased.dpf
DOCKED: USER  
DOCKED: USER    Estimated Free Energy of Binding    =  -11.81 kcal/mol  [=(1)+(2)+(3)-(4)]
DOCKED: USER    Estimated Inhibition Constant, Ki   =    2.21 nM (nanomolar)  [Temperature = 298.15 K]
DOCKED: USER    
DOCKED: USER    (1) Final Intermolecular Energy     =  -13.60 kcal/mol
DOCKED: USER        vdW + Hbond + desolv Energy     =  -13.60 kcal/mol
DOCKED: USER        Electrostatic Energy            =   +0.00 kcal/mol
DOCKED: USER    (2) Final Total Internal Energy     =   -1.49 kcal/mol
DOCKED: USER    (3) Torsional Free Energy           =   +1.79 kcal/mol
DOCKED: USER    (4) Unbound System's Energy  [=(2)] =   -1.49 kcal/mol
DOCKED: USER    
DOCKED: USER    
DOCKED: USER    NEWDPF move ligand.dum.pdbqt
DOCKED: USER    NEWDPF about 0.320000 0.169000 0.303000
DOCKED: USER    NEWDPF tran0 38.399690 13.179212 123.773303
DOCKED: USER    NEWDPF quaternion0 -0.021563 -0.625468 0.649917 0.431199
DOCKED: USER    NEWDPF axisangle0 -0.023899 -0.693227 0.720323 128.912619
DOCKED: USER    NEWDPF quat0 -0.023899 -0.693227 0.720323 128.912619
DOCKED: USER    NEWDPF dihe0 9.63 31.58 -117.57 70.90 -121.77 37.31 
DOCKED: USER  keepresnum = 1 
DOCKED: USER  
DOCKED: REMARK  Name = 
DOCKED: REMARK  6 active torsions:
DOCKED: REMARK  status: ('A' for Active; 'I' for Inactive)
DOCKED: REMARK    1  A    between atoms: S_2  and  N_3
DOCKED: REMARK    2  A    between atoms: S_2  and  C_10
DOCKED: REMARK    3  A    between atoms: N_3  and  C_4
DOCKED: REMARK    4  A    between atoms: C_12  and  C_13
DOCKED: REMARK    5  A    between atoms: C_14  and  C_15
DOCKED: REMARK    6  A    between atoms: N_16  and  O_17
DOCKED: REMARK                            x       y       z     vdW  Elec       q    Type
DOCKED: REMARK                         _______ _______ _______ _____ _____    ______ ____
DOCKED: USER                              x       y       z     vdW  Elec       q    Type
DOCKED: USER                           _______ _______ _______ _____ _____    ______ ____
DOCKED: ROOT
DOCKED: ATOM      1  C   UNL     1      37.805  15.374 123.171 -0.31 -0.00    +0.000 A 
DOCKED: ATOM      2  C   UNL     1      37.904  13.979 123.091 -0.44 -0.00    +0.000 A 
DOCKED: ATOM      3  C   UNL     1      36.794  13.163 123.369 -0.54 -0.00    +0.000 A 
DOCKED: ATOM      4  C   UNL     1      35.580  13.772 123.747 -0.46 -0.00    +0.000 A 
DOCKED: ATOM      5  C   UNL     1      35.481  15.165 123.818 -0.47 -0.00    +0.000 A 
DOCKED: ATOM      6  C   UNL     1      36.587  15.965 123.526 -0.33 -0.00    +0.000 A 
DOCKED: ATOM      7  CM  UNL     1      36.692  14.570 123.454 +0.00 -0.00    +0.000 AC
DOCKED: ENDROOT
DOCKED: BRANCH   1   8
DOCKED: ATOM      8  O   UNL     1      39.606  17.173 124.041 -0.29 -0.00    +0.000 OA
DOCKED: ATOM      9  S   UNL     1      39.212  16.377 122.827 -0.34 -0.00    +0.000 S 
DOCKED: ATOM     10  O   UNL     1      38.871  17.322 121.711 -0.12 -0.00    +0.000 OA
DOCKED: BRANCH   8  10
DOCKED: ATOM     11  N   UNL     1      40.552  15.382 122.345 -0.39 -0.00    +0.000 N 
DOCKED: ATOM     12  H   UNL     1      40.394  14.418 122.233 -0.03 -0.00    +0.000 HD
DOCKED: BRANCH  10  12
DOCKED: ATOM     13  C   UNL     1      41.878  15.885 122.100 -0.37 -0.00    +0.000 A 
DOCKED: ATOM     14  C   UNL     1      42.581  15.592 120.915 -0.18 -0.00    +0.000 A 
DOCKED: ATOM     15  C   UNL     1      43.864  16.107 120.709 -0.24 -0.00    +0.000 A 
DOCKED: ATOM     16  C   UNL     1      44.461  16.912 121.681 -0.25 -0.00    +0.000 A 
DOCKED: ATOM     17  C   UNL     1      43.778  17.202 122.863 -0.29 -0.00    +0.000 A 
DOCKED: ATOM     18  C   UNL     1      42.493  16.692 123.073 -0.39 -0.00    +0.000 A 
DOCKED: ATOM     19  CM  UNL     1      43.175  16.399 121.890 +0.00 -0.00    +0.000 AC
DOCKED: ENDBRANCH  10  12
DOCKED: ENDBRANCH   8  10
DOCKED: ENDBRANCH   1   8
DOCKED: BRANCH   3  18
DOCKED: ATOM     20  C   UNL     1      36.961  11.690 123.292 -0.68 -0.00    +0.000 C 
DOCKED: ATOM     21  C   UNL     1      36.794  10.981 122.166 -0.62 -0.00    +0.000 C 
DOCKED: BRANCH  19  20
DOCKED: ATOM     22  C   UNL     1      36.961   9.515 122.094 -0.64 -0.00    +0.000 C 
DOCKED: ATOM     23  N   UNL     1      37.041   8.692 123.266 -0.67 -0.00    +0.000 N 
DOCKED: ATOM     24  O   UNL     1      37.063   8.978 120.958 -2.72 -0.00    +0.000 OA
DOCKED: ATOM     25  H   UNL     1      37.078   9.109 124.156 -0.55 -0.00    +0.000 HD
DOCKED: BRANCH  21  24
DOCKED: ATOM     26  O   UNL     1      37.065   7.342 123.150 -2.15 -0.00    +0.000 OA
DOCKED: ATOM     27  H   UNL     1      37.174   7.100 122.218 -0.13 -0.00    +0.000 HD
DOCKED: ENDBRANCH  21  24
DOCKED: ENDBRANCH  19  20
DOCKED: ENDBRANCH   3  18
DOCKED: TORSDOF 6DOCKED: TER
DOCKED: ENDMDL
________________________________________________________________________________


	BEGINNING GENETIC ALGORITHM DOCKING 96 of 100
Run: 96 Seed: 872520460 2123204863 [ Run 96 of 100 GA/GALS ]
Beginning LAMARCKIAN GENETIC ALGORITHM (LGA), with a maximum of 2500000 energy evaluations.

Final-Value: -14.863


	FINAL GENETIC ALGORITHM DOCKED STATE
	_______________________________________________


Detailed state:  trans 38.009 12.523 122.902 quatxyzw -0.006609 -0.713276 0.658766 0.239209 center 0.320 0.169 0.303 ntor 6 11.9626 -63.1858 52.0924 176.8418 -9.6294 123.2906
State:	 38.009  12.523 122.902  -0.007 -0.735  0.678 152.320     11.96  -63.19   52.09  176.84   -9.63  123.29

DOCKED: MODEL       96
DOCKED: USER    Run = 96
DOCKED: USER    DPF = ligand_dock.biased.dpf
DOCKED: USER  
DOCKED: USER    Estimated Free Energy of Binding    =  -11.29 kcal/mol  [=(1)+(2)+(3)-(4)]
DOCKED: USER    Estimated Inhibition Constant, Ki   =    5.29 nM (nanomolar)  [Temperature = 298.15 K]
DOCKED: USER    
DOCKED: USER    (1) Final Intermolecular Energy     =  -13.08 kcal/mol
DOCKED: USER        vdW + Hbond + desolv Energy     =  -13.08 kcal/mol
DOCKED: USER        Electrostatic Energy            =   +0.00 kcal/mol
DOCKED: USER    (2) Final Total Internal Energy     =   -1.78 kcal/mol
DOCKED: USER    (3) Torsional Free Energy           =   +1.79 kcal/mol
DOCKED: USER    (4) Unbound System's Energy  [=(2)] =   -1.78 kcal/mol
DOCKED: USER    
DOCKED: USER    
DOCKED: USER    NEWDPF move ligand.dum.pdbqt
DOCKED: USER    NEWDPF about 0.320000 0.169000 0.303000
DOCKED: USER    NEWDPF tran0 38.009321 12.522603 122.902431
DOCKED: USER    NEWDPF quaternion0 -0.006609 -0.713276 0.658766 0.239209
DOCKED: USER    NEWDPF axisangle0 -0.006807 -0.734603 0.678463 152.320257
DOCKED: USER    NEWDPF quat0 -0.006807 -0.734603 0.678463 152.320257
DOCKED: USER    NEWDPF dihe0 11.96 -63.19 52.09 176.84 -9.63 123.29 
DOCKED: USER  keepresnum = 1 
DOCKED: USER  
DOCKED: REMARK  Name = 
DOCKED: REMARK  6 active torsions:
DOCKED: REMARK  status: ('A' for Active; 'I' for Inactive)
DOCKED: REMARK    1  A    between atoms: S_2  and  N_3
DOCKED: REMARK    2  A    between atoms: S_2  and  C_10
DOCKED: REMARK    3  A    between atoms: N_3  and  C_4
DOCKED: REMARK    4  A    between atoms: C_12  and  C_13
DOCKED: REMARK    5  A    between atoms: C_14  and  C_15
DOCKED: REMARK    6  A    between atoms: N_16  and  O_17
DOCKED: REMARK                            x       y       z     vdW  Elec       q    Type
DOCKED: REMARK                         _______ _______ _______ _____ _____    ______ ____
DOCKED: USER                              x       y       z     vdW  Elec       q    Type
DOCKED: USER                           _______ _______ _______ _____ _____    ______ ____
DOCKED: ROOT
DOCKED: ATOM      1  C   UNL     1      37.813  14.855 122.663 -0.37 -0.00    +0.000 A 
DOCKED: ATOM      2  C   UNL     1      37.536  13.494 122.476 -0.46 -0.00    +0.000 A 
DOCKED: ATOM      3  C   UNL     1      36.406  12.903 123.068 -0.55 -0.00    +0.000 A 
DOCKED: ATOM      4  C   UNL     1      35.564  13.701 123.869 -0.43 -0.00    +0.000 A 
DOCKED: ATOM      5  C   UNL     1      35.838  15.059 124.049 -0.43 -0.00    +0.000 A 
DOCKED: ATOM      6  C   UNL     1      36.956  15.637 123.445 -0.33 -0.00    +0.000 A 
DOCKED: ATOM      7  CM  UNL     1      36.685  14.275 123.262 +0.00 -0.00    +0.000 AC
DOCKED: ENDROOT
DOCKED: BRANCH   1   8
DOCKED: ATOM      8  O   UNL     1      40.353  14.566 121.825 -0.95 -0.00    +0.000 OA
DOCKED: ATOM      9  S   UNL     1      39.241  15.572 121.920 -0.39 -0.00    +0.000 S 
DOCKED: ATOM     10  O   UNL     1      39.696  16.727 122.765 -0.25 -0.00    +0.000 OA
DOCKED: BRANCH   8  10
DOCKED: ATOM     11  N   UNL     1      38.859  16.146 120.326 -0.14 -0.00    +0.000 N 
DOCKED: ATOM     12  H   UNL     1      38.942  17.111 120.150 +0.00 -0.00    +0.000 HD
DOCKED: BRANCH  10  12
DOCKED: ATOM     13  C   UNL     1      38.431  15.295 119.247 -0.18 -0.00    +0.000 A 
DOCKED: ATOM     14  C   UNL     1      37.523  14.236 119.447 -0.30 -0.00    +0.000 A 
DOCKED: ATOM     15  C   UNL     1      37.123  13.436 118.373 -0.38 -0.00    +0.000 A 
DOCKED: ATOM     16  C   UNL     1      37.625  13.679 117.092 -0.35 -0.00    +0.000 A 
DOCKED: ATOM     17  C   UNL     1      38.531  14.720 116.884 -0.22 -0.00    +0.000 A 
DOCKED: ATOM     18  C   UNL     1      38.933  15.524 117.955 -0.14 -0.00    +0.000 A 
DOCKED: ATOM     19  CM  UNL     1      38.027  14.482 118.167 +0.00 -0.00    +0.000 AC
DOCKED: ENDBRANCH  10  12
DOCKED: ENDBRANCH   8  10
DOCKED: ENDBRANCH   1   8
DOCKED: BRANCH   3  18
DOCKED: ATOM     20  C   UNL     1      36.172  11.454 122.855 -0.68 -0.00    +0.000 C 
DOCKED: ATOM     21  C   UNL     1      37.120  10.601 122.438 -0.47 -0.00    +0.000 C 
DOCKED: BRANCH  19  20
DOCKED: ATOM     22  C   UNL     1      36.882   9.158 122.227 -0.69 -0.00    +0.000 C 
DOCKED: ATOM     23  N   UNL     1      36.892   8.212 123.305 -0.72 -0.00    +0.000 N 
DOCKED: ATOM     24  O   UNL     1      36.691   8.746 121.052 -2.53 -0.00    +0.000 OA
DOCKED: ATOM     25  H   UNL     1      37.153   8.501 124.209 -0.49 -0.00    +0.000 HD
DOCKED: BRANCH  21  24
DOCKED: ATOM     26  O   UNL     1      36.543   6.922 123.083 -1.57 -0.00    +0.000 OA
DOCKED: ATOM     27  H   UNL     1      36.498   6.759 122.128 -0.08 -0.00    +0.000 HD
DOCKED: ENDBRANCH  21  24
DOCKED: ENDBRANCH  19  20
DOCKED: ENDBRANCH   3  18
DOCKED: TORSDOF 6DOCKED: TER
DOCKED: ENDMDL
________________________________________________________________________________


	BEGINNING GENETIC ALGORITHM DOCKING 97 of 100
Run: 97 Seed: 863872451 1856162516 [ Run 97 of 100 GA/GALS ]
Beginning LAMARCKIAN GENETIC ALGORITHM (LGA), with a maximum of 2500000 energy evaluations.

Final-Value: -14.436


	FINAL GENETIC ALGORITHM DOCKED STATE
	_______________________________________________


Detailed state:  trans 37.769 12.983 122.155 quatxyzw 0.202473 -0.711091 0.661457 0.125811 center 0.320 0.169 0.303 ntor 6 6.1284 -40.4366 25.5600 173.8891 -17.6480 -30.3390
State:	 37.769  12.983 122.155   0.204 -0.717  0.667 165.545      6.13  -40.44   25.56  173.89  -17.65  -30.34

DOCKED: MODEL       97
DOCKED: USER    Run = 97
DOCKED: USER    DPF = ligand_dock.biased.dpf
DOCKED: USER  
DOCKED: USER    Estimated Free Energy of Binding    =  -10.94 kcal/mol  [=(1)+(2)+(3)-(4)]
DOCKED: USER    Estimated Inhibition Constant, Ki   =    9.61 nM (nanomolar)  [Temperature = 298.15 K]
DOCKED: USER    
DOCKED: USER    (1) Final Intermolecular Energy     =  -12.73 kcal/mol
DOCKED: USER        vdW + Hbond + desolv Energy     =  -12.73 kcal/mol
DOCKED: USER        Electrostatic Energy            =   +0.00 kcal/mol
DOCKED: USER    (2) Final Total Internal Energy     =   -1.71 kcal/mol
DOCKED: USER    (3) Torsional Free Energy           =   +1.79 kcal/mol
DOCKED: USER    (4) Unbound System's Energy  [=(2)] =   -1.71 kcal/mol
DOCKED: USER    
DOCKED: USER    
DOCKED: USER    NEWDPF move ligand.dum.pdbqt
DOCKED: USER    NEWDPF about 0.320000 0.169000 0.303000
DOCKED: USER    NEWDPF tran0 37.769057 12.982956 122.154556
DOCKED: USER    NEWDPF quaternion0 0.202473 -0.711091 0.661457 0.125811
DOCKED: USER    NEWDPF axisangle0 0.204095 -0.716787 0.666755 165.544788
DOCKED: USER    NEWDPF quat0 0.204095 -0.716787 0.666755 165.544788
DOCKED: USER    NEWDPF dihe0 6.13 -40.44 25.56 173.89 -17.65 -30.34 
DOCKED: USER  keepresnum = 1 
DOCKED: USER  
DOCKED: REMARK  Name = 
DOCKED: REMARK  6 active torsions:
DOCKED: REMARK  status: ('A' for Active; 'I' for Inactive)
DOCKED: REMARK    1  A    between atoms: S_2  and  N_3
DOCKED: REMARK    2  A    between atoms: S_2  and  C_10
DOCKED: REMARK    3  A    between atoms: N_3  and  C_4
DOCKED: REMARK    4  A    between atoms: C_12  and  C_13
DOCKED: REMARK    5  A    between atoms: C_14  and  C_15
DOCKED: REMARK    6  A    between atoms: N_16  and  O_17
DOCKED: REMARK                            x       y       z     vdW  Elec       q    Type
DOCKED: REMARK                         _______ _______ _______ _____ _____    ______ ____
DOCKED: USER                              x       y       z     vdW  Elec       q    Type
DOCKED: USER                           _______ _______ _______ _____ _____    ______ ____
DOCKED: ROOT
DOCKED: ATOM      1  C   UNL     1      37.107  15.221 121.861 -0.27 -0.00    +0.000 A 
DOCKED: ATOM      2  C   UNL     1      37.007  13.824 121.907 -0.36 -0.00    +0.000 A 
DOCKED: ATOM      3  C   UNL     1      36.342  13.187 122.969 -0.50 -0.00    +0.000 A 
DOCKED: ATOM      4  C   UNL     1      35.789  13.977 123.997 -0.44 -0.00    +0.000 A 
DOCKED: ATOM      5  C   UNL     1      35.883  15.370 123.945 -0.41 -0.00    +0.000 A 
DOCKED: ATOM      6  C   UNL     1      36.535  15.993 122.879 -0.30 -0.00    +0.000 A 
DOCKED: ATOM      7  CM  UNL     1      36.443  14.595 122.926 +0.00 -0.00    +0.000 AC
DOCKED: ENDROOT
DOCKED: BRANCH   1   8
DOCKED: ATOM      8  O   UNL     1      37.822  17.494 120.613 -0.09 -0.00    +0.000 OA
DOCKED: ATOM      9  S   UNL     1      37.954  15.999 120.526 -0.24 -0.00    +0.000 S 
DOCKED: ATOM     10  O   UNL     1      37.353  15.528 119.233 -0.20 -0.00    +0.000 OA
DOCKED: BRANCH   8  10
DOCKED: ATOM     11  N   UNL     1      39.639  15.577 120.561 -0.20 -0.00    +0.000 N 
DOCKED: ATOM     12  H   UNL     1      39.978  14.976 119.860 -0.05 -0.00    +0.000 HD
DOCKED: BRANCH  10  12
DOCKED: ATOM     13  C   UNL     1      40.565  16.054 121.553 -0.24 -0.00    +0.000 A 
DOCKED: ATOM     14  C   UNL     1      40.133  16.666 122.746 -0.25 -0.00    +0.000 A 
DOCKED: ATOM     15  C   UNL     1      41.064  17.109 123.691 -0.29 -0.00    +0.000 A 
DOCKED: ATOM     16  C   UNL     1      42.431  16.952 123.455 -0.32 -0.00    +0.000 A 
DOCKED: ATOM     17  C   UNL     1      42.872  16.354 122.273 -0.36 -0.00    +0.000 A 
DOCKED: ATOM     18  C   UNL     1      41.944  15.908 121.325 -0.27 -0.00    +0.000 A 
DOCKED: ATOM     19  CM  UNL     1      41.501  16.507 122.507 +0.00 -0.00    +0.000 AC
DOCKED: ENDBRANCH  10  12
DOCKED: ENDBRANCH   8  10
DOCKED: ENDBRANCH   1   8
DOCKED: BRANCH   3  18
DOCKED: ATOM     20  C   UNL     1      36.285  11.704 122.980 -0.69 -0.00    +0.000 C 
DOCKED: ATOM     21  C   UNL     1      37.062  10.924 122.213 -0.55 -0.00    +0.000 C 
DOCKED: BRANCH  19  20
DOCKED: ATOM     22  C   UNL     1      37.002   9.448 122.228 -0.64 -0.00    +0.000 C 
DOCKED: ATOM     23  N   UNL     1      37.232   8.681 123.417 -0.61 -0.00    +0.000 N 
DOCKED: ATOM     24  O   UNL     1      36.766   8.846 121.146 -2.63 -0.00    +0.000 OA
DOCKED: ATOM     25  H   UNL     1      37.529   9.131 124.241 -0.62 -0.00    +0.000 HD
DOCKED: BRANCH  21  24
DOCKED: ATOM     26  O   UNL     1      37.040   7.340 123.411 -2.10 -0.00    +0.000 OA
DOCKED: ATOM     27  H   UNL     1      36.844   7.046 122.509 -0.08 -0.00    +0.000 HD
DOCKED: ENDBRANCH  21  24
DOCKED: ENDBRANCH  19  20
DOCKED: ENDBRANCH   3  18
DOCKED: TORSDOF 6DOCKED: TER
DOCKED: ENDMDL
________________________________________________________________________________


	BEGINNING GENETIC ALGORITHM DOCKING 98 of 100
Run: 98 Seed: 558609637 473303503 [ Run 98 of 100 GA/GALS ]
Beginning LAMARCKIAN GENETIC ALGORITHM (LGA), with a maximum of 2500000 energy evaluations.

Final-Value: -15.013


	FINAL GENETIC ALGORITHM DOCKED STATE
	_______________________________________________


Detailed state:  trans 38.396 13.168 123.531 quatxyzw -0.019845 0.644550 -0.655198 -0.393544 center 0.320 0.169 0.303 ntor 6 17.0735 27.6481 95.2049 78.1473 -133.5040 -2.6866
State:	 38.396  13.168 123.531  -0.022  0.701 -0.713 -133.650     17.07   27.65   95.20   78.15 -133.50   -2.69

DOCKED: MODEL       98
DOCKED: USER    Run = 98
DOCKED: USER    DPF = ligand_dock.biased.dpf
DOCKED: USER  
DOCKED: USER    Estimated Free Energy of Binding    =  -11.76 kcal/mol  [=(1)+(2)+(3)-(4)]
DOCKED: USER    Estimated Inhibition Constant, Ki   =    2.41 nM (nanomolar)  [Temperature = 298.15 K]
DOCKED: USER    
DOCKED: USER    (1) Final Intermolecular Energy     =  -13.55 kcal/mol
DOCKED: USER        vdW + Hbond + desolv Energy     =  -13.55 kcal/mol
DOCKED: USER        Electrostatic Energy            =   +0.00 kcal/mol
DOCKED: USER    (2) Final Total Internal Energy     =   -1.47 kcal/mol
DOCKED: USER    (3) Torsional Free Energy           =   +1.79 kcal/mol
DOCKED: USER    (4) Unbound System's Energy  [=(2)] =   -1.47 kcal/mol
DOCKED: USER    
DOCKED: USER    
DOCKED: USER    NEWDPF move ligand.dum.pdbqt
DOCKED: USER    NEWDPF about 0.320000 0.169000 0.303000
DOCKED: USER    NEWDPF tran0 38.395733 13.168440 123.531044
DOCKED: USER    NEWDPF quaternion0 -0.019845 0.644550 -0.655198 -0.393544
DOCKED: USER    NEWDPF axisangle0 -0.021586 0.701127 -0.712709 -133.649620
DOCKED: USER    NEWDPF quat0 -0.021586 0.701127 -0.712709 -133.649620
DOCKED: USER    NEWDPF dihe0 17.07 27.65 95.20 78.15 -133.50 -2.69 
DOCKED: USER  keepresnum = 1 
DOCKED: USER  
DOCKED: REMARK  Name = 
DOCKED: REMARK  6 active torsions:
DOCKED: REMARK  status: ('A' for Active; 'I' for Inactive)
DOCKED: REMARK    1  A    between atoms: S_2  and  N_3
DOCKED: REMARK    2  A    between atoms: S_2  and  C_10
DOCKED: REMARK    3  A    between atoms: N_3  and  C_4
DOCKED: REMARK    4  A    between atoms: C_12  and  C_13
DOCKED: REMARK    5  A    between atoms: C_14  and  C_15
DOCKED: REMARK    6  A    between atoms: N_16  and  O_17
DOCKED: REMARK                            x       y       z     vdW  Elec       q    Type
DOCKED: REMARK                         _______ _______ _______ _____ _____    ______ ____
DOCKED: USER                              x       y       z     vdW  Elec       q    Type
DOCKED: USER                           _______ _______ _______ _____ _____    ______ ____
DOCKED: ROOT
DOCKED: ATOM      1  C   UNL     1      37.734  15.355 122.968 -0.33 -0.00    +0.000 A 
DOCKED: ATOM      2  C   UNL     1      37.824  13.958 122.899 -0.45 -0.00    +0.000 A 
DOCKED: ATOM      3  C   UNL     1      36.754  13.149 123.319 -0.54 -0.00    +0.000 A 
DOCKED: ATOM      4  C   UNL     1      35.592  13.766 123.826 -0.46 -0.00    +0.000 A 
DOCKED: ATOM      5  C   UNL     1      35.502  15.160 123.887 -0.47 -0.00    +0.000 A 
DOCKED: ATOM      6  C   UNL     1      36.566  15.953 123.454 -0.33 -0.00    +0.000 A 
DOCKED: ATOM      7  CM  UNL     1      36.662  14.557 123.392 +0.00 -0.00    +0.000 AC
DOCKED: ENDROOT
DOCKED: BRANCH   1   8
DOCKED: ATOM      8  O   UNL     1      39.024  17.712 123.077 -0.18 -0.00    +0.000 OA
DOCKED: ATOM      9  S   UNL     1      39.091  16.350 122.446 -0.32 -0.00    +0.000 S 
DOCKED: ATOM     10  O   UNL     1      39.035  16.498 120.953 -0.15 -0.00    +0.000 OA
DOCKED: BRANCH   8  10
DOCKED: ATOM     11  N   UNL     1      40.591  15.594 122.889 -0.37 -0.00    +0.000 N 
DOCKED: ATOM     12  H   UNL     1      40.553  14.784 123.446 -0.04 -0.00    +0.000 HD
DOCKED: BRANCH  10  12
DOCKED: ATOM     13  C   UNL     1      41.885  16.083 122.490 -0.39 -0.00    +0.000 A 
DOCKED: ATOM     14  C   UNL     1      42.550  17.103 123.198 -0.34 -0.00    +0.000 A 
DOCKED: ATOM     15  C   UNL     1      43.810  17.545 122.785 -0.25 -0.00    +0.000 A 
DOCKED: ATOM     16  C   UNL     1      44.417  16.980 121.662 -0.25 -0.00    +0.000 A 
DOCKED: ATOM     17  C   UNL     1      43.765  15.974 120.947 -0.25 -0.00    +0.000 A 
DOCKED: ATOM     18  C   UNL     1      42.505  15.528 121.357 -0.24 -0.00    +0.000 A 
DOCKED: ATOM     19  CM  UNL     1      43.155  16.535 122.074 +0.00 -0.00    +0.000 AC
DOCKED: ENDBRANCH  10  12
DOCKED: ENDBRANCH   8  10
DOCKED: ENDBRANCH   1   8
DOCKED: BRANCH   3  18
DOCKED: ATOM     20  C   UNL     1      36.910  11.675 123.246 -0.68 -0.00    +0.000 C 
DOCKED: ATOM     21  C   UNL     1      36.747  10.964 122.120 -0.62 -0.00    +0.000 C 
DOCKED: BRANCH  19  20
DOCKED: ATOM     22  C   UNL     1      36.904   9.497 122.052 -0.65 -0.00    +0.000 C 
DOCKED: ATOM     23  N   UNL     1      37.051   8.685 123.225 -0.68 -0.00    +0.000 N 
DOCKED: ATOM     24  O   UNL     1      36.936   8.948 120.918 -2.68 -0.00    +0.000 OA
DOCKED: ATOM     25  H   UNL     1      37.143   9.110 124.108 -0.55 -0.00    +0.000 HD
DOCKED: BRANCH  21  24
DOCKED: ATOM     26  O   UNL     1      37.063   7.334 123.122 -2.15 -0.00    +0.000 OA
DOCKED: ATOM     27  H   UNL     1      37.233   7.082 122.201 -0.15 -0.00    +0.000 HD
DOCKED: ENDBRANCH  21  24
DOCKED: ENDBRANCH  19  20
DOCKED: ENDBRANCH   3  18
DOCKED: TORSDOF 6DOCKED: TER
DOCKED: ENDMDL
________________________________________________________________________________


	BEGINNING GENETIC ALGORITHM DOCKING 99 of 100
Run: 99 Seed: 1685590091 1016147379 [ Run 99 of 100 GA/GALS ]
Beginning LAMARCKIAN GENETIC ALGORITHM (LGA), with a maximum of 2500000 energy evaluations.

Final-Value: -14.382


	FINAL GENETIC ALGORITHM DOCKED STATE
	_______________________________________________


Detailed state:  trans 38.528 13.208 123.071 quatxyzw 0.047153 0.731663 -0.548082 -0.402556 center 0.320 0.169 0.303 ntor 6 12.7226 165.8661 125.6859 -64.0129 -161.4528 3.8792
State:	 38.528  13.208 123.071   0.052  0.799 -0.599 -132.524     12.72  165.87  125.69  -64.01 -161.45    3.88

DOCKED: MODEL       99
DOCKED: USER    Run = 99
DOCKED: USER    DPF = ligand_dock.biased.dpf
DOCKED: USER  
DOCKED: USER    Estimated Free Energy of Binding    =  -11.12 kcal/mol  [=(1)+(2)+(3)-(4)]
DOCKED: USER    Estimated Inhibition Constant, Ki   =    7.10 nM (nanomolar)  [Temperature = 298.15 K]
DOCKED: USER    
DOCKED: USER    (1) Final Intermolecular Energy     =  -12.91 kcal/mol
DOCKED: USER        vdW + Hbond + desolv Energy     =  -12.91 kcal/mol
DOCKED: USER        Electrostatic Energy            =   +0.00 kcal/mol
DOCKED: USER    (2) Final Total Internal Energy     =   -1.47 kcal/mol
DOCKED: USER    (3) Torsional Free Energy           =   +1.79 kcal/mol
DOCKED: USER    (4) Unbound System's Energy  [=(2)] =   -1.47 kcal/mol
DOCKED: USER    
DOCKED: USER    
DOCKED: USER    NEWDPF move ligand.dum.pdbqt
DOCKED: USER    NEWDPF about 0.320000 0.169000 0.303000
DOCKED: USER    NEWDPF tran0 38.528263 13.207829 123.071311
DOCKED: USER    NEWDPF quaternion0 0.047153 0.731663 -0.548082 -0.402556
DOCKED: USER    NEWDPF axisangle0 0.051511 0.799287 -0.598738 -132.523831
DOCKED: USER    NEWDPF quat0 0.051511 0.799287 -0.598738 -132.523831
DOCKED: USER    NEWDPF dihe0 12.72 165.87 125.69 -64.01 -161.45 3.88 
DOCKED: USER  keepresnum = 1 
DOCKED: USER  
DOCKED: REMARK  Name = 
DOCKED: REMARK  6 active torsions:
DOCKED: REMARK  status: ('A' for Active; 'I' for Inactive)
DOCKED: REMARK    1  A    between atoms: S_2  and  N_3
DOCKED: REMARK    2  A    between atoms: S_2  and  C_10
DOCKED: REMARK    3  A    between atoms: N_3  and  C_4
DOCKED: REMARK    4  A    between atoms: C_12  and  C_13
DOCKED: REMARK    5  A    between atoms: C_14  and  C_15
DOCKED: REMARK    6  A    between atoms: N_16  and  O_17
DOCKED: REMARK                            x       y       z     vdW  Elec       q    Type
DOCKED: REMARK                         _______ _______ _______ _____ _____    ______ ____
DOCKED: USER                              x       y       z     vdW  Elec       q    Type
DOCKED: USER                           _______ _______ _______ _____ _____    ______ ____
DOCKED: ROOT
DOCKED: ATOM      1  C   UNL     1      37.859  15.461 123.176 -0.30 -0.00    +0.000 A 
DOCKED: ATOM      2  C   UNL     1      37.964  14.150 122.692 -0.43 -0.00    +0.000 A 
DOCKED: ATOM      3  C   UNL     1      36.892  13.249 122.818 -0.51 -0.00    +0.000 A 
DOCKED: ATOM      4  C   UNL     1      35.712  13.683 123.457 -0.45 -0.00    +0.000 A 
DOCKED: ATOM      5  C   UNL     1      35.606  14.993 123.932 -0.47 -0.00    +0.000 A 
DOCKED: ATOM      6  C   UNL     1      36.673  15.882 123.788 -0.30 -0.00    +0.000 A 
DOCKED: ATOM      7  CM  UNL     1      36.784  14.570 123.310 +0.00 -0.00    +0.000 AC
DOCKED: ENDROOT
DOCKED: BRANCH   1   8
DOCKED: ATOM      8  O   UNL     1      39.209  17.585 124.124 -0.28 -0.00    +0.000 OA
DOCKED: ATOM      9  S   UNL     1      39.218  16.570 123.015 -0.33 -0.00    +0.000 S 
DOCKED: ATOM     10  O   UNL     1      39.108  17.282 121.698 -0.12 -0.00    +0.000 OA
DOCKED: BRANCH   8  10
DOCKED: ATOM     11  N   UNL     1      40.716  15.691 123.066 -0.37 -0.00    +0.000 N 
DOCKED: ATOM     12  H   UNL     1      40.766  14.897 123.646 -0.01 +0.00    +0.000 HD
DOCKED: BRANCH  10  12
DOCKED: ATOM     13  C   UNL     1      41.886  16.055 122.312 -0.38 -0.00    +0.000 A 
DOCKED: ATOM     14  C   UNL     1      43.074  16.482 122.937 -0.38 -0.00    +0.000 A 
DOCKED: ATOM     15  C   UNL     1      44.194  16.819 122.171 -0.29 -0.00    +0.000 A 
DOCKED: ATOM     16  C   UNL     1      44.141  16.738 120.778 -0.19 -0.00    +0.000 A 
DOCKED: ATOM     17  C   UNL     1      42.966  16.323 120.147 -0.19 -0.00    +0.000 A 
DOCKED: ATOM     18  C   UNL     1      41.844  15.983 120.909 -0.22 -0.00    +0.000 A 
DOCKED: ATOM     19  CM  UNL     1      43.018  16.400 121.542 +0.00 -0.00    +0.000 AC
DOCKED: ENDBRANCH  10  12
DOCKED: ENDBRANCH   8  10
DOCKED: ENDBRANCH   1   8
DOCKED: BRANCH   3  18
DOCKED: ATOM     20  C   UNL     1      37.066  11.867 122.309 -0.60 -0.00    +0.000 C 
DOCKED: ATOM     21  C   UNL     1      36.654  10.774 122.969 -0.69 -0.00    +0.000 C 
DOCKED: BRANCH  19  20
DOCKED: ATOM     22  C   UNL     1      36.829   9.398 122.457 -0.69 -0.00    +0.000 C 
DOCKED: ATOM     23  N   UNL     1      37.040   8.277 123.325 -0.72 -0.00    +0.000 N 
DOCKED: ATOM     24  O   UNL     1      36.820   9.217 121.210 -2.67 -0.00    +0.000 OA
DOCKED: ATOM     25  H   UNL     1      37.164   8.420 124.291 -0.46 -0.00    +0.000 HD
DOCKED: BRANCH  21  24
DOCKED: ATOM     26  O   UNL     1      37.067   7.020 122.819 -1.74 -0.00    +0.000 OA
DOCKED: ATOM     27  H   UNL     1      37.131   7.062 121.852 -0.14 -0.00    +0.000 HD
DOCKED: ENDBRANCH  21  24
DOCKED: ENDBRANCH  19  20
DOCKED: ENDBRANCH   3  18
DOCKED: TORSDOF 6DOCKED: TER
DOCKED: ENDMDL
________________________________________________________________________________


	BEGINNING GENETIC ALGORITHM DOCKING 100 of 100
Run: 100 Seed: 1267737475 837474180 [ Run 100 of 100 GA/GALS ]
Beginning LAMARCKIAN GENETIC ALGORITHM (LGA), with a maximum of 2500000 energy evaluations.

Final-Value: -14.838


	FINAL GENETIC ALGORITHM DOCKED STATE
	_______________________________________________


Detailed state:  trans 38.013 13.233 121.992 quatxyzw 0.291381 -0.679621 0.658498 0.139974 center 0.320 0.169 0.303 ntor 6 24.9660 27.0910 76.2378 122.7271 4.0409 -16.9140
State:	 38.013  13.233 121.992   0.294 -0.686  0.665 163.907     24.97   27.09   76.24  122.73    4.04  -16.91

DOCKED: MODEL      100
DOCKED: USER    Run = 100
DOCKED: USER    DPF = ligand_dock.biased.dpf
DOCKED: USER  
DOCKED: USER    Estimated Free Energy of Binding    =  -11.29 kcal/mol  [=(1)+(2)+(3)-(4)]
DOCKED: USER    Estimated Inhibition Constant, Ki   =    5.27 nM (nanomolar)  [Temperature = 298.15 K]
DOCKED: USER    
DOCKED: USER    (1) Final Intermolecular Energy     =  -13.08 kcal/mol
DOCKED: USER        vdW + Hbond + desolv Energy     =  -13.08 kcal/mol
DOCKED: USER        Electrostatic Energy            =   +0.00 kcal/mol
DOCKED: USER    (2) Final Total Internal Energy     =   -1.76 kcal/mol
DOCKED: USER    (3) Torsional Free Energy           =   +1.79 kcal/mol
DOCKED: USER    (4) Unbound System's Energy  [=(2)] =   -1.76 kcal/mol
DOCKED: USER    
DOCKED: USER    
DOCKED: USER    NEWDPF move ligand.dum.pdbqt
DOCKED: USER    NEWDPF about 0.320000 0.169000 0.303000
DOCKED: USER    NEWDPF tran0 38.013224 13.232816 121.991541
DOCKED: USER    NEWDPF quaternion0 0.291381 -0.679621 0.658498 0.139974
DOCKED: USER    NEWDPF axisangle0 0.294278 -0.686379 0.665045 163.907346
DOCKED: USER    NEWDPF quat0 0.294278 -0.686379 0.665045 163.907346
DOCKED: USER    NEWDPF dihe0 24.97 27.09 76.24 122.73 4.04 -16.91 
DOCKED: USER  keepresnum = 1 
DOCKED: USER  
DOCKED: REMARK  Name = 
DOCKED: REMARK  6 active torsions:
DOCKED: REMARK  status: ('A' for Active; 'I' for Inactive)
DOCKED: REMARK    1  A    between atoms: S_2  and  N_3
DOCKED: REMARK    2  A    between atoms: S_2  and  C_10
DOCKED: REMARK    3  A    between atoms: N_3  and  C_4
DOCKED: REMARK    4  A    between atoms: C_12  and  C_13
DOCKED: REMARK    5  A    between atoms: C_14  and  C_15
DOCKED: REMARK    6  A    between atoms: N_16  and  O_17
DOCKED: REMARK                            x       y       z     vdW  Elec       q    Type
DOCKED: REMARK                         _______ _______ _______ _____ _____    ______ ____
DOCKED: USER                              x       y       z     vdW  Elec       q    Type
DOCKED: USER                           _______ _______ _______ _____ _____    ______ ____
DOCKED: ROOT
DOCKED: ATOM      1  C   UNL     1      36.978  15.319 121.658 -0.23 -0.00    +0.000 A 
DOCKED: ATOM      2  C   UNL     1      37.108  13.929 121.778 -0.36 -0.00    +0.000 A 
DOCKED: ATOM      3  C   UNL     1      36.647  13.261 122.927 -0.51 -0.00    +0.000 A 
DOCKED: ATOM      4  C   UNL     1      36.066  14.018 123.965 -0.44 -0.00    +0.000 A 
DOCKED: ATOM      5  C   UNL     1      35.930  15.403 123.839 -0.42 -0.00    +0.000 A 
DOCKED: ATOM      6  C   UNL     1      36.379  16.052 122.688 -0.29 -0.00    +0.000 A 
DOCKED: ATOM      7  CM  UNL     1      36.517  14.664 122.809 +0.00 -0.00    +0.000 AC
DOCKED: ENDROOT
DOCKED: BRANCH   1   8
DOCKED: ATOM      8  O   UNL     1      37.505  17.628 120.383 -0.09 -0.00    +0.000 OA
DOCKED: ATOM      9  S   UNL     1      37.571  16.136 120.214 -0.22 -0.00    +0.000 S 
DOCKED: ATOM     10  O   UNL     1      36.715  15.736 119.047 -0.20 -0.00    +0.000 OA
DOCKED: BRANCH   8  10
DOCKED: ATOM     11  N   UNL     1      39.216  15.675 119.900 -0.17 -0.00    +0.000 N 
DOCKED: ATOM     12  H   UNL     1      39.450  15.391 118.988 -0.05 -0.00    +0.000 HD
DOCKED: BRANCH  10  12
DOCKED: ATOM     13  C   UNL     1      40.256  15.685 120.895 -0.21 -0.00    +0.000 A 
DOCKED: ATOM     14  C   UNL     1      40.227  14.831 122.015 -0.37 -0.00    +0.000 A 
DOCKED: ATOM     15  C   UNL     1      41.261  14.863 122.956 -0.43 -0.00    +0.000 A 
DOCKED: ATOM     16  C   UNL     1      42.329  15.748 122.793 -0.43 -0.00    +0.000 A 
DOCKED: ATOM     17  C   UNL     1      42.365  16.605 121.692 -0.26 -0.00    +0.000 A 
DOCKED: ATOM     18  C   UNL     1      41.334  16.575 120.747 -0.16 -0.00    +0.000 A 
DOCKED: ATOM     19  CM  UNL     1      41.296  15.718 121.849 +0.00 -0.00    +0.000 AC
DOCKED: ENDBRANCH  10  12
DOCKED: ENDBRANCH   8  10
DOCKED: ENDBRANCH   1   8
DOCKED: BRANCH   3  18
DOCKED: ATOM     20  C   UNL     1      36.830  11.791 123.012 -0.67 -0.00    +0.000 C 
DOCKED: ATOM     21  C   UNL     1      36.732  10.967 121.958 -0.61 -0.00    +0.000 C 
DOCKED: BRANCH  19  20
DOCKED: ATOM     22  C   UNL     1      36.915   9.504 122.049 -0.65 -0.00    +0.000 C 
DOCKED: ATOM     23  N   UNL     1      37.032   8.820 123.304 -0.64 -0.00    +0.000 N 
DOCKED: ATOM     24  O   UNL     1      36.999   8.842 120.979 -2.69 -0.00    +0.000 OA
DOCKED: ATOM     25  H   UNL     1      37.083   9.336 124.141 -0.56 -0.00    +0.000 HD
DOCKED: BRANCH  21  24
DOCKED: ATOM     26  O   UNL     1      37.069   7.466 123.341 -2.18 -0.00    +0.000 OA
DOCKED: ATOM     27  H   UNL     1      37.399   7.129 122.494 -0.21 -0.00    +0.000 HD
DOCKED: ENDBRANCH  21  24
DOCKED: ENDBRANCH  19  20
DOCKED: ENDBRANCH   3  18
DOCKED: TORSDOF 6DOCKED: TER
DOCKED: ENDMDL
________________________________________________________________________________

DPF> analysis                             # perform a ranked cluster analysis


		CLUSTER ANALYSIS OF CONFORMATIONS
		_________________________________

Number of conformations = 100

RMSD cluster analysis will be performed using the ligand atoms only (27 / 27 total atoms).

Outputting structurally similar clusters, ranked in order of increasing energy.


________________________________________________________________________________

Number of distinct conformational clusters found = 10,  out of 100 runs,
Using an rmsd-tolerance of 2.0 A


	CLUSTERING HISTOGRAM
	____________________

________________________________________________________________________________
     |           |     |           |     |                                    
Clus | Lowest    | Run | Mean      | Num | Histogram                          
-ter | Binding   |     | Binding   | in  |                                    
Rank | Energy    |     | Energy    | Clus|    5    10   15   20   25   30   35
_____|___________|_____|___________|_____|____:____|____:____|____:____|____:___
   1 |    -12.75 |  59 |    -11.83 |  18 |##################
   2 |    -12.08 |   1 |    -11.45 |   7 |#######
   3 |    -11.96 |  58 |    -11.96 |   1 |#
   4 |    -11.81 |  23 |    -11.32 |  27 |###########################
   5 |    -11.68 |  14 |    -11.31 |  35 |###################################
   6 |    -11.46 |  93 |    -11.33 |   3 |###
   7 |    -11.35 |  43 |    -11.13 |   2 |##
   8 |    -11.05 |   6 |    -10.93 |   4 |####
   9 |    -10.58 |  80 |    -10.21 |   2 |##
  10 |    -10.19 |  54 |    -10.19 |   1 |#
_____|___________|_____|___________|_____|______________________________________


Number of multi-member conformational clusters found = 8, out of 100 runs.

	RMSD TABLE
	__________

_____________________________________________________________________
     |      |      |           |         |                 |
Rank | Sub- | Run  | Binding   | Cluster | Reference       | Grep
     | Rank |      | Energy    | RMSD    | RMSD            | Pattern
_____|______|______|___________|_________|_________________|___________
   1      1     59      -12.75      0.00    127.64           RANKING
   1      2     39      -12.54      0.29    127.62           RANKING
   1      3     63      -12.50      0.20    127.60           RANKING
   1      4     67      -12.29      0.34    127.63           RANKING
   1      5     27      -12.03      0.45    127.49           RANKING
   1      6     35      -12.02      0.56    127.48           RANKING
   1      7     88      -11.96      0.41    127.55           RANKING
   1      8     89      -11.96      1.18    127.45           RANKING
   1      9     13      -11.71      0.98    127.49           RANKING
   1     10     22      -11.69      1.07    127.45           RANKING
   1     11     82      -11.63      1.16    127.47           RANKING
   1     12     11      -11.62      1.42    127.27           RANKING
   1     13     20      -11.60      1.14    127.35           RANKING
   1     14     79      -11.56      0.60    127.55           RANKING
   1     15     36      -11.51      1.46    127.33           RANKING
   1     16      8      -11.28      0.73    127.69           RANKING
   1     17     40      -11.13      1.83    127.33           RANKING
   1     18     51      -11.12      1.11    127.58           RANKING
   2      1      1      -12.08      0.00    126.17           RANKING
   2      2     73      -11.69      0.60    126.38           RANKING
   2      3     30      -11.59      0.76    126.39           RANKING
   2      4     69      -11.50      0.82    126.32           RANKING
   2      5     66      -11.27      0.89    126.02           RANKING
   2      6     41      -11.00      1.20    125.72           RANKING
   2      7     87      -10.99      1.58    125.57           RANKING
   3      1     58      -11.96      0.00    123.94           RANKING
   4      1     23      -11.81      0.00    127.11           RANKING
   4      2     95      -11.81      0.21    127.11           RANKING
   4      3     29      -11.80      0.78    127.04           RANKING
   4      4     98      -11.76      0.31    127.11           RANKING
   4      5     92      -11.69      0.36    127.12           RANKING
   4      6      9      -11.65      0.48    127.06           RANKING
   4      7     37      -11.54      0.40    127.03           RANKING
   4      8      3      -11.52      1.25    127.26           RANKING
   4      9     90      -11.44      1.47    126.63           RANKING
   4     10     24      -11.35      1.34    126.45           RANKING
   4     11     68      -11.32      0.80    127.43           RANKING
   4     12    100      -11.29      1.61    126.14           RANKING
   4     13     42      -11.28      1.46    126.63           RANKING
   4     14     64      -11.23      1.62    126.40           RANKING
   4     15     86      -11.23      0.92    127.14           RANKING
   4     16     65      -11.23      1.24    127.17           RANKING
   4     17     21      -11.19      0.92    126.72           RANKING
   4     18     38      -11.14      1.38    126.58           RANKING
   4     19     99      -11.12      0.62    127.07           RANKING
   4     20     10      -11.10      0.55    127.02           RANKING
   4     21     45      -11.09      1.74    126.53           RANKING
   4     22      2      -11.07      1.70    126.20           RANKING
   4     23     74      -11.05      1.57    126.25           RANKING
   4     24     60      -11.04      1.59    126.68           RANKING
   4     25     44      -11.01      1.41    126.64           RANKING
   4     26     97      -10.94      1.32    126.49           RANKING
   4     27     52      -10.92      1.58    126.52           RANKING
   5      1     14      -11.68      0.00    125.47           RANKING
   5      2     81      -11.65      0.22    125.59           RANKING
   5      3     71      -11.64      0.54    125.60           RANKING
   5      4     49      -11.63      0.58    125.65           RANKING
   5      5     28      -11.61      0.58    125.65           RANKING
   5      6     48      -11.60      0.59    125.58           RANKING
   5      7     78      -11.59      0.52    125.55           RANKING
   5      8      7      -11.53      0.59    125.79           RANKING
   5      9     32      -11.51      1.27    124.89           RANKING
   5     10     61      -11.49      0.79    125.70           RANKING
   5     11     91      -11.48      1.57    126.08           RANKING
   5     12      4      -11.48      0.81    125.78           RANKING
   5     13      5      -11.47      0.72    125.66           RANKING
   5     14     50      -11.46      0.75    125.65           RANKING
   5     15     53      -11.45      0.36    125.52           RANKING
   5     16     46      -11.45      0.76    125.66           RANKING
   5     17     17      -11.43      0.74    125.71           RANKING
   5     18     83      -11.38      0.81    125.67           RANKING
   5     19     26      -11.38      0.76    125.48           RANKING
   5     20     62      -11.34      1.39    124.70           RANKING
   5     21     96      -11.29      0.29    125.36           RANKING
   5     22     76      -11.28      0.84    125.47           RANKING
   5     23     70      -11.28      0.80    125.60           RANKING
   5     24     31      -11.26      0.71    125.58           RANKING
   5     25     18      -11.24      1.67    126.19           RANKING
   5     26     94      -11.13      1.37    124.74           RANKING
   5     27     15      -11.09      0.95    125.47           RANKING
   5     28     19      -11.07      0.83    125.38           RANKING
   5     29     56      -11.05      1.98    124.13           RANKING
   5     30     77      -10.97      0.92    125.41           RANKING
   5     31     55      -10.89      1.58    126.07           RANKING
   5     32     12      -10.86      1.40    125.03           RANKING
   5     33     72      -10.84      0.65    125.58           RANKING
   5     34     57      -10.67      1.63    125.87           RANKING
   5     35     47      -10.61      1.07    125.61           RANKING
   6      1     93      -11.46      0.00    127.82           RANKING
   6      2     16      -11.32      0.85    127.59           RANKING
   6      3     84      -11.23      0.83    127.67           RANKING
   7      1     43      -11.35      0.00    126.43           RANKING
   7      2     85      -10.91      0.69    126.31           RANKING
   8      1      6      -11.05      0.00    126.35           RANKING
   8      2     34      -11.01      0.37    126.30           RANKING
   8      3     75      -10.87      1.00    126.63           RANKING
   8      4     33      -10.78      0.75    126.27           RANKING
   9      1     80      -10.58      0.00    123.96           RANKING
   9      2     25       -9.84      1.93    122.77           RANKING
  10      1     54      -10.19      0.00    122.84           RANKING
_______________________________________________________________________



	INFORMATION ENTROPY ANALYSIS FOR THIS CLUSTERING
	________________________________________________


Information entropy for this clustering = 0.37  (rmstol = 2.00 Angstrom)

_______________________________________________________________________


	STATISTICAL MECHANICAL ANALYSIS
	_______________________________


Partition function, Q =   101.94            at Temperature, T = 298.15 K
Free energy,        A ~ -2739.85 kcal/mol   at Temperature, T = 298.15 K
Internal energy,    U =   -11.37 kcal/mol   at Temperature, T = 298.15 K
Entropy,            S =     9.15 kcal/mol/K at Temperature, T = 298.15 K

_______________________________________________________________________


	LOWEST ENERGY DOCKED CONFORMATION from EACH CLUSTER
	___________________________________________________



Keeping original residue number (specified in the input PDBQ file) for outputting.

MODEL       59
USER    Run = 59
USER    Cluster Rank = 1
USER    Number of conformations in this cluster = 18
USER  
USER    RMSD from reference structure       = 127.636 A
USER  
USER    Estimated Free Energy of Binding    =  -12.75 kcal/mol  [=(1)+(2)+(3)-(4)]
USER    Estimated Inhibition Constant, Ki   =  451.79 pM (picomolar)  [Temperature = 298.15 K]
USER    
USER    (1) Final Intermolecular Energy     =  -14.54 kcal/mol
USER        vdW + Hbond + desolv Energy     =  -14.54 kcal/mol
USER        Electrostatic Energy            =   +0.00 kcal/mol
USER    (2) Final Total Internal Energy     =   -1.14 kcal/mol
USER    (3) Torsional Free Energy           =   +1.79 kcal/mol
USER    (4) Unbound System's Energy  [=(2)] =   -1.14 kcal/mol
USER    
USER    
USER  
USER    DPF = ligand_dock.biased.dpf
USER    NEWDPF move	ligand.dum.pdbqt
USER    NEWDPF about	0.320000 0.169000 0.303000
USER    NEWDPF tran0	35.774222 13.065810 122.757186
USER    NEWDPF axisangle0	0.878970 -0.473119 0.059753 -104.923258
USER    NEWDPF quaternion0	0.696975 -0.375157 0.047381 -0.609293
USER    NEWDPF dihe0	59.85 40.14 -96.95 -124.21 -98.13 157.24 
USER  
USER                              x       y       z    vdW   Elec        q     RMS 
ATOM      1  C   UNL     1      36.061  15.289 123.471 -0.41 -0.00    +0.000    127.636
ATOM      2  C   UNL     1      36.167  13.892 123.473 -0.50 -0.00    +0.000    127.636
ATOM      3  C   UNL     1      37.376  13.264 123.126 -0.51 -0.00    +0.000    127.636
ATOM      4  C   UNL     1      38.477  14.064 122.759 -0.40 -0.00    +0.000    127.636
ATOM      5  C   UNL     1      38.371  15.457 122.765 -0.31 -0.00    +0.000    127.636
ATOM      6  C   UNL     1      37.169  16.070 123.125 -0.28 -0.00    +0.000    127.636
ATOM      7  CM  UNL     1      37.271  14.673 123.120 +0.00 -0.00    +0.000    127.636
ATOM      8  O   UNL     1      33.509  15.022 124.279 -0.56 -0.00    +0.000    127.636
ATOM      9  S   UNL     1      34.533  16.055 123.900 -0.68 -0.00    +0.000    127.636
ATOM     10  O   UNL     1      34.033  16.830 122.715 -0.48 -0.00    +0.000    127.636
ATOM     11  N   UNL     1      34.763  17.140 125.237 -0.37 -0.00    +0.000    127.636
ATOM     12  H   UNL     1      35.646  17.562 125.342 -0.01 -0.00    +0.000    127.636
ATOM     13  C   UNL     1      33.741  17.457 126.198 -0.35 -0.00    +0.000    127.636
ATOM     14  C   UNL     1      33.110  18.716 126.230 -0.26 -0.00    +0.000    127.636
ATOM     15  C   UNL     1      32.114  18.984 127.174 -0.20 -0.00    +0.000    127.636
ATOM     16  C   UNL     1      31.740  18.004 128.097 -0.25 -0.00    +0.000    127.636
ATOM     17  C   UNL     1      32.364  16.756 128.080 -0.40 -0.00    +0.000    127.636
ATOM     18  C   UNL     1      33.360  16.482 127.137 -0.37 -0.00    +0.000    127.636
ATOM     19  CM  UNL     1      32.738  17.733 127.152 +0.00 -0.00    +0.000    127.636
ATOM     20  C   UNL     1      37.428  11.781 123.123 -0.46 -0.00    +0.000    127.636
ATOM     21  C   UNL     1      36.906  11.021 122.148 -0.59 -0.00    +0.000    127.636
ATOM     22  C   UNL     1      36.960   9.544 122.150 -0.64 -0.00    +0.000    127.636
ATOM     23  N   UNL     1      37.145   8.783 123.351 -0.62 -0.00    +0.000    127.636
ATOM     24  O   UNL     1      36.867   8.939 121.048 -2.66 -0.00    +0.000    127.636
ATOM     25  H   UNL     1      37.334   9.244 124.200 -0.61 -0.00    +0.000    127.636
ATOM     26  O   UNL     1      37.060   7.431 123.321 -2.17 -0.00    +0.000    127.636
ATOM     27  H   UNL     1      37.729   7.078 122.714 -0.43 -0.00    +0.000    127.636
TER
ENDMDL
MODEL        1
USER    Run = 1
USER    Cluster Rank = 2
USER    Number of conformations in this cluster = 7
USER  
USER    RMSD from reference structure       = 126.166 A
USER  
USER    Estimated Free Energy of Binding    =  -12.08 kcal/mol  [=(1)+(2)+(3)-(4)]
USER    Estimated Inhibition Constant, Ki   =    1.40 nM (nanomolar)  [Temperature = 298.15 K]
USER    
USER    (1) Final Intermolecular Energy     =  -13.87 kcal/mol
USER        vdW + Hbond + desolv Energy     =  -13.87 kcal/mol
USER        Electrostatic Energy            =   +0.00 kcal/mol
USER    (2) Final Total Internal Energy     =   -1.68 kcal/mol
USER    (3) Torsional Free Energy           =   +1.79 kcal/mol
USER    (4) Unbound System's Energy  [=(2)] =   -1.68 kcal/mol
USER    
USER    
USER  
USER    DPF = ligand_dock.biased.dpf
USER    NEWDPF move	ligand.dum.pdbqt
USER    NEWDPF about	0.320000 0.169000 0.303000
USER    NEWDPF tran0	35.747764 13.217183 122.243755
USER    NEWDPF axisangle0	0.896962 -0.441794 0.016654 -121.335477
USER    NEWDPF quaternion0	0.781966 -0.385153 0.014519 -0.489873
USER    NEWDPF dihe0	7.73 146.96 105.19 123.10 102.46 -108.63 
USER  
USER                              x       y       z    vdW   Elec        q     RMS 
ATOM      1  C   UNL     1      35.940  15.138 123.589 -0.43 -0.00    +0.000    126.166
ATOM      2  C   UNL     1      36.086  13.803 123.188 -0.44 -0.00    +0.000    126.166
ATOM      3  C   UNL     1      37.326  13.320 122.735 -0.49 -0.00    +0.000    126.166
ATOM      4  C   UNL     1      38.419  14.208 122.674 -0.41 -0.00    +0.000    126.166
ATOM      5  C   UNL     1      38.274  15.537 123.081 -0.29 -0.00    +0.000    126.166
ATOM      6  C   UNL     1      37.041  16.001 123.542 -0.29 -0.00    +0.000    126.166
ATOM      7  CM  UNL     1      37.181  14.668 123.135 +0.00 -0.00    +0.000    126.166
ATOM      8  O   UNL     1      34.294  15.683 125.645 -0.67 -0.00    +0.000    126.166
ATOM      9  S   UNL     1      34.374  15.724 124.145 -0.73 -0.00    +0.000    126.166
ATOM     10  O   UNL     1      33.299  14.846 123.572 -0.57 -0.00    +0.000    126.166
ATOM     11  N   UNL     1      34.123  17.357 123.609 -0.41 -0.00    +0.000    126.166
ATOM     12  H   UNL     1      33.832  18.021 124.275 -0.02 -0.00    +0.000    126.166
ATOM     13  C   UNL     1      34.316  17.796 122.252 -0.34 -0.00    +0.000    126.166
ATOM     14  C   UNL     1      33.256  17.844 121.326 -0.24 -0.00    +0.000    126.166
ATOM     15  C   UNL     1      33.479  18.285 120.018 -0.29 -0.00    +0.000    126.166
ATOM     16  C   UNL     1      34.759  18.676 119.620 -0.21 -0.00    +0.000    126.166
ATOM     17  C   UNL     1      35.819  18.625 120.527 -0.18 -0.00    +0.000    126.166
ATOM     18  C   UNL     1      35.600  18.187 121.836 -0.24 -0.00    +0.000    126.166
ATOM     19  CM  UNL     1      34.538  18.236 120.930 +0.00 -0.00    +0.000    126.166
ATOM     20  C   UNL     1      37.419  11.904 122.302 -0.43 -0.00    +0.000    126.166
ATOM     21  C   UNL     1      36.741  10.902 122.884 -0.67 -0.00    +0.000    126.166
ATOM     22  C   UNL     1      36.838   9.494 122.449 -0.68 -0.00    +0.000    126.166
ATOM     23  N   UNL     1      37.114   8.424 123.363 -0.69 -0.00    +0.000    126.166
ATOM     24  O   UNL     1      36.698   9.233 121.223 -2.61 -0.00    +0.000    126.166
ATOM     25  H   UNL     1      37.339   8.625 124.300 -0.53 -0.00    +0.000    126.166
ATOM     26  O   UNL     1      37.066   7.137 122.941 -1.89 -0.00    +0.000    126.166
ATOM     27  H   UNL     1      36.953   7.117 121.978 -0.10 -0.00    +0.000    126.166
TER
ENDMDL
MODEL       58
USER    Run = 58
USER    Cluster Rank = 3
USER    Number of conformations in this cluster = 1
USER  
USER    RMSD from reference structure       = 123.938 A
USER  
USER    Estimated Free Energy of Binding    =  -11.96 kcal/mol  [=(1)+(2)+(3)-(4)]
USER    Estimated Inhibition Constant, Ki   =    1.71 nM (nanomolar)  [Temperature = 298.15 K]
USER    
USER    (1) Final Intermolecular Energy     =  -13.75 kcal/mol
USER        vdW + Hbond + desolv Energy     =  -13.75 kcal/mol
USER        Electrostatic Energy            =   +0.00 kcal/mol
USER    (2) Final Total Internal Energy     =   -1.49 kcal/mol
USER    (3) Torsional Free Energy           =   +1.79 kcal/mol
USER    (4) Unbound System's Energy  [=(2)] =   -1.49 kcal/mol
USER    
USER    
USER  
USER    DPF = ligand_dock.biased.dpf
USER    NEWDPF move	ligand.dum.pdbqt
USER    NEWDPF about	0.320000 0.169000 0.303000
USER    NEWDPF tran0	36.604328 12.220259 119.879737
USER    NEWDPF axisangle0	-0.956378 -0.270573 0.110144 -173.837407
USER    NEWDPF quaternion0	-0.954995 -0.270182 0.109985 -0.053753
USER    NEWDPF dihe0	4.62 140.90 110.52 179.45 -142.53 -70.87 
USER  
USER                              x       y       z    vdW   Elec        q     RMS 
ATOM      1  C   UNL     1      37.002  11.485 122.079 -0.51 -0.00    +0.000    123.938
ATOM      2  C   UNL     1      37.273  12.000 120.804 -0.46 -0.00    +0.000    123.938
ATOM      3  C   UNL     1      37.536  13.369 120.624 -0.40 -0.00    +0.000    123.938
ATOM      4  C   UNL     1      37.507  14.220 121.747 -0.36 -0.00    +0.000    123.938
ATOM      5  C   UNL     1      37.245  13.703 123.019 -0.48 -0.00    +0.000    123.938
ATOM      6  C   UNL     1      36.998  12.340 123.187 -0.58 -0.00    +0.000    123.938
ATOM      7  CM  UNL     1      37.261  12.853 121.910 +0.00 -0.00    +0.000    123.938
ATOM      8  O   UNL     1      37.439   9.207 123.440 -0.99 -0.00    +0.000    123.938
ATOM      9  S   UNL     1      36.665   9.767 122.280 -0.86 -0.00    +0.000    123.938
ATOM     10  O   UNL     1      37.069   9.046 121.027 -2.72 -0.00    +0.000    123.938
ATOM     11  N   UNL     1      34.969   9.521 122.561 -0.60 -0.00    +0.000    123.938
ATOM     12  H   UNL     1      34.424  10.301 122.812 -0.30 -0.00    +0.000    123.938
ATOM     13  C   UNL     1      34.313   8.244 122.447 -0.62 -0.00    +0.000    123.938
ATOM     14  C   UNL     1      34.026   7.449 123.574 -0.54 -0.00    +0.000    123.938
ATOM     15  C   UNL     1      33.380   6.218 123.425 -0.55 -0.00    +0.000    123.938
ATOM     16  C   UNL     1      33.019   5.766 122.154 -0.46 -0.00    +0.000    123.938
ATOM     17  C   UNL     1      33.305   6.542 121.029 -0.34 -0.00    +0.000    123.938
ATOM     18  C   UNL     1      33.950   7.774 121.174 -0.55 -0.00    +0.000    123.938
ATOM     19  CM  UNL     1      33.665   6.999 122.301 +0.00 -0.00    +0.000    123.938
ATOM     20  C   UNL     1      37.794  13.865 119.249 -0.34 -0.00    +0.000    123.938
ATOM     21  C   UNL     1      37.416  13.212 118.140 -0.40 -0.00    +0.000    123.938
ATOM     22  C   UNL     1      37.676  13.711 116.773 -0.40 -0.00    +0.000    123.938
ATOM     23  N   UNL     1      38.405  12.948 115.803 -0.51 -0.00    +0.000    123.938
ATOM     24  O   UNL     1      37.262  14.861 116.466 -0.22 -0.00    +0.000    123.938
ATOM     25  H   UNL     1      38.832  12.100 116.064 -0.09 -0.00    +0.000    123.938
ATOM     26  O   UNL     1      38.508  13.390 114.526 -0.46 -0.00    +0.000    123.938
ATOM     27  H   UNL     1      38.097  14.265 114.453 -0.01 -0.00    +0.000    123.938
TER
ENDMDL
MODEL       23
USER    Run = 23
USER    Cluster Rank = 4
USER    Number of conformations in this cluster = 27
USER  
USER    RMSD from reference structure       = 127.111 A
USER  
USER    Estimated Free Energy of Binding    =  -11.81 kcal/mol  [=(1)+(2)+(3)-(4)]
USER    Estimated Inhibition Constant, Ki   =    2.19 nM (nanomolar)  [Temperature = 298.15 K]
USER    
USER    (1) Final Intermolecular Energy     =  -13.60 kcal/mol
USER        vdW + Hbond + desolv Energy     =  -13.60 kcal/mol
USER        Electrostatic Energy            =   +0.00 kcal/mol
USER    (2) Final Total Internal Energy     =   -1.48 kcal/mol
USER    (3) Torsional Free Energy           =   +1.79 kcal/mol
USER    (4) Unbound System's Energy  [=(2)] =   -1.48 kcal/mol
USER    
USER    
USER  
USER    DPF = ligand_dock.biased.dpf
USER    NEWDPF move	ligand.dum.pdbqt
USER    NEWDPF about	0.320000 0.169000 0.303000
USER    NEWDPF tran0	38.327869 13.179117 123.652124
USER    NEWDPF axisangle0	-0.004340 0.695719 -0.718301 -132.400222
USER    NEWDPF quaternion0	-0.003971 0.636555 -0.657217 -0.403544
USER    NEWDPF dihe0	16.37 22.72 -104.09 84.03 -121.13 20.50 
USER  
USER                              x       y       z    vdW   Elec        q     RMS 
ATOM      1  C   UNL     1      37.708  15.371 123.063 -0.33 -0.00    +0.000    127.111
ATOM      2  C   UNL     1      37.788  13.973 122.998 -0.45 -0.00    +0.000    127.111
ATOM      3  C   UNL     1      36.696  13.173 123.374 -0.55 -0.00    +0.000    127.111
ATOM      4  C   UNL     1      35.520  13.801 123.835 -0.43 -0.00    +0.000    127.111
ATOM      5  C   UNL     1      35.440  15.195 123.892 -0.48 -0.00    +0.000    127.111
ATOM      6  C   UNL     1      36.527  15.979 123.502 -0.33 -0.00    +0.000    127.111
ATOM      7  CM  UNL     1      36.613  14.582 123.444 +0.00 -0.00    +0.000    127.111
ATOM      8  O   UNL     1      39.334  17.445 123.601 -0.25 -0.00    +0.000    127.111
ATOM      9  S   UNL     1      39.094  16.354 122.595 -0.33 -0.00    +0.000    127.111
ATOM     10  O   UNL     1      38.816  16.974 121.257 -0.12 -0.00    +0.000    127.111
ATOM     11  N   UNL     1      40.517  15.365 122.483 -0.40 -0.00    +0.000    127.111
ATOM     12  H   UNL     1      40.414  14.392 122.591 -0.04 -0.00    +0.000    127.111
ATOM     13  C   UNL     1      41.838  15.883 122.241 -0.39 -0.00    +0.000    127.111
ATOM     14  C   UNL     1      42.559  15.575 121.071 -0.20 -0.00    +0.000    127.111
ATOM     15  C   UNL     1      43.836  16.105 120.867 -0.24 -0.00    +0.000    127.111
ATOM     16  C   UNL     1      44.409  16.942 121.827 -0.26 -0.00    +0.000    127.111
ATOM     17  C   UNL     1      43.708  17.248 122.994 -0.26 -0.00    +0.000    127.111
ATOM     18  C   UNL     1      42.429  16.722 123.202 -0.36 -0.00    +0.000    127.111
ATOM     19  CM  UNL     1      43.130  16.413 122.033 +0.00 -0.00    +0.000    127.111
ATOM     20  C   UNL     1      36.842  11.698 123.308 -0.69 -0.00    +0.000    127.111
ATOM     21  C   UNL     1      36.831  11.001 122.162 -0.61 -0.00    +0.000    127.111
ATOM     22  C   UNL     1      36.977   9.531 122.101 -0.63 -0.00    +0.000    127.111
ATOM     23  N   UNL     1      37.051   8.717 123.279 -0.67 -0.00    +0.000    127.111
ATOM     24  O   UNL     1      37.068   8.984 120.969 -2.72 -0.00    +0.000    127.111
ATOM     25  H   UNL     1      37.097   9.141 124.166 -0.56 -0.00    +0.000    127.111
ATOM     26  O   UNL     1      37.055   7.366 123.174 -2.16 -0.00    +0.000    127.111
ATOM     27  H   UNL     1      37.264   7.114 122.261 -0.15 -0.00    +0.000    127.111
TER
ENDMDL
MODEL       14
USER    Run = 14
USER    Cluster Rank = 5
USER    Number of conformations in this cluster = 35
USER  
USER    RMSD from reference structure       = 125.467 A
USER  
USER    Estimated Free Energy of Binding    =  -11.68 kcal/mol  [=(1)+(2)+(3)-(4)]
USER    Estimated Inhibition Constant, Ki   =    2.74 nM (nanomolar)  [Temperature = 298.15 K]
USER    
USER    (1) Final Intermolecular Energy     =  -13.47 kcal/mol
USER        vdW + Hbond + desolv Energy     =  -13.47 kcal/mol
USER        Electrostatic Energy            =   +0.00 kcal/mol
USER    (2) Final Total Internal Energy     =   -1.74 kcal/mol
USER    (3) Torsional Free Energy           =   +1.79 kcal/mol
USER    (4) Unbound System's Energy  [=(2)] =   -1.74 kcal/mol
USER    
USER    
USER  
USER    DPF = ligand_dock.biased.dpf
USER    NEWDPF move	ligand.dum.pdbqt
USER    NEWDPF about	0.320000 0.169000 0.303000
USER    NEWDPF tran0	38.323717 12.666902 123.257868
USER    NEWDPF axisangle0	0.006027 -0.684703 0.728798 145.582051
USER    NEWDPF quaternion0	0.005758 -0.654050 0.696171 0.295858
USER    NEWDPF dihe0	17.02 -19.18 39.79 124.18 2.81 128.63 
USER  
USER                              x       y       z    vdW   Elec        q     RMS 
ATOM      1  C   UNL     1      37.996  14.923 122.677 -0.36 -0.00    +0.000    125.467
ATOM      2  C   UNL     1      37.830  13.532 122.659 -0.45 -0.00    +0.000    125.467
ATOM      3  C   UNL     1      36.690  12.938 123.228 -0.56 -0.00    +0.000    125.467
ATOM      4  C   UNL     1      35.722  13.765 123.833 -0.48 -0.00    +0.000    125.467
ATOM      5  C   UNL     1      35.886  15.153 123.843 -0.44 -0.00    +0.000    125.467
ATOM      6  C   UNL     1      37.016  15.732 123.262 -0.32 -0.00    +0.000    125.467
ATOM      7  CM  UNL     1      36.857  14.340 123.250 +0.00 -0.00    +0.000    125.467
ATOM      8  O   UNL     1      40.587  14.677 121.995 -0.91 -0.00    +0.000    125.467
ATOM      9  S   UNL     1      39.438  15.646 121.967 -0.39 -0.00    +0.000    125.467
ATOM     10  O   UNL     1      39.806  16.866 122.760 -0.24 -0.00    +0.000    125.467
ATOM     11  N   UNL     1      39.127  16.106 120.321 -0.15 -0.00    +0.000    125.467
ATOM     12  H   UNL     1      39.365  17.020 120.044 +0.00 -0.00    +0.000    125.467
ATOM     13  C   UNL     1      38.542  15.231 119.339 -0.18 -0.00    +0.000    125.467
ATOM     14  C   UNL     1      37.659  14.193 119.695 -0.30 -0.00    +0.000    125.467
ATOM     15  C   UNL     1      37.104  13.368 118.712 -0.39 -0.00    +0.000    125.467
ATOM     16  C   UNL     1      37.426  13.566 117.368 -0.36 -0.00    +0.000    125.467
ATOM     17  C   UNL     1      38.306  14.587 117.004 -0.23 -0.00    +0.000    125.467
ATOM     18  C   UNL     1      38.862  15.415 117.983 -0.14 -0.00    +0.000    125.467
ATOM     19  CM  UNL     1      37.983  14.393 118.350 +0.00 -0.00    +0.000    125.467
ATOM     20  C   UNL     1      36.576  11.458 123.202 -0.70 -0.00    +0.000    125.467
ATOM     21  C   UNL     1      37.029  10.695 122.196 -0.56 -0.00    +0.000    125.467
ATOM     22  C   UNL     1      36.912   9.222 122.175 -0.68 -0.00    +0.000    125.467
ATOM     23  N   UNL     1      37.064   8.422 123.355 -0.70 -0.00    +0.000    125.467
ATOM     24  O   UNL     1      36.699   8.653 121.071 -2.44 -0.00    +0.000    125.467
ATOM     25  H   UNL     1      37.344   8.842 124.201 -0.57 -0.00    +0.000    125.467
ATOM     26  O   UNL     1      36.822   7.089 123.311 -1.80 -0.00    +0.000    125.467
ATOM     27  H   UNL     1      36.823   6.791 122.389 -0.12 -0.00    +0.000    125.467
TER
ENDMDL
MODEL       93
USER    Run = 93
USER    Cluster Rank = 6
USER    Number of conformations in this cluster = 3
USER  
USER    RMSD from reference structure       = 127.818 A
USER  
USER    Estimated Free Energy of Binding    =  -11.46 kcal/mol  [=(1)+(2)+(3)-(4)]
USER    Estimated Inhibition Constant, Ki   =    3.99 nM (nanomolar)  [Temperature = 298.15 K]
USER    
USER    (1) Final Intermolecular Energy     =  -13.25 kcal/mol
USER        vdW + Hbond + desolv Energy     =  -13.25 kcal/mol
USER        Electrostatic Energy            =   +0.00 kcal/mol
USER    (2) Final Total Internal Energy     =   -1.53 kcal/mol
USER    (3) Torsional Free Energy           =   +1.79 kcal/mol
USER    (4) Unbound System's Energy  [=(2)] =   -1.53 kcal/mol
USER    
USER    
USER  
USER    DPF = ligand_dock.biased.dpf
USER    NEWDPF move	ligand.dum.pdbqt
USER    NEWDPF about	0.320000 0.169000 0.303000
USER    NEWDPF tran0	38.633535 12.910881 123.678583
USER    NEWDPF axisangle0	-0.065169 -0.651391 0.755938 137.089585
USER    NEWDPF quaternion0	-0.060653 -0.606252 0.703554 0.365774
USER    NEWDPF dihe0	34.30 -4.00 71.82 93.73 120.36 -135.57 
USER  
USER                              x       y       z    vdW   Elec        q     RMS 
ATOM      1  C   UNL     1      38.430  15.141 122.959 -0.30 -0.00    +0.000    127.818
ATOM      2  C   UNL     1      38.275  13.749 122.958 -0.40 -0.00    +0.000    127.818
ATOM      3  C   UNL     1      37.043  13.163 123.295 -0.53 -0.00    +0.000    127.818
ATOM      4  C   UNL     1      35.966  14.002 123.651 -0.49 -0.00    +0.000    127.818
ATOM      5  C   UNL     1      36.121  15.390 123.645 -0.40 -0.00    +0.000    127.818
ATOM      6  C   UNL     1      37.346  15.961 123.295 -0.29 -0.00    +0.000    127.818
ATOM      7  CM  UNL     1      37.197  14.568 123.300 +0.00 -0.00    +0.000    127.818
ATOM      8  O   UNL     1      40.288  15.656 121.084 -0.27 -0.00    +0.000    127.818
ATOM      9  S   UNL     1      39.987  15.854 122.543 -0.43 -0.00    +0.000    127.818
ATOM     10  O   UNL     1      41.056  15.188 123.360 -0.70 +0.00    +0.000    127.818
ATOM     11  N   UNL     1      39.978  17.556 122.892 -0.18 -0.00    +0.000    127.818
ATOM     12  H   UNL     1      40.024  18.183 122.135 +0.01 -0.00    +0.000    127.818
ATOM     13  C   UNL     1      39.906  18.102 124.222 -0.22 -0.00    +0.000    127.818
ATOM     14  C   UNL     1      40.892  17.836 125.193 -0.29 -0.00    +0.000    127.818
ATOM     15  C   UNL     1      40.793  18.392 126.471 -0.33 -0.00    +0.000    127.818
ATOM     16  C   UNL     1      39.712  19.214 126.797 -0.18 -0.00    +0.000    127.818
ATOM     17  C   UNL     1      38.725  19.479 125.845 -0.13 -0.00    +0.000    127.818
ATOM     18  C   UNL     1      38.821  18.926 124.564 -0.14 -0.00    +0.000    127.818
ATOM     19  CM  UNL     1      39.809  18.658 125.515 +0.00 -0.00    +0.000    127.818
ATOM     20  C   UNL     1      36.940  11.683 123.300 -0.68 -0.00    +0.000    127.818
ATOM     21  C   UNL     1      37.065  10.925 122.199 -0.55 -0.00    +0.000    127.818
ATOM     22  C   UNL     1      36.961   9.451 122.209 -0.65 -0.00    +0.000    127.818
ATOM     23  N   UNL     1      37.183   8.674 123.393 -0.63 -0.00    +0.000    127.818
ATOM     24  O   UNL     1      36.696   8.861 121.128 -2.62 -0.00    +0.000    127.818
ATOM     25  H   UNL     1      37.503   9.111 124.215 -0.62 -0.00    +0.000    127.818
ATOM     26  O   UNL     1      36.953   7.338 123.384 -2.07 -0.00    +0.000    127.818
ATOM     27  H   UNL     1      37.175   6.978 122.512 -0.16 -0.00    +0.000    127.818
TER
ENDMDL
MODEL       43
USER    Run = 43
USER    Cluster Rank = 7
USER    Number of conformations in this cluster = 2
USER  
USER    RMSD from reference structure       = 126.432 A
USER  
USER    Estimated Free Energy of Binding    =  -11.35 kcal/mol  [=(1)+(2)+(3)-(4)]
USER    Estimated Inhibition Constant, Ki   =    4.82 nM (nanomolar)  [Temperature = 298.15 K]
USER    
USER    (1) Final Intermolecular Energy     =  -13.14 kcal/mol
USER        vdW + Hbond + desolv Energy     =  -13.14 kcal/mol
USER        Electrostatic Energy            =   +0.00 kcal/mol
USER    (2) Final Total Internal Energy     =   -1.41 kcal/mol
USER    (3) Torsional Free Energy           =   +1.79 kcal/mol
USER    (4) Unbound System's Energy  [=(2)] =   -1.41 kcal/mol
USER    
USER    
USER  
USER    DPF = ligand_dock.biased.dpf
USER    NEWDPF move	ligand.dum.pdbqt
USER    NEWDPF about	0.320000 0.169000 0.303000
USER    NEWDPF tran0	36.467500 13.147427 121.847645
USER    NEWDPF axisangle0	-0.831860 -0.051915 0.552553 78.263563
USER    NEWDPF quaternion0	-0.524992 -0.032764 0.348719 0.775696
USER    NEWDPF dihe0	15.04 166.19 19.53 -173.46 -97.35 -14.87 
USER  
USER                              x       y       z    vdW   Elec        q     RMS 
ATOM      1  C   UNL     1      37.105  15.367 121.399 -0.23 -0.00    +0.000    126.432
ATOM      2  C   UNL     1      37.223  13.980 121.555 -0.34 -0.00    +0.000    126.432
ATOM      3  C   UNL     1      37.330  13.138 120.434 -0.42 -0.00    +0.000    126.432
ATOM      4  C   UNL     1      37.298  13.712 119.147 -0.36 -0.00    +0.000    126.432
ATOM      5  C   UNL     1      37.188  15.097 118.994 -0.22 -0.00    +0.000    126.432
ATOM      6  C   UNL     1      37.097  15.924 120.115 -0.17 -0.00    +0.000    126.432
ATOM      7  CM  UNL     1      37.207  14.536 120.274 +0.00 -0.00    +0.000    126.432
ATOM      8  O   UNL     1      36.606  17.807 122.416 -0.18 -0.00    +0.000    126.432
ATOM      9  S   UNL     1      36.964  16.403 122.817 -0.36 -0.00    +0.000    126.432
ATOM     10  O   UNL     1      38.281  16.418 123.537 -0.32 -0.00    +0.000    126.432
ATOM     11  N   UNL     1      35.737  15.790 123.884 -0.42 -0.00    +0.000    126.432
ATOM     12  H   UNL     1      35.575  14.820 123.893 -0.03 -0.00    +0.000    126.432
ATOM     13  C   UNL     1      34.944  16.618 124.754 -0.39 -0.00    +0.000    126.432
ATOM     14  C   UNL     1      34.984  18.024 124.689 -0.30 -0.00    +0.000    126.432
ATOM     15  C   UNL     1      34.192  18.795 125.546 -0.27 -0.00    +0.000    126.432
ATOM     16  C   UNL     1      33.358  18.173 126.477 -0.30 -0.00    +0.000    126.432
ATOM     17  C   UNL     1      33.316  16.780 126.557 -0.32 -0.00    +0.000    126.432
ATOM     18  C   UNL     1      34.105  16.005 125.701 -0.35 -0.00    +0.000    126.432
ATOM     19  CM  UNL     1      34.150  17.399 125.620 -0.24 -0.00    +0.000    126.432
ATOM     20  C   UNL     1      37.430  11.674 120.655 -0.49 -0.00    +0.000    126.432
ATOM     21  C   UNL     1      36.915  11.046 121.724 -0.54 -0.00    +0.000    126.432
ATOM     22  C   UNL     1      37.018   9.588 121.940 -0.61 -0.00    +0.000    126.432
ATOM     23  N   UNL     1      37.105   9.009 123.249 -0.62 -0.00    +0.000    126.432
ATOM     24  O   UNL     1      37.057   8.834 120.931 -2.70 -0.00    +0.000    126.432
ATOM     25  H   UNL     1      37.191   9.591 124.038 -0.54 -0.00    +0.000    126.432
ATOM     26  O   UNL     1      37.068   7.663 123.402 -2.27 -0.00    +0.000    126.432
ATOM     27  H   UNL     1      37.220   7.236 122.545 -0.13 -0.00    +0.000    126.432
TER
ENDMDL
MODEL        6
USER    Run = 6
USER    Cluster Rank = 8
USER    Number of conformations in this cluster = 4
USER  
USER    RMSD from reference structure       = 126.350 A
USER  
USER    Estimated Free Energy of Binding    =  -11.05 kcal/mol  [=(1)+(2)+(3)-(4)]
USER    Estimated Inhibition Constant, Ki   =    7.92 nM (nanomolar)  [Temperature = 298.15 K]
USER    
USER    (1) Final Intermolecular Energy     =  -12.84 kcal/mol
USER        vdW + Hbond + desolv Energy     =  -12.84 kcal/mol
USER        Electrostatic Energy            =   +0.00 kcal/mol
USER    (2) Final Total Internal Energy     =   -1.68 kcal/mol
USER    (3) Torsional Free Energy           =   +1.79 kcal/mol
USER    (4) Unbound System's Energy  [=(2)] =   -1.68 kcal/mol
USER    
USER    
USER  
USER    DPF = ligand_dock.biased.dpf
USER    NEWDPF move	ligand.dum.pdbqt
USER    NEWDPF about	0.320000 0.169000 0.303000
USER    NEWDPF tran0	36.462732 13.138648 122.038585
USER    NEWDPF axisangle0	0.787327 0.140744 -0.600256 -78.919810
USER    NEWDPF quaternion0	0.500376 0.089448 -0.381486 -0.772070
USER    NEWDPF dihe0	25.11 171.78 -158.45 -169.57 -5.05 144.91 
USER  
USER                              x       y       z    vdW   Elec        q     RMS 
ATOM      1  C   UNL     1      37.015  15.364 121.513 -0.23 -0.00    +0.000    126.350
ATOM      2  C   UNL     1      37.164  13.978 121.646 -0.35 -0.00    +0.000    126.350
ATOM      3  C   UNL     1      37.119  13.139 120.519 -0.40 -0.00    +0.000    126.350
ATOM      4  C   UNL     1      36.904  13.717 119.250 -0.34 -0.00    +0.000    126.350
ATOM      5  C   UNL     1      36.763  15.101 119.119 -0.21 -0.00    +0.000    126.350
ATOM      6  C   UNL     1      36.823  15.924 120.245 -0.16 -0.00    +0.000    126.350
ATOM      7  CM  UNL     1      36.965  14.537 120.382 +0.00 -0.00    +0.000    126.350
ATOM      8  O   UNL     1      37.026  15.567 124.195 -0.31 -0.00    +0.000    126.350
ATOM      9  S   UNL     1      37.065  16.395 122.941 -0.36 -0.00    +0.000    126.350
ATOM     10  O   UNL     1      35.873  17.308 122.919 -0.27 -0.00    +0.000    126.350
ATOM     11  N   UNL     1      38.516  17.350 122.939 -0.18 -0.00    +0.000    126.350
ATOM     12  H   UNL     1      38.424  18.330 122.963 +0.00 -0.00    +0.000    126.350
ATOM     13  C   UNL     1      39.842  16.794 122.903 -0.24 -0.00    +0.000    126.350
ATOM     14  C   UNL     1      40.989  17.584 123.114 -0.24 -0.00    +0.000    126.350
ATOM     15  C   UNL     1      42.262  17.006 123.081 -0.35 -0.00    +0.000    126.350
ATOM     16  C   UNL     1      42.405  15.640 122.832 -0.40 -0.00    +0.000    126.350
ATOM     17  C   UNL     1      41.276  14.848 122.613 -0.50 -0.00    +0.000    126.350
ATOM     18  C   UNL     1      40.001  15.421 122.647 -0.33 -0.00    +0.000    126.350
ATOM     19  CM  UNL     1      41.129  16.216 122.866 +0.00 -0.00    +0.000    126.350
ATOM     20  C   UNL     1      37.261  11.676 120.719 -0.46 -0.00    +0.000    126.350
ATOM     21  C   UNL     1      36.836  11.031 121.816 -0.57 -0.00    +0.000    126.350
ATOM     22  C   UNL     1      36.979   9.573 122.010 -0.63 -0.00    +0.000    126.350
ATOM     23  N   UNL     1      37.054   8.975 123.311 -0.62 -0.00    +0.000    126.350
ATOM     24  O   UNL     1      37.065   8.837 120.990 -2.70 -0.00    +0.000    126.350
ATOM     25  H   UNL     1      37.104   9.546 124.112 -0.56 -0.00    +0.000    126.350
ATOM     26  O   UNL     1      37.056   7.626 123.442 -2.24 -0.00    +0.000    126.350
ATOM     27  H   UNL     1      37.394   7.223 122.628 -0.20 -0.00    +0.000    126.350
TER
ENDMDL
MODEL       80
USER    Run = 80
USER    Cluster Rank = 9
USER    Number of conformations in this cluster = 2
USER  
USER    RMSD from reference structure       = 123.963 A
USER  
USER    Estimated Free Energy of Binding    =  -10.58 kcal/mol  [=(1)+(2)+(3)-(4)]
USER    Estimated Inhibition Constant, Ki   =   17.67 nM (nanomolar)  [Temperature = 298.15 K]
USER    
USER    (1) Final Intermolecular Energy     =  -12.37 kcal/mol
USER        vdW + Hbond + desolv Energy     =  -12.37 kcal/mol
USER        Electrostatic Energy            =   +0.00 kcal/mol
USER    (2) Final Total Internal Energy     =   -1.61 kcal/mol
USER    (3) Torsional Free Energy           =   +1.79 kcal/mol
USER    (4) Unbound System's Energy  [=(2)] =   -1.61 kcal/mol
USER    
USER    
USER  
USER    DPF = ligand_dock.biased.dpf
USER    NEWDPF move	ligand.dum.pdbqt
USER    NEWDPF about	0.320000 0.169000 0.303000
USER    NEWDPF tran0	37.632523 12.988229 121.176109
USER    NEWDPF axisangle0	-0.328448 0.707102 -0.626202 171.140437
USER    NEWDPF quaternion0	-0.327467 0.704990 -0.624331 0.077237
USER    NEWDPF dihe0	8.94 -19.58 56.04 -177.15 -72.13 69.21 
USER  
USER                              x       y       z    vdW   Elec        q     RMS 
ATOM      1  C   UNL     1      37.046  15.261 121.023 -0.21 -0.00    +0.000    123.963
ATOM      2  C   UNL     1      36.894  13.884 121.228 -0.18 -0.00    +0.000    123.963
ATOM      3  C   UNL     1      36.750  13.363 122.526 -0.46 -0.00    +0.000    123.963
ATOM      4  C   UNL     1      36.777  14.250 123.621 -0.40 -0.00    +0.000    123.963
ATOM      5  C   UNL     1      36.921  15.625 123.414 -0.34 -0.00    +0.000    123.963
ATOM      6  C   UNL     1      37.050  16.131 122.120 -0.22 -0.00    +0.000    123.963
ATOM      7  CM  UNL     1      36.906  14.752 122.322 +0.00 -0.00    +0.000    123.963
ATOM      8  O   UNL     1      38.678  15.850 118.968 -0.16 -0.00    +0.000    123.963
ATOM      9  S   UNL     1      37.236  15.892 119.389 -0.23 -0.00    +0.000    123.963
ATOM     10  O   UNL     1      36.757  17.314 119.361 -0.12 -0.00    +0.000    123.963
ATOM     11  N   UNL     1      36.294  14.951 118.272 -0.24 -0.00    +0.000    123.963
ATOM     12  H   UNL     1      35.333  14.843 118.455 -0.02 -0.00    +0.000    123.963
ATOM     13  C   UNL     1      36.836  14.319 117.098 -0.30 -0.00    +0.000    123.963
ATOM     14  C   UNL     1      38.048  13.602 117.128 -0.26 -0.00    +0.000    123.963
ATOM     15  C   UNL     1      38.539  12.994 115.968 -0.46 -0.00    +0.000    123.963
ATOM     16  C   UNL     1      37.830  13.098 114.769 -0.40 -0.00    +0.000    123.963
ATOM     17  C   UNL     1      36.632  13.813 114.726 -0.30 -0.00    +0.000    123.963
ATOM     18  C   UNL     1      36.137  14.422 115.884 -0.26 -0.00    +0.000    123.963
ATOM     19  CM  UNL     1      37.337  13.708 115.929 +0.00 -0.00    +0.000    123.963
ATOM     20  C   UNL     1      36.615  11.894 122.688 -0.65 -0.00    +0.000    123.963
ATOM     21  C   UNL     1      37.066  11.002 121.793 -0.53 -0.00    +0.000    123.963
ATOM     22  C   UNL     1      36.929   9.540 121.959 -0.64 -0.00    +0.000    123.963
ATOM     23  N   UNL     1      37.068   8.896 123.232 -0.65 -0.00    +0.000    123.963
ATOM     24  O   UNL     1      36.710   8.838 120.936 -2.62 -0.00    +0.000    123.963
ATOM     25  H   UNL     1      37.352   9.416 124.018 -0.53 -0.00    +0.000    123.963
ATOM     26  O   UNL     1      36.808   7.572 123.357 -2.13 -0.00    +0.000    123.963
ATOM     27  H   UNL     1      36.679   7.183 122.478 -0.05 -0.00    +0.000    123.963
TER
ENDMDL
MODEL       54
USER    Run = 54
USER    Cluster Rank = 10
USER    Number of conformations in this cluster = 1
USER  
USER    RMSD from reference structure       = 122.845 A
USER  
USER    Estimated Free Energy of Binding    =  -10.19 kcal/mol  [=(1)+(2)+(3)-(4)]
USER    Estimated Inhibition Constant, Ki   =   33.70 nM (nanomolar)  [Temperature = 298.15 K]
USER    
USER    (1) Final Intermolecular Energy     =  -11.98 kcal/mol
USER        vdW + Hbond + desolv Energy     =  -11.98 kcal/mol
USER        Electrostatic Energy            =   +0.00 kcal/mol
USER    (2) Final Total Internal Energy     =   -1.60 kcal/mol
USER    (3) Torsional Free Energy           =   +1.79 kcal/mol
USER    (4) Unbound System's Energy  [=(2)] =   -1.60 kcal/mol
USER    
USER    
USER  
USER    DPF = ligand_dock.biased.dpf
USER    NEWDPF move	ligand.dum.pdbqt
USER    NEWDPF about	0.320000 0.169000 0.303000
USER    NEWDPF tran0	37.195915 12.511076 118.630190
USER    NEWDPF axisangle0	-0.553248 0.615043 -0.561817 149.041359
USER    NEWDPF quaternion0	-0.533180 0.592734 -0.541438 0.266891
USER    NEWDPF dihe0	34.24 159.29 117.81 46.80 4.59 -29.41 
USER  
USER                              x       y       z    vdW   Elec        q     RMS 
ATOM      1  C   UNL     1      36.307  14.689 118.668 -0.21 -0.00    +0.000    122.845
ATOM      2  C   UNL     1      36.495  13.348 119.028 -0.30 -0.00    +0.000    122.845
ATOM      3  C   UNL     1      37.178  13.010 120.209 -0.42 -0.00    +0.000    122.845
ATOM      4  C   UNL     1      37.688  14.045 121.019 -0.35 -0.00    +0.000    122.845
ATOM      5  C   UNL     1      37.492  15.382 120.663 -0.21 -0.00    +0.000    122.845
ATOM      6  C   UNL     1      36.800  15.705 119.494 -0.17 -0.00    +0.000    122.845
ATOM      7  CM  UNL     1      36.993  14.363 119.847 +0.00 -0.00    +0.000    122.845
ATOM      8  O   UNL     1      35.277  16.577 117.053 -0.14 -0.00    +0.000    122.845
ATOM      9  S   UNL     1      35.456  15.089 117.179 -0.32 -0.00    +0.000    122.845
ATOM     10  O   UNL     1      34.106  14.433 117.203 -0.33 -0.00    +0.000    122.845
ATOM     11  N   UNL     1      36.349  14.509 115.806 -0.24 -0.00    +0.000    122.845
ATOM     12  H   UNL     1      35.861  14.000 115.119 -0.01 -0.00    +0.000    122.845
ATOM     13  C   UNL     1      37.758  14.729 115.614 -0.24 -0.00    +0.000    122.845
ATOM     14  C   UNL     1      38.704  13.699 115.781 -0.42 -0.00    +0.000    122.845
ATOM     15  C   UNL     1      40.065  13.949 115.576 -0.27 -0.00    +0.000    122.845
ATOM     16  C   UNL     1      40.495  15.225 115.209 -0.28 -0.00    +0.000    122.845
ATOM     17  C   UNL     1      39.568  16.256 115.048 -0.16 -0.00    +0.000    122.845
ATOM     18  C   UNL     1      38.206  16.011 115.250 -0.12 -0.00    +0.000    122.845
ATOM     19  CM  UNL     1      39.132  14.978 115.413 +0.00 -0.00    +0.000    122.845
ATOM     20  C   UNL     1      37.369  11.574 120.531 -0.42 -0.00    +0.000    122.845
ATOM     21  C   UNL     1      36.772  10.957 121.562 -0.49 -0.00    +0.000    122.845
ATOM     22  C   UNL     1      36.965   9.527 121.878 -0.62 -0.00    +0.000    122.845
ATOM     23  N   UNL     1      37.071   9.045 123.224 -0.64 -0.00    +0.000    122.845
ATOM     24  O   UNL     1      37.067   8.710 120.923 -2.57 -0.00    +0.000    122.845
ATOM     25  H   UNL     1      37.108   9.683 123.972 -0.50 -0.00    +0.000    122.845
ATOM     26  O   UNL     1      37.118   7.713 123.469 -2.26 -0.00    +0.000    122.845
ATOM     27  H   UNL     1      37.593   7.269 122.750 -0.30 -0.00    +0.000    122.845
TER
ENDMDL


AVSFLD: # AVS field file
AVSFLD: #
AVSFLD: # Created by AutoDock
AVSFLD: #
AVSFLD: ndim=2           # number of dimensions in the field
AVSFLD: nspace=1         # number of physical coordinates
AVSFLD: veclen=7         # vector size
AVSFLD: dim1=27          # atoms
AVSFLD: dim2=10          # conformations
AVSFLD: data=Real       # data type (byte,integer,Real,double)
AVSFLD: field=uniform    # field coordinate layout
AVSFLD: label= x y z vdW Elec q RMS
AVSFLD: variable 1 file = ligand_dock.biased.dlg.pdb filetype = ascii offset = 5 stride = 12
AVSFLD: variable 2 file = ligand_dock.biased.dlg.pdb filetype = ascii offset = 6 stride = 12
AVSFLD: variable 3 file = ligand_dock.biased.dlg.pdb filetype = ascii offset = 7 stride = 12
AVSFLD: variable 4 file = ligand_dock.biased.dlg.pdb filetype = ascii offset = 8 stride = 12
AVSFLD: variable 5 file = ligand_dock.biased.dlg.pdb filetype = ascii offset = 9 stride = 12
AVSFLD: variable 6 file = ligand_dock.biased.dlg.pdb filetype = ascii offset = 10 stride = 12
AVSFLD: variable 7 file = ligand_dock.biased.dlg.pdb filetype = ascii offset = 11 stride = 12
AVSFLD: # end of file

>>> Closing the docking parameter file (DPF)...
This docking finished at:			6:51 49" p.m., 11/08/2024


________________________________________________________________________________

autodock4: Successful Completion on "ThinkStation-P620"

Real= 12m 42.75s,  CPU= 12m 42.47s,  System= 0.20s
________________________________________________________________________________

