REMARK  Name = 
REMARK  6 active torsions:
REMARK  status: ('A' for Active; 'I' for Inactive)
REMARK    1  A    between atoms: C_2  and  C_5
REMARK    2  A    between atoms: C_5  and  C_6
REMARK    3  A    between atoms: C_6  and  C_7
REMARK    4  A    between atoms: C_7  and  C_8
REMARK    5  A    between atoms: C_8  and  C_9
REMARK    6  A    between atoms: C_9  and  N_10
REMARK                            x       y       z     vdW  Elec       q    Type
REMARK                         _______ _______ _______ _____ _____    ______ ____
ROOT
ATOM      1  N   UNL     1       3.850   1.477   7.012  0.00  0.00     0.000 N 
ATOM      2  C   UNL     1       2.558   1.552   6.381  0.00  0.00     0.000 C 
ATOM      3  C   UNL     1       1.393   0.875   6.995  0.00  0.00     0.000 A 
ATOM      4  C   UNL     1       0.120   0.967   6.405  0.00  0.00     0.000 A 
ATOM      5  C   UNL     1      -0.978   0.328   6.983  0.00  0.00     0.000 A 
ATOM      6  C   UNL     1      -0.826  -0.411   8.155  0.00  0.00     0.000 A 
ATOM      7  C   UNL     1       0.434  -0.519   8.763  0.00  0.00     0.000 A 
ATOM      8  C   UNL     1       0.587  -1.264   9.940  0.00  0.00     0.000 A 
ATOM      9  C   UNL     1       1.840  -1.375  10.543  0.00  0.00     0.000 A 
ATOM     10  C   UNL     1       2.950  -0.743   9.980  0.00  0.00     0.000 A 
ATOM     11  C   UNL     1       2.822   0.011   8.800  0.00  0.00     0.000 A 
ATOM     12  C   UNL     1       1.556   0.127   8.183  0.00  0.00     0.000 A 
ATOM     13  O   UNL     1       2.417   2.193   5.303  0.00  0.00     0.000 OA
ATOM     14  C   UNL     1       4.001   0.681   8.204  0.00  0.00     0.000 C 
ATOM     15  O   UNL     1       5.136   0.551   8.738  0.00  0.00     0.000 OA
ATOM     26  CM  UNL     1       2.728   0.806   7.580  1.00  0.00     0.000 AC
ATOM     27  CM  UNL     1       0.283   0.228   7.581  1.00  0.00     0.000 AC
ATOM     28  CM  UNL     1       1.698  -0.627   9.368  1.00  0.00     0.000 AC
ENDROOT
BRANCH   1  16
ATOM     16  C   UNL     1       5.020   2.115   6.392  0.00  0.00     0.000 C 
BRANCH  16  17
ATOM     17  C   UNL     1       4.972   1.943   4.871  0.00  0.00     0.000 C 
BRANCH  17  18
ATOM     18  C   UNL     1       6.265   2.443   4.218  0.00  0.00     0.000 C 
BRANCH  18  19
ATOM     19  C   UNL     1       6.617   1.601   2.982  0.00  0.00     0.000 C 
BRANCH  19  20
ATOM     20  C   UNL     1       7.278   2.437   1.877  0.00  0.00     0.000 C 
BRANCH  20  22
ATOM     21  O   UNL     1       6.400   1.563  -0.166  0.00  0.00     0.000 OA
ATOM     22  C   UNL     1       7.378   2.336   0.383  0.00  0.00     0.000 C 
ATOM     23  N   UNL     1       7.492   3.516  -0.416  0.00  0.00     0.000 N 
ATOM     24  O   UNL     1       7.565   3.426  -1.764  0.00  0.00     0.000 OA
ATOM     25  H   UNL     1       7.518   4.400   0.017  0.00  0.00     0.000 HD
ENDBRANCH  20  22
ENDBRANCH  19  20
ENDBRANCH  18  19
ENDBRANCH  17  18
ENDBRANCH  16  17
ENDBRANCH   1  16
TORSDOF 6