          AutoDock 4.2 Release 4.2.6   
         (C) 1989-2012 The Scripps Research Institute
        AutoDock comes with ABSOLUTELY NO WARRANTY.
        AutoDock is free software, and you are welcome
        to redistribute it under certain conditions;
        for details type 'autodock4 -C'

                     main.cc  $Revision: 1.213 $

                   Compiled on Feb 20 2022 at 09:48:33


This file was created at:			5:06 21" p.m., 11/03/2024
                   on host:		"ThinkStation-P620"
Current Working Directory = "/home/antonio/Documenti/buccheri/IDROSSAMICO HDAC/HDAC 4/DP/Ligand_6"

      ________________________________________________________________

                   SETTING UP DEFAULT PARAMETER LIBRARY
      ________________________________________________________________


Random number generator was seeded with values 24278, 1730649981.
Docking parameter file (DPF) used for this docking:		ligand_dock.biased.dpf
DPF> autodock_parameter_version 4.2       # used by autodock to validate parameter set

	Autodock parameter version 4.2.
DPF> outlev 1                             # diagnostic output level

Output Level = 1  ADT-COMPATIBLE OUTPUT DURING DOCKING.
DPF> intelec                              # calculate internal electrostatics

Electrostatic energies will be calculated for all non-bonds between moving atoms.
DPF> seed pid time                        # seeds for random generator

Random number generator was seeded with values 24278, 1730649981.
DPF> ligand_types A C HD OA N             # atoms types in ligand

DPF> fld receptor.maps.fld                # grid_data_file

Opening Grid Map Dimensions file:		receptor.maps.fld
Grid Point Spacing =				0.375 Angstroms

Even Number of User-specified Grid Points =	70 x-points
						70 y-points
						70 z-points

Coordinates of Central Grid Point of Maps =	(19.141, -8.645, -3.505)
Macromolecule file used to create Grid Maps =	receptor.pdbqt
Grid Parameter file used to create Grid Maps =	receptor.gpf
Minimum coordinates in grid = (6.016, -21.770, -16.630)
Maximum coordinates in grid = (32.266, 4.480, 9.620)

DPF> map receptor.A.map                   # atom-specific affinity map

DPF> map receptor.C.map                   # atom-specific affinity map

DPF> map receptor.HD.map                  # atom-specific affinity map

DPF> map receptor.OA.biased.map

DPF> map receptor.N.map                   # atom-specific affinity map

DPF> elecmap receptor.e.map               # electrostatics map

DPF> desolvmap receptor.d.map             # desolvation map

DPF> move ligand.pdbqt                    # small molecule

1,4-interactions will be _ignored_ in the non-bonded internal energy calculation.

Ligand PDBQT file = "ligand.pdbqt"

INPUT LIGAND PDBQT FILE:
________________________

INPUT-LIGAND-PDBQT: REMARK  Name = 
INPUT-LIGAND-PDBQT: REMARK  6 active torsions:
INPUT-LIGAND-PDBQT: REMARK  status: ('A' for Active; 'I' for Inactive)
INPUT-LIGAND-PDBQT: REMARK    1  A    between atoms: C_2  and  C_5
INPUT-LIGAND-PDBQT: REMARK    2  A    between atoms: C_5  and  C_6
INPUT-LIGAND-PDBQT: REMARK    3  A    between atoms: C_6  and  C_7
INPUT-LIGAND-PDBQT: REMARK    4  A    between atoms: C_7  and  C_8
INPUT-LIGAND-PDBQT: REMARK    5  A    between atoms: C_8  and  C_9
INPUT-LIGAND-PDBQT: REMARK    6  A    between atoms: C_9  and  N_10
INPUT-LIGAND-PDBQT: REMARK                            x       y       z     vdW  Elec       q    Type
INPUT-LIGAND-PDBQT: REMARK                         _______ _______ _______ _____ _____    ______ ____
INPUT-LIGAND-PDBQT: ROOT
INPUT-LIGAND-PDBQT: ATOM      1  N   UNL     1      -0.614   0.769  -0.135  0.00  0.00    +0.000 N 
INPUT-LIGAND-PDBQT: ATOM      2  C   UNL     1      -1.357  -0.048  -1.059  0.00  0.00    +0.000 C 
INPUT-LIGAND-PDBQT: ATOM      3  C   UNL     1      -2.807  -0.269  -0.852  0.00  0.00    +0.000 A 
INPUT-LIGAND-PDBQT: ATOM      4  C   UNL     1      -3.550  -1.039  -1.764  0.00  0.00    +0.000 A 
INPUT-LIGAND-PDBQT: ATOM      5  C   UNL     1      -4.916  -1.248  -1.569  0.00  0.00    +0.000 A 
INPUT-LIGAND-PDBQT: ATOM      6  C   UNL     1      -5.562  -0.695  -0.464  0.00  0.00    +0.000 A 
INPUT-LIGAND-PDBQT: ATOM      7  C   UNL     1      -4.843   0.076   0.461  0.00  0.00    +0.000 A 
INPUT-LIGAND-PDBQT: ATOM      8  C   UNL     1      -5.492   0.630   1.573  0.00  0.00    +0.000 A 
INPUT-LIGAND-PDBQT: ATOM      9  C   UNL     1      -4.777   1.394   2.495  0.00  0.00    +0.000 A 
INPUT-LIGAND-PDBQT: ATOM     10  C   UNL     1      -3.410   1.615   2.317  0.00  0.00    +0.000 A 
INPUT-LIGAND-PDBQT: ATOM     11  C   UNL     1      -2.736   1.071   1.209  0.00  0.00    +0.000 A 
INPUT-LIGAND-PDBQT: ATOM     12  C   UNL     1      -3.454   0.295   0.271  0.00  0.00    +0.000 A 
INPUT-LIGAND-PDBQT: ATOM     13  O   UNL     1      -0.774  -0.578  -2.045  0.00  0.00    +0.000 OA
INPUT-LIGAND-PDBQT: ATOM     14  C   UNL     1      -1.286   1.305   1.021  0.00  0.00    +0.000 C 
INPUT-LIGAND-PDBQT: ATOM     15  O   UNL     1      -0.640   1.972   1.876  0.00  0.00    +0.000 OA
INPUT-LIGAND-PDBQT: ENDROOT
INPUT-LIGAND-PDBQT: BRANCH   1  16
INPUT-LIGAND-PDBQT: ATOM     16  C   UNL     1       0.832   0.965  -0.311  0.00  0.00    +0.000 C 
INPUT-LIGAND-PDBQT: BRANCH  16  17
INPUT-LIGAND-PDBQT: ATOM     17  C   UNL     1       1.607  -0.155   0.390  0.00  0.00    +0.000 C 
INPUT-LIGAND-PDBQT: BRANCH  17  18
INPUT-LIGAND-PDBQT: ATOM     18  C   UNL     1       3.119   0.028   0.218  0.00  0.00    +0.000 C 
INPUT-LIGAND-PDBQT: BRANCH  18  19
INPUT-LIGAND-PDBQT: ATOM     19  C   UNL     1       3.892  -1.101   0.916  0.00  0.00    +0.000 C 
INPUT-LIGAND-PDBQT: BRANCH  19  20
INPUT-LIGAND-PDBQT: ATOM     20  C   UNL     1       5.412  -0.906   0.829  0.00  0.00    +0.000 C 
INPUT-LIGAND-PDBQT: BRANCH  20  22
INPUT-LIGAND-PDBQT: ATOM     21  O   UNL     1       6.098  -2.235  -1.035  0.00  0.00    +0.000 OA
INPUT-LIGAND-PDBQT: ATOM     22  C   UNL     1       5.916  -1.076  -0.575  0.00  0.00    +0.000 C 
INPUT-LIGAND-PDBQT: ATOM     23  N   UNL     1       6.158   0.066  -1.400  0.00  0.00    +0.000 N 
INPUT-LIGAND-PDBQT: ATOM     24  O   UNL     1       6.596  -0.088  -2.671  0.00  0.00    +0.000 OA
INPUT-LIGAND-PDBQT: ATOM     25  H   UNL     1       6.004   0.970  -1.042  0.00  0.00    +0.000 HD
INPUT-LIGAND-PDBQT: ENDBRANCH  20  22
INPUT-LIGAND-PDBQT: ENDBRANCH  19  20
INPUT-LIGAND-PDBQT: ENDBRANCH  18  19
INPUT-LIGAND-PDBQT: ENDBRANCH  17  18
INPUT-LIGAND-PDBQT: ENDBRANCH  16  17
INPUT-LIGAND-PDBQT: ENDBRANCH   1  16
INPUT-LIGAND-PDBQT: TORSDOF 6
________________________________________________________________________________

Total charge on ligand                               =	+0.000 e
REMARK  Name = 
REMARK  6 active torsions:
REMARK  status: ('A' for Active; 'I' for Inactive)
REMARK    1  A    between atoms: C_2  and  C_5
REMARK    2  A    between atoms: C_5  and  C_6
REMARK    3  A    between atoms: C_6  and  C_7
REMARK    4  A    between atoms: C_7  and  C_8
REMARK    5  A    between atoms: C_8  and  C_9
REMARK    6  A    between atoms: C_9  and  N_10
REMARK                            x       y       z     vdW  Elec       q    Type
REMARK                         _______ _______ _______ _____ _____    ______ ____


Number of Rotatable Bonds in Small Molecule =	6 torsions
Number of atoms in ligand:  25

Number of non-hydrogen atoms in ligand:  24

Number of vibrational degrees of freedom of ligand:  69


Number of torsional degrees of freedom = 6
Estimated loss of torsional free energy upon binding = +1.7898 kcal/mol


DPF> about -0.023 0.069 -0.054            # small molecule center

Small molecule center of rotation =	(-0.023, +0.069, -0.054)

DPF> tran0 random                         # initial coordinates/A or random

Initial translation =			(29.644, -8.981, -10.221) Angstroms
DPF> quaternion0 random                   # initial orientation

Each run will begin with a new, random initial orientation.
Initial quaternion,  (x,y,z,w) =	( 0.226, -0.691, -0.336, 0.599 ),
DPF> dihe0 random                         # initial dihedrals (relative) or random

DPF> torsdof 6                            # torsional degrees of freedom

Number of torsional degrees of freedom = 6
Free energy coefficient for torsional degrees of freedom = 0.2983, the factory default value.

Estimated loss of torsional free energy upon binding = +1.7898 kcal/mol

DPF> rmstol 2.0                           # cluster_tolerance/A

Maximum RMS tolerance for conformational cluster analysis = 2.00 Angstroms
DPF> extnrg 1000.0                        # external grid energy

External grid energy (beyond grid map walls) = 1000.00

DPF> e0max 0.0 10000                      # max initial energy; max number of retries

Using user-specified maximum number of retries for simanneal initialization, 10000 retries.
If the simanneal initial energy is greater than e0max, 0.000,
then a new, random initial state will be created.

DPF> ga_pop_size 150                      # number of individuals in population

A population of 150 individuals will be used
DPF> ga_num_evals 2500000                 # maximum number of energy evaluations

There will be at most 2500000 function evaluations used.
DPF> ga_num_generations 27000             # maximum number of generations

The GA will run for at most 27000 generations.
DPF> ga_elitism 1                         # number of top individuals to survive to next generation

The 1 best will be preserved each GA generation.
DPF> ga_mutation_rate 0.02                # rate of gene mutation

The mutation rate is 0.020000.
DPF> ga_crossover_rate 0.8                # rate of crossover

The crossover rate is 0.800000.
DPF> ga_window_size 10                    # 

The GA's selection window is 10 generations.
DPF> ga_cauchy_alpha 0.0                  # Alpha parameter of Cauchy distribution

The alpha parameter (for the Cauchy distribution) is being set to 0.000000.
DPF> ga_cauchy_beta 1.0                   # Beta parameter Cauchy distribution

The beta parameter (for the Cauchy distribution) is being set to 1.000000.
DPF> set_ga                               # set the above parameters for GA or LGA

DPF> sw_max_its 300                       # iterations of Solis & Wets local search

Solis & Wets algorithms will perform at most 300 iterations.
DPF> sw_max_succ 4                        # consecutive successes before changing rho

Solis & Wets algorithms expand rho every 4 in a row successes.
DPF> sw_max_fail 4                        # consecutive failures before changing rho

Solis & Wets algorithms contract rho every 4 in a row failures.
DPF> sw_rho 1.0                           # size of local search space to sample

rho is set to 1.000000.
DPF> sw_lb_rho 0.01                       # lower bound on rho

rho will never get smaller than 0.010000.
DPF> ls_search_freq 0.06                  # probability of performing local search on individual

Local search will be performed with frequency 0.060000.
DPF> set_psw1                             # set the above pseudo-Solis & Wets parameters

Creating a new Local Search object using the pseudo-Solis-Wets algorithm (pSW1) with the current settings.

DPF> unbound_model bound                  # state of unbound ligand

DPF> ga_run 100

centering ligand on specified point: -0.023 0.069 -0.054
Furthest true ligand atom from "about" center is 7.119 Angstroms (maxrad).
Number of requested GA dockings = 100 runs
Unbound model to be used is 'same as bound' [AutoDock 4.2 default].

	BEGINNING GENETIC ALGORITHM DOCKING 1 of 100
Run: 1 Seed: 465285518 1641061252 [ Run 1 of 100 GA/GALS ]
Beginning LAMARCKIAN GENETIC ALGORITHM (LGA), with a maximum of 2500000 energy evaluations.

Final-Value: -13.296


	FINAL GENETIC ALGORITHM DOCKED STATE
	_______________________________________________


Detailed state:  trans 17.742 -10.879 0.046 quatxyzw -0.902256 0.132031 0.245499 -0.328986 center -0.023 0.069 -0.054 ntor 6 68.6402 157.3642 -179.9971 69.4538 -11.1391 -5.5858
State:	 17.742 -10.879   0.046  -0.955  0.140  0.260 -141.586     68.64  157.36 -180.00   69.45  -11.14   -5.59

DOCKED: MODEL        1
DOCKED: USER    Run = 1
DOCKED: USER    DPF = ligand_dock.biased.dpf
DOCKED: USER  
DOCKED: USER    Estimated Free Energy of Binding    =  -10.13 kcal/mol  [=(1)+(2)+(3)-(4)]
DOCKED: USER    Estimated Inhibition Constant, Ki   =   37.31 nM (nanomolar)  [Temperature = 298.15 K]
DOCKED: USER    
DOCKED: USER    (1) Final Intermolecular Energy     =  -11.92 kcal/mol
DOCKED: USER        vdW + Hbond + desolv Energy     =  -11.92 kcal/mol
DOCKED: USER        Electrostatic Energy            =   +0.00 kcal/mol
DOCKED: USER    (2) Final Total Internal Energy     =   -1.37 kcal/mol
DOCKED: USER    (3) Torsional Free Energy           =   +1.79 kcal/mol
DOCKED: USER    (4) Unbound System's Energy  [=(2)] =   -1.37 kcal/mol
DOCKED: USER    
DOCKED: USER    
DOCKED: USER    NEWDPF move ligand.pdbqt
DOCKED: USER    NEWDPF about -0.023000 0.069000 -0.054000
DOCKED: USER    NEWDPF tran0 17.741991 -10.879180 0.046124
DOCKED: USER    NEWDPF quaternion0 -0.902256 0.132031 0.245499 -0.328986
DOCKED: USER    NEWDPF axisangle0 -0.955441 0.139814 0.259970 -141.585575
DOCKED: USER    NEWDPF quat0 -0.955441 0.139814 0.259970 -141.585575
DOCKED: USER    NEWDPF dihe0 68.64 157.36 -180.00 69.45 -11.14 -5.59 
DOCKED: USER  keepresnum = 1 
DOCKED: USER  
DOCKED: REMARK  Name = 
DOCKED: REMARK  6 active torsions:
DOCKED: REMARK  status: ('A' for Active; 'I' for Inactive)
DOCKED: REMARK    1  A    between atoms: C_2  and  C_5
DOCKED: REMARK    2  A    between atoms: C_5  and  C_6
DOCKED: REMARK    3  A    between atoms: C_6  and  C_7
DOCKED: REMARK    4  A    between atoms: C_7  and  C_8
DOCKED: REMARK    5  A    between atoms: C_8  and  C_9
DOCKED: REMARK    6  A    between atoms: C_9  and  N_10
DOCKED: REMARK                            x       y       z     vdW  Elec       q    Type
DOCKED: REMARK                         _______ _______ _______ _____ _____    ______ ____
DOCKED: USER                              x       y       z     vdW  Elec       q    Type
DOCKED: USER                           _______ _______ _______ _____ _____    ______ ____
DOCKED: ROOT
DOCKED: ATOM      1  N   UNL     1      16.992 -11.411   0.043 -0.37 +0.00    +0.000 N 
DOCKED: ATOM      2  C   UNL     1      17.020 -11.351   1.481 -0.45 +0.00    +0.000 C 
DOCKED: ATOM      3  C   UNL     1      15.810 -10.938   2.229 -0.39 +0.00    +0.000 A 
DOCKED: ATOM      4  C   UNL     1      15.815 -10.905   3.635 -0.48 +0.00    +0.000 A 
DOCKED: ATOM      5  C   UNL     1      14.675 -10.515   4.340 -0.31 +0.00    +0.000 A 
DOCKED: ATOM      6  C   UNL     1      13.515 -10.152   3.657 -0.23 +0.00    +0.000 A 
DOCKED: ATOM      7  C   UNL     1      13.485 -10.176   2.255 -0.26 +0.00    +0.000 A 
DOCKED: ATOM      8  C   UNL     1      12.319  -9.808   1.569 -0.18 +0.00    +0.000 A 
DOCKED: ATOM      9  C   UNL     1      12.289  -9.828   0.174 -0.17 +0.00    +0.000 A 
DOCKED: ATOM     10  C   UNL     1      13.419 -10.216  -0.549 -0.22 +0.00    +0.000 A 
DOCKED: ATOM     11  C   UNL     1      14.600 -10.590   0.116 -0.25 +0.00    +0.000 A 
DOCKED: ATOM     12  C   UNL     1      14.638 -10.571   1.529 -0.28 +0.00    +0.000 A 
DOCKED: ATOM     13  O   UNL     1      18.075 -11.648   2.106 -0.60 +0.00    +0.000 OA
DOCKED: ATOM     14  C   UNL     1      15.798 -11.000  -0.651 -0.34 +0.00    +0.000 C 
DOCKED: ATOM     15  O   UNL     1      15.773 -10.986  -1.913 -0.31 -0.00    +0.000 OA
DOCKED: ENDROOT
DOCKED: BRANCH   1  16
DOCKED: ATOM     16  C   UNL     1      18.197 -11.785  -0.710 -0.45 -0.00    +0.000 C 
DOCKED: BRANCH  16  17
DOCKED: ATOM     17  C   UNL     1      18.979 -10.531  -1.114 -0.40 -0.00    +0.000 C 
DOCKED: BRANCH  17  18
DOCKED: ATOM     18  C   UNL     1      20.368 -10.894  -1.652 -0.43 -0.00    +0.000 C 
DOCKED: BRANCH  18  19
DOCKED: ATOM     19  C   UNL     1      21.468 -10.458  -0.672 -0.69 -0.00    +0.000 C 
DOCKED: BRANCH  19  20
DOCKED: ATOM     20  C   UNL     1      20.894  -9.847   0.614 -0.54 -0.00    +0.000 C 
DOCKED: BRANCH  20  22
DOCKED: ATOM     21  O   UNL     1      20.680 -12.113   1.345 -1.44 -0.00    +0.000 OA
DOCKED: ATOM     22  C   UNL     1      20.634 -10.893   1.659 -0.69 -0.00    +0.000 C 
DOCKED: ATOM     23  N   UNL     1      20.369 -10.514   3.012 -0.66 -0.00    +0.000 N 
DOCKED: ATOM     24  O   UNL     1      20.152 -11.457   3.957 -1.21 -0.00    +0.000 OA
DOCKED: ATOM     25  H   UNL     1      20.345  -9.561   3.257 -0.58 -0.00    +0.000 HD
DOCKED: ENDBRANCH  20  22
DOCKED: ENDBRANCH  19  20
DOCKED: ENDBRANCH  18  19
DOCKED: ENDBRANCH  17  18
DOCKED: ENDBRANCH  16  17
DOCKED: ENDBRANCH   1  16
DOCKED: TORSDOF 6
DOCKED: TER
DOCKED: ENDMDL
________________________________________________________________________________


	BEGINNING GENETIC ALGORITHM DOCKING 2 of 100
Run: 2 Seed: 1933020009 1046263176 [ Run 2 of 100 GA/GALS ]
Beginning LAMARCKIAN GENETIC ALGORITHM (LGA), with a maximum of 2500000 energy evaluations.

Final-Value: -13.166


	FINAL GENETIC ALGORITHM DOCKED STATE
	_______________________________________________


Detailed state:  trans 15.768 -10.944 -1.039 quatxyzw 0.057109 -0.035778 -0.997726 -0.000879 center -0.023 0.069 -0.054 ntor 6 -71.2714 -178.4007 28.8498 -62.8832 92.7761 0.3362
State:	 15.768 -10.944  -1.039   0.057 -0.036 -0.998 -179.899    -71.27 -178.40   28.85  -62.88   92.78    0.34

DOCKED: MODEL        2
DOCKED: USER    Run = 2
DOCKED: USER    DPF = ligand_dock.biased.dpf
DOCKED: USER  
DOCKED: USER    Estimated Free Energy of Binding    =   -9.14 kcal/mol  [=(1)+(2)+(3)-(4)]
DOCKED: USER    Estimated Inhibition Constant, Ki   =  198.92 nM (nanomolar)  [Temperature = 298.15 K]
DOCKED: USER    
DOCKED: USER    (1) Final Intermolecular Energy     =  -10.93 kcal/mol
DOCKED: USER        vdW + Hbond + desolv Energy     =  -10.93 kcal/mol
DOCKED: USER        Electrostatic Energy            =   +0.00 kcal/mol
DOCKED: USER    (2) Final Total Internal Energy     =   -2.23 kcal/mol
DOCKED: USER    (3) Torsional Free Energy           =   +1.79 kcal/mol
DOCKED: USER    (4) Unbound System's Energy  [=(2)] =   -2.23 kcal/mol
DOCKED: USER    
DOCKED: USER    
DOCKED: USER    NEWDPF move ligand.pdbqt
DOCKED: USER    NEWDPF about -0.023000 0.069000 -0.054000
DOCKED: USER    NEWDPF tran0 15.767501 -10.943543 -1.039042
DOCKED: USER    NEWDPF quaternion0 0.057109 -0.035778 -0.997726 -0.000879
DOCKED: USER    NEWDPF axisangle0 0.057109 -0.035778 -0.997727 -179.899292
DOCKED: USER    NEWDPF quat0 0.057109 -0.035778 -0.997727 -179.899292
DOCKED: USER    NEWDPF dihe0 -71.27 -178.40 28.85 -62.88 92.78 0.34 
DOCKED: USER  keepresnum = 1 
DOCKED: USER  
DOCKED: REMARK  Name = 
DOCKED: REMARK  6 active torsions:
DOCKED: REMARK  status: ('A' for Active; 'I' for Inactive)
DOCKED: REMARK    1  A    between atoms: C_2  and  C_5
DOCKED: REMARK    2  A    between atoms: C_5  and  C_6
DOCKED: REMARK    3  A    between atoms: C_6  and  C_7
DOCKED: REMARK    4  A    between atoms: C_7  and  C_8
DOCKED: REMARK    5  A    between atoms: C_8  and  C_9
DOCKED: REMARK    6  A    between atoms: C_9  and  N_10
DOCKED: REMARK                            x       y       z     vdW  Elec       q    Type
DOCKED: REMARK                         _______ _______ _______ _____ _____    ______ ____
DOCKED: USER                              x       y       z     vdW  Elec       q    Type
DOCKED: USER                           _______ _______ _______ _____ _____    ______ ____
DOCKED: ROOT
DOCKED: ATOM      1  N   UNL     1      16.362 -11.644  -1.002 -0.30 +0.00    +0.000 N 
DOCKED: ATOM      2  C   UNL     1      17.208 -10.891  -1.891 -0.14 -0.00    +0.000 C 
DOCKED: ATOM      3  C   UNL     1      18.625 -10.647  -1.537 -0.32 -0.00    +0.000 A 
DOCKED: ATOM      4  C   UNL     1      19.469  -9.940  -2.411 -0.28 -0.00    +0.000 A 
DOCKED: ATOM      5  C   UNL     1      20.804  -9.709  -2.077 -0.50 -0.00    +0.000 A 
DOCKED: ATOM      6  C   UNL     1      21.319 -10.178  -0.869 -0.61 -0.00    +0.000 A 
DOCKED: ATOM      7  C   UNL     1      20.497 -10.886   0.021 -0.59 -0.00    +0.000 A 
DOCKED: ATOM      8  C   UNL     1      21.014 -11.355   1.236 -0.50 -0.00    +0.000 A 
DOCKED: ATOM      9  C   UNL     1      20.197 -12.056   2.123 -0.67 -0.00    +0.000 A 
DOCKED: ATOM     10  C   UNL     1      18.858 -12.297   1.807 -0.41 -0.00    +0.000 A 
DOCKED: ATOM     11  C   UNL     1      18.316 -11.837   0.593 -0.49 -0.00    +0.000 A 
DOCKED: ATOM     12  C   UNL     1      19.139 -11.126  -0.310 -0.46 -0.00    +0.000 A 
DOCKED: ATOM     13  O   UNL     1      16.742 -10.436  -2.973 -0.28 -0.00    +0.000 OA
DOCKED: ATOM     14  C   UNL     1      16.897 -12.092   0.258 -0.50 +0.00    +0.000 C 
DOCKED: ATOM     15  O   UNL     1      16.156 -12.700   1.080 -1.02 +0.00    +0.000 OA
DOCKED: ENDROOT
DOCKED: BRANCH   1  16
DOCKED: ATOM     16  C   UNL     1      14.945 -11.861  -1.327 -0.39 +0.00    +0.000 C 
DOCKED: BRANCH  16  17
DOCKED: ATOM     17  C   UNL     1      14.099 -10.694  -0.808 -0.31 +0.00    +0.000 C 
DOCKED: BRANCH  17  18
DOCKED: ATOM     18  C   UNL     1      13.669 -10.927   0.645 -0.34 +0.00    +0.000 C 
DOCKED: BRANCH  18  19
DOCKED: ATOM     19  C   UNL     1      14.251  -9.847   1.569 -0.27 +0.00    +0.000 C 
DOCKED: BRANCH  19  20
DOCKED: ATOM     20  C   UNL     1      14.545 -10.384   2.977 -0.41 +0.00    +0.000 C 
DOCKED: BRANCH  20  22
DOCKED: ATOM     21  O   UNL     1      16.480 -11.260   4.073 -0.61 +0.00    +0.000 OA
DOCKED: ATOM     22  C   UNL     1      16.018 -10.408   3.267 -0.50 +0.00    +0.000 C 
DOCKED: ATOM     23  N   UNL     1      16.900  -9.495   2.610 -0.41 +0.00    +0.000 N 
DOCKED: ATOM     24  O   UNL     1      18.230  -9.529   2.859 -0.60 -0.00    +0.000 OA
DOCKED: ATOM     25  H   UNL     1      16.538  -8.838   1.972 -0.03 +0.00    +0.000 HD
DOCKED: ENDBRANCH  20  22
DOCKED: ENDBRANCH  19  20
DOCKED: ENDBRANCH  18  19
DOCKED: ENDBRANCH  17  18
DOCKED: ENDBRANCH  16  17
DOCKED: ENDBRANCH   1  16
DOCKED: TORSDOF 6
DOCKED: TER
DOCKED: ENDMDL
________________________________________________________________________________


	BEGINNING GENETIC ALGORITHM DOCKING 3 of 100
Run: 3 Seed: 524298462 965917037 [ Run 3 of 100 GA/GALS ]
Beginning LAMARCKIAN GENETIC ALGORITHM (LGA), with a maximum of 2500000 energy evaluations.

Final-Value: -12.781


	FINAL GENETIC ALGORITHM DOCKED STATE
	_______________________________________________


Detailed state:  trans 19.853 -9.882 -4.049 quatxyzw -0.150017 -0.752616 -0.562741 -0.307224 center -0.023 0.069 -0.054 ntor 6 -10.7774 178.8064 -167.4985 -83.4597 -116.7319 154.4692
State:	 19.853  -9.882  -4.049  -0.158 -0.791 -0.591 -144.216    -10.78  178.81 -167.50  -83.46 -116.73  154.47

DOCKED: MODEL        3
DOCKED: USER    Run = 3
DOCKED: USER    DPF = ligand_dock.biased.dpf
DOCKED: USER  
DOCKED: USER    Estimated Free Energy of Binding    =  -10.04 kcal/mol  [=(1)+(2)+(3)-(4)]
DOCKED: USER    Estimated Inhibition Constant, Ki   =   43.36 nM (nanomolar)  [Temperature = 298.15 K]
DOCKED: USER    
DOCKED: USER    (1) Final Intermolecular Energy     =  -11.83 kcal/mol
DOCKED: USER        vdW + Hbond + desolv Energy     =  -11.83 kcal/mol
DOCKED: USER        Electrostatic Energy            =   +0.00 kcal/mol
DOCKED: USER    (2) Final Total Internal Energy     =   -0.95 kcal/mol
DOCKED: USER    (3) Torsional Free Energy           =   +1.79 kcal/mol
DOCKED: USER    (4) Unbound System's Energy  [=(2)] =   -0.95 kcal/mol
DOCKED: USER    
DOCKED: USER    
DOCKED: USER    NEWDPF move ligand.pdbqt
DOCKED: USER    NEWDPF about -0.023000 0.069000 -0.054000
DOCKED: USER    NEWDPF tran0 19.852604 -9.882238 -4.049085
DOCKED: USER    NEWDPF quaternion0 -0.150017 -0.752616 -0.562741 -0.307224
DOCKED: USER    NEWDPF axisangle0 -0.157641 -0.790864 -0.591340 -144.215995
DOCKED: USER    NEWDPF quat0 -0.157641 -0.790864 -0.591340 -144.215995
DOCKED: USER    NEWDPF dihe0 -10.78 178.81 -167.50 -83.46 -116.73 154.47 
DOCKED: USER  keepresnum = 1 
DOCKED: USER  
DOCKED: REMARK  Name = 
DOCKED: REMARK  6 active torsions:
DOCKED: REMARK  status: ('A' for Active; 'I' for Inactive)
DOCKED: REMARK    1  A    between atoms: C_2  and  C_5
DOCKED: REMARK    2  A    between atoms: C_5  and  C_6
DOCKED: REMARK    3  A    between atoms: C_6  and  C_7
DOCKED: REMARK    4  A    between atoms: C_7  and  C_8
DOCKED: REMARK    5  A    between atoms: C_8  and  C_9
DOCKED: REMARK    6  A    between atoms: C_9  and  N_10
DOCKED: REMARK                            x       y       z     vdW  Elec       q    Type
DOCKED: REMARK                         _______ _______ _______ _____ _____    ______ ____
DOCKED: USER                              x       y       z     vdW  Elec       q    Type
DOCKED: USER                           _______ _______ _______ _____ _____    ______ ____
DOCKED: ROOT
DOCKED: ATOM      1  N   UNL     1      20.729  -9.662  -3.879 -0.37 -0.00    +0.000 N 
DOCKED: ATOM      2  C   UNL     1      21.103 -10.704  -4.801 -0.49 -0.00    +0.000 C 
DOCKED: ATOM      3  C   UNL     1      22.027 -10.406  -5.920 -0.35 -0.00    +0.000 A 
DOCKED: ATOM      4  C   UNL     1      22.424 -11.422  -6.808 -0.37 -0.00    +0.000 A 
DOCKED: ATOM      5  C   UNL     1      23.294 -11.142  -7.863 -0.36 -0.00    +0.000 A 
DOCKED: ATOM      6  C   UNL     1      23.780  -9.849  -8.050 -0.22 -0.00    +0.000 A 
DOCKED: ATOM      7  C   UNL     1      23.399  -8.818  -7.178 -0.20 -0.00    +0.000 A 
DOCKED: ATOM      8  C   UNL     1      23.886  -7.518  -7.367 -0.14 -0.00    +0.000 A 
DOCKED: ATOM      9  C   UNL     1      23.504  -6.492  -6.503 -0.13 -0.00    +0.000 A 
DOCKED: ATOM     10  C   UNL     1      22.635  -6.752  -5.442 -0.11 -0.00    +0.000 A 
DOCKED: ATOM     11  C   UNL     1      22.133  -8.048  -5.230 -0.17 -0.00    +0.000 A 
DOCKED: ATOM     12  C   UNL     1      22.515  -9.093  -6.102 -0.23 -0.00    +0.000 A 
DOCKED: ATOM     13  O   UNL     1      20.643 -11.870  -4.657 -0.63 -0.00    +0.000 OA
DOCKED: ATOM     14  C   UNL     1      21.211  -8.324  -4.105 -0.35 -0.00    +0.000 C 
DOCKED: ATOM     15  O   UNL     1      20.846  -7.383  -3.345 -0.37 -0.00    +0.000 OA
DOCKED: ENDROOT
DOCKED: BRANCH   1  16
DOCKED: ATOM     16  C   UNL     1      19.785  -9.938  -2.787 -0.42 -0.00    +0.000 C 
DOCKED: BRANCH  16  17
DOCKED: ATOM     17  C   UNL     1      20.411 -10.906  -1.779 -0.39 -0.00    +0.000 C 
DOCKED: BRANCH  17  18
DOCKED: ATOM     18  C   UNL     1      21.645 -10.289  -1.113 -0.57 -0.00    +0.000 C 
DOCKED: BRANCH  18  19
DOCKED: ATOM     19  C   UNL     1      21.285  -9.671   0.247 -0.60 -0.00    +0.000 C 
DOCKED: BRANCH  19  20
DOCKED: ATOM     20  C   UNL     1      19.921 -10.150   0.761 -0.56 -0.00    +0.000 C 
DOCKED: BRANCH  20  22
DOCKED: ATOM     21  O   UNL     1      20.153 -12.300   1.780 -1.81 -0.00    +0.000 OA
DOCKED: ATOM     22  C   UNL     1      20.061 -11.055   1.951 -0.73 -0.00    +0.000 C 
DOCKED: ATOM     23  N   UNL     1      20.122 -10.509   3.271 -0.69 -0.00    +0.000 N 
DOCKED: ATOM     24  O   UNL     1      20.265 -11.323   4.342 -1.04 -0.00    +0.000 OA
DOCKED: ATOM     25  H   UNL     1      20.062  -9.535   3.401 -0.55 -0.00    +0.000 HD
DOCKED: ENDBRANCH  20  22
DOCKED: ENDBRANCH  19  20
DOCKED: ENDBRANCH  18  19
DOCKED: ENDBRANCH  17  18
DOCKED: ENDBRANCH  16  17
DOCKED: ENDBRANCH   1  16
DOCKED: TORSDOF 6
DOCKED: TER
DOCKED: ENDMDL
________________________________________________________________________________


	BEGINNING GENETIC ALGORITHM DOCKING 4 of 100
Run: 4 Seed: 1011666324 1972883849 [ Run 4 of 100 GA/GALS ]
Beginning LAMARCKIAN GENETIC ALGORITHM (LGA), with a maximum of 2500000 energy evaluations.

Final-Value: -14.182


	FINAL GENETIC ALGORITHM DOCKED STATE
	_______________________________________________


Detailed state:  trans 16.606 -12.923 1.415 quatxyzw 0.127688 -0.119973 0.302327 0.936964 center -0.023 0.069 -0.054 ntor 6 -167.9439 12.9677 136.2269 -59.1107 -133.0546 -174.7742
State:	 16.606 -12.923   1.415   0.365 -0.343  0.865 40.905   -167.94   12.97  136.23  -59.11 -133.05 -174.77

DOCKED: MODEL        4
DOCKED: USER    Run = 4
DOCKED: USER    DPF = ligand_dock.biased.dpf
DOCKED: USER  
DOCKED: USER    Estimated Free Energy of Binding    =  -11.11 kcal/mol  [=(1)+(2)+(3)-(4)]
DOCKED: USER    Estimated Inhibition Constant, Ki   =    7.18 nM (nanomolar)  [Temperature = 298.15 K]
DOCKED: USER    
DOCKED: USER    (1) Final Intermolecular Energy     =  -12.90 kcal/mol
DOCKED: USER        vdW + Hbond + desolv Energy     =  -12.90 kcal/mol
DOCKED: USER        Electrostatic Energy            =   +0.00 kcal/mol
DOCKED: USER    (2) Final Total Internal Energy     =   -1.28 kcal/mol
DOCKED: USER    (3) Torsional Free Energy           =   +1.79 kcal/mol
DOCKED: USER    (4) Unbound System's Energy  [=(2)] =   -1.28 kcal/mol
DOCKED: USER    
DOCKED: USER    
DOCKED: USER    NEWDPF move ligand.pdbqt
DOCKED: USER    NEWDPF about -0.023000 0.069000 -0.054000
DOCKED: USER    NEWDPF tran0 16.606106 -12.922706 1.414874
DOCKED: USER    NEWDPF quaternion0 0.127688 -0.119973 0.302327 0.936964
DOCKED: USER    NEWDPF axisangle0 0.365421 -0.343343 0.865207 40.904545
DOCKED: USER    NEWDPF quat0 0.365421 -0.343343 0.865207 40.904545
DOCKED: USER    NEWDPF dihe0 -167.94 12.97 136.23 -59.11 -133.05 -174.77 
DOCKED: USER  keepresnum = 1 
DOCKED: USER  
DOCKED: REMARK  Name = 
DOCKED: REMARK  6 active torsions:
DOCKED: REMARK  status: ('A' for Active; 'I' for Inactive)
DOCKED: REMARK    1  A    between atoms: C_2  and  C_5
DOCKED: REMARK    2  A    between atoms: C_5  and  C_6
DOCKED: REMARK    3  A    between atoms: C_6  and  C_7
DOCKED: REMARK    4  A    between atoms: C_7  and  C_8
DOCKED: REMARK    5  A    between atoms: C_8  and  C_9
DOCKED: REMARK    6  A    between atoms: C_9  and  N_10
DOCKED: REMARK                            x       y       z     vdW  Elec       q    Type
DOCKED: REMARK                         _______ _______ _______ _____ _____    ______ ____
DOCKED: USER                              x       y       z     vdW  Elec       q    Type
DOCKED: USER                           _______ _______ _______ _____ _____    ______ ____
DOCKED: ROOT
DOCKED: ATOM      1  N   UNL     1      16.491 -12.034   1.208 -0.44 +0.00    +0.000 N 
DOCKED: ATOM      2  C   UNL     1      15.188 -12.385   0.705 -0.51 +0.00    +0.000 C 
DOCKED: ATOM      3  C   UNL     1      13.989 -11.658   1.182 -0.40 +0.00    +0.000 A 
DOCKED: ATOM      4  C   UNL     1      12.715 -11.971   0.676 -0.33 +0.00    +0.000 A 
DOCKED: ATOM      5  C   UNL     1      11.585 -11.287   1.126 -0.36 +0.00    +0.000 A 
DOCKED: ATOM      6  C   UNL     1      11.706 -10.283   2.086 -0.14 +0.00    +0.000 A 
DOCKED: ATOM      7  C   UNL     1      12.965  -9.953   2.608 -0.21 +0.00    +0.000 A 
DOCKED: ATOM      8  C   UNL     1      13.086  -8.945   3.574 -0.23 +0.00    +0.000 A 
DOCKED: ATOM      9  C   UNL     1      14.338  -8.619   4.096 -0.32 +0.00    +0.000 A 
DOCKED: ATOM     10  C   UNL     1      15.480  -9.292   3.658 -0.37 +0.00    +0.000 A 
DOCKED: ATOM     11  C   UNL     1      15.386 -10.306   2.688 -0.37 +0.00    +0.000 A 
DOCKED: ATOM     12  C   UNL     1      14.120 -10.642   2.156 -0.32 +0.00    +0.000 A 
DOCKED: ATOM     13  O   UNL     1      15.066 -13.314  -0.141 -0.81 +0.00    +0.000 OA
DOCKED: ATOM     14  C   UNL     1      16.597 -11.019   2.225 -0.46 +0.00    +0.000 C 
DOCKED: ATOM     15  O   UNL     1      17.722 -10.739   2.724 -0.54 +0.00    +0.000 OA
DOCKED: ENDROOT
DOCKED: BRANCH   1  16
DOCKED: ATOM     16  C   UNL     1      17.683 -12.773   0.768 -0.44 +0.00    +0.000 C 
DOCKED: BRANCH  16  17
DOCKED: ATOM     17  C   UNL     1      18.392 -12.013  -0.357 -0.52 -0.00    +0.000 C 
DOCKED: BRANCH  17  18
DOCKED: ATOM     18  C   UNL     1      18.545 -10.528  -0.009 -0.34 -0.00    +0.000 C 
DOCKED: BRANCH  18  19
DOCKED: ATOM     19  C   UNL     1      20.024 -10.113  -0.009 -0.54 -0.00    +0.000 C 
DOCKED: BRANCH  19  20
DOCKED: ATOM     20  C   UNL     1      20.928 -11.180   0.625 -0.67 -0.00    +0.000 C 
DOCKED: BRANCH  20  22
DOCKED: ATOM     21  O   UNL     1      20.009 -12.667   2.255 -1.62 -0.00    +0.000 OA
DOCKED: ATOM     22  C   UNL     1      20.488 -11.525   2.018 -0.77 -0.00    +0.000 C 
DOCKED: ATOM     23  N   UNL     1      20.641 -10.581   3.080 -0.64 -0.00    +0.000 N 
DOCKED: ATOM     24  O   UNL     1      20.261 -10.899   4.339 -0.95 -0.00    +0.000 OA
DOCKED: ATOM     25  H   UNL     1      21.026  -9.694   2.895 -0.60 -0.00    +0.000 HD
DOCKED: ENDBRANCH  20  22
DOCKED: ENDBRANCH  19  20
DOCKED: ENDBRANCH  18  19
DOCKED: ENDBRANCH  17  18
DOCKED: ENDBRANCH  16  17
DOCKED: ENDBRANCH   1  16
DOCKED: TORSDOF 6
DOCKED: TER
DOCKED: ENDMDL
________________________________________________________________________________


	BEGINNING GENETIC ALGORITHM DOCKING 5 of 100
Run: 5 Seed: 1153774492 1798251517 [ Run 5 of 100 GA/GALS ]
Beginning LAMARCKIAN GENETIC ALGORITHM (LGA), with a maximum of 2500000 energy evaluations.

Final-Value: -13.123


	FINAL GENETIC ALGORITHM DOCKED STATE
	_______________________________________________


Detailed state:  trans 15.296 -12.617 0.745 quatxyzw 0.247401 -0.849053 -0.133709 -0.447241 center -0.023 0.069 -0.054 ntor 6 177.6054 -125.1502 148.2247 79.1774 -155.1387 162.8452
State:	 15.296 -12.617   0.745   0.277 -0.949 -0.149 -126.866    177.61 -125.15  148.22   79.18 -155.14  162.85

DOCKED: MODEL        5
DOCKED: USER    Run = 5
DOCKED: USER    DPF = ligand_dock.biased.dpf
DOCKED: USER  
DOCKED: USER    Estimated Free Energy of Binding    =   -9.12 kcal/mol  [=(1)+(2)+(3)-(4)]
DOCKED: USER    Estimated Inhibition Constant, Ki   =  207.06 nM (nanomolar)  [Temperature = 298.15 K]
DOCKED: USER    
DOCKED: USER    (1) Final Intermolecular Energy     =  -10.91 kcal/mol
DOCKED: USER        vdW + Hbond + desolv Energy     =  -10.91 kcal/mol
DOCKED: USER        Electrostatic Energy            =   +0.00 kcal/mol
DOCKED: USER    (2) Final Total Internal Energy     =   -2.22 kcal/mol
DOCKED: USER    (3) Torsional Free Energy           =   +1.79 kcal/mol
DOCKED: USER    (4) Unbound System's Energy  [=(2)] =   -2.22 kcal/mol
DOCKED: USER    
DOCKED: USER    
DOCKED: USER    NEWDPF move ligand.pdbqt
DOCKED: USER    NEWDPF about -0.023000 0.069000 -0.054000
DOCKED: USER    NEWDPF tran0 15.296310 -12.617014 0.744793
DOCKED: USER    NEWDPF quaternion0 0.247401 -0.849053 -0.133709 -0.447241
DOCKED: USER    NEWDPF axisangle0 0.276607 -0.949284 -0.149494 -126.866386
DOCKED: USER    NEWDPF quat0 0.276607 -0.949284 -0.149494 -126.866386
DOCKED: USER    NEWDPF dihe0 177.61 -125.15 148.22 79.18 -155.14 162.85 
DOCKED: USER  keepresnum = 1 
DOCKED: USER  
DOCKED: REMARK  Name = 
DOCKED: REMARK  6 active torsions:
DOCKED: REMARK  status: ('A' for Active; 'I' for Inactive)
DOCKED: REMARK    1  A    between atoms: C_2  and  C_5
DOCKED: REMARK    2  A    between atoms: C_5  and  C_6
DOCKED: REMARK    3  A    between atoms: C_6  and  C_7
DOCKED: REMARK    4  A    between atoms: C_7  and  C_8
DOCKED: REMARK    5  A    between atoms: C_8  and  C_9
DOCKED: REMARK    6  A    between atoms: C_9  and  N_10
DOCKED: REMARK                            x       y       z     vdW  Elec       q    Type
DOCKED: REMARK                         _______ _______ _______ _____ _____    ______ ____
DOCKED: USER                              x       y       z     vdW  Elec       q    Type
DOCKED: USER                           _______ _______ _______ _____ _____    ______ ____
DOCKED: ROOT
DOCKED: ATOM      1  N   UNL     1      15.435 -11.709   0.695 -0.38 +0.00    +0.000 N 
DOCKED: ATOM      2  C   UNL     1      16.798 -12.001   0.334 -0.49 +0.00    +0.000 C 
DOCKED: ATOM      3  C   UNL     1      17.386 -11.404  -0.887 -0.30 -0.00    +0.000 A 
DOCKED: ATOM      4  C   UNL     1      18.725 -11.656  -1.232 -0.32 -0.00    +0.000 A 
DOCKED: ATOM      5  C   UNL     1      19.279 -11.094  -2.383 -0.32 -0.00    +0.000 A 
DOCKED: ATOM      6  C   UNL     1      18.509 -10.273  -3.207 -0.29 -0.00    +0.000 A 
DOCKED: ATOM      7  C   UNL     1      17.171 -10.007  -2.884 -0.17 -0.00    +0.000 A 
DOCKED: ATOM      8  C   UNL     1      16.396  -9.184  -3.713 -0.18 -0.00    +0.000 A 
DOCKED: ATOM      9  C   UNL     1      15.064  -8.921  -3.395 -0.17 -0.00    +0.000 A 
DOCKED: ATOM     10  C   UNL     1      14.492  -9.474  -2.248 -0.21 -0.00    +0.000 A 
DOCKED: ATOM     11  C   UNL     1      15.248 -10.302  -1.399 -0.26 -0.00    +0.000 A 
DOCKED: ATOM     12  C   UNL     1      16.598 -10.573  -1.716 -0.24 -0.00    +0.000 A 
DOCKED: ATOM     13  O   UNL     1      17.493 -12.768   1.057 -0.96 +0.00    +0.000 OA
DOCKED: ATOM     14  C   UNL     1      14.640 -10.889  -0.183 -0.32 +0.00    +0.000 C 
DOCKED: ATOM     15  O   UNL     1      13.426 -10.671   0.081 -0.28 +0.00    +0.000 OA
DOCKED: ENDROOT
DOCKED: BRANCH   1  16
DOCKED: ATOM     16  C   UNL     1      14.831 -12.326   1.884 -0.40 +0.00    +0.000 C 
DOCKED: BRANCH  16  17
DOCKED: ATOM     17  C   UNL     1      15.359 -11.653   3.155 -0.52 +0.00    +0.000 C 
DOCKED: BRANCH  17  18
DOCKED: ATOM     18  C   UNL     1      15.834 -10.224   2.867 -0.45 +0.00    +0.000 C 
DOCKED: BRANCH  18  19
DOCKED: ATOM     19  C   UNL     1      17.363 -10.169   2.735 -0.49 +0.00    +0.000 C 
DOCKED: BRANCH  19  20
DOCKED: ATOM     20  C   UNL     1      18.058 -11.259   3.563 -0.11 +0.00    +0.000 C 
DOCKED: BRANCH  20  22
DOCKED: ATOM     21  O   UNL     1      20.392 -10.838   3.861 -1.13 -0.00    +0.000 OA
DOCKED: ATOM     22  C   UNL     1      19.501 -11.414   3.180 -0.71 -0.00    +0.000 C 
DOCKED: ATOM     23  N   UNL     1      19.871 -12.237   2.071 -0.71 -0.00    +0.000 N 
DOCKED: ATOM     24  O   UNL     1      21.173 -12.390   1.736 -1.36 -0.00    +0.000 OA
DOCKED: ATOM     25  H   UNL     1      19.174 -12.695   1.548 -0.15 -0.00    +0.000 HD
DOCKED: ENDBRANCH  20  22
DOCKED: ENDBRANCH  19  20
DOCKED: ENDBRANCH  18  19
DOCKED: ENDBRANCH  17  18
DOCKED: ENDBRANCH  16  17
DOCKED: ENDBRANCH   1  16
DOCKED: TORSDOF 6
DOCKED: TER
DOCKED: ENDMDL
________________________________________________________________________________


	BEGINNING GENETIC ALGORITHM DOCKING 6 of 100
Run: 6 Seed: 1977244859 1615999526 [ Run 6 of 100 GA/GALS ]
Beginning LAMARCKIAN GENETIC ALGORITHM (LGA), with a maximum of 2500000 energy evaluations.

Final-Value: -13.522


	FINAL GENETIC ALGORITHM DOCKED STATE
	_______________________________________________


Detailed state:  trans 19.674 -10.693 1.055 quatxyzw -0.968878 -0.055607 0.131611 -0.202142 center -0.023 0.069 -0.054 ntor 6 -0.2163 42.9617 42.3108 -27.5070 71.4564 -6.0633
State:	 19.674 -10.693   1.055  -0.989 -0.057  0.134 -156.675     -0.22   42.96   42.31  -27.51   71.46   -6.06

DOCKED: MODEL        6
DOCKED: USER    Run = 6
DOCKED: USER    DPF = ligand_dock.biased.dpf
DOCKED: USER  
DOCKED: USER    Estimated Free Energy of Binding    =   -9.82 kcal/mol  [=(1)+(2)+(3)-(4)]
DOCKED: USER    Estimated Inhibition Constant, Ki   =   63.25 nM (nanomolar)  [Temperature = 298.15 K]
DOCKED: USER    
DOCKED: USER    (1) Final Intermolecular Energy     =  -11.61 kcal/mol
DOCKED: USER        vdW + Hbond + desolv Energy     =  -11.61 kcal/mol
DOCKED: USER        Electrostatic Energy            =   +0.00 kcal/mol
DOCKED: USER    (2) Final Total Internal Energy     =   -1.91 kcal/mol
DOCKED: USER    (3) Torsional Free Energy           =   +1.79 kcal/mol
DOCKED: USER    (4) Unbound System's Energy  [=(2)] =   -1.91 kcal/mol
DOCKED: USER    
DOCKED: USER    
DOCKED: USER    NEWDPF move ligand.pdbqt
DOCKED: USER    NEWDPF about -0.023000 0.069000 -0.054000
DOCKED: USER    NEWDPF tran0 19.674111 -10.692834 1.055474
DOCKED: USER    NEWDPF quaternion0 -0.968878 -0.055607 0.131611 -0.202142
DOCKED: USER    NEWDPF axisangle0 -0.989301 -0.056779 0.134385 -156.675481
DOCKED: USER    NEWDPF quat0 -0.989301 -0.056779 0.134385 -156.675481
DOCKED: USER    NEWDPF dihe0 -0.22 42.96 42.31 -27.51 71.46 -6.06 
DOCKED: USER  keepresnum = 1 
DOCKED: USER  
DOCKED: REMARK  Name = 
DOCKED: REMARK  6 active torsions:
DOCKED: REMARK  status: ('A' for Active; 'I' for Inactive)
DOCKED: REMARK    1  A    between atoms: C_2  and  C_5
DOCKED: REMARK    2  A    between atoms: C_5  and  C_6
DOCKED: REMARK    3  A    between atoms: C_6  and  C_7
DOCKED: REMARK    4  A    between atoms: C_7  and  C_8
DOCKED: REMARK    5  A    between atoms: C_8  and  C_9
DOCKED: REMARK    6  A    between atoms: C_9  and  N_10
DOCKED: REMARK                            x       y       z     vdW  Elec       q    Type
DOCKED: REMARK                         _______ _______ _______ _____ _____    ______ ____
DOCKED: USER                              x       y       z     vdW  Elec       q    Type
DOCKED: USER                           _______ _______ _______ _____ _____    ______ ____
DOCKED: ROOT
DOCKED: ATOM      1  N   UNL     1      19.168 -11.457   0.980 -0.53 -0.00    +0.000 N 
DOCKED: ATOM      2  C   UNL     1      18.667 -11.180   2.301 -0.59 -0.00    +0.000 C 
DOCKED: ATOM      3  C   UNL     1      17.207 -11.134   2.545 -0.37 +0.00    +0.000 A 
DOCKED: ATOM      4  C   UNL     1      16.705 -10.895   3.837 -0.32 +0.00    +0.000 A 
DOCKED: ATOM      5  C   UNL     1      15.329 -10.850   4.067 -0.46 +0.00    +0.000 A 
DOCKED: ATOM      6  C   UNL     1      14.433 -11.042   3.016 -0.38 +0.00    +0.000 A 
DOCKED: ATOM      7  C   UNL     1      14.908 -11.281   1.718 -0.39 +0.00    +0.000 A 
DOCKED: ATOM      8  C   UNL     1      14.007 -11.471   0.662 -0.36 +0.00    +0.000 A 
DOCKED: ATOM      9  C   UNL     1      14.479 -11.705  -0.630 -0.37 +0.00    +0.000 A 
DOCKED: ATOM     10  C   UNL     1      15.852 -11.754  -0.880 -0.31 +0.00    +0.000 A 
DOCKED: ATOM     11  C   UNL     1      16.776 -11.567   0.163 -0.38 +0.00    +0.000 A 
DOCKED: ATOM     12  C   UNL     1      16.305 -11.329   1.474 -0.38 +0.00    +0.000 A 
DOCKED: ATOM     13  O   UNL     1      19.471 -10.974   3.252 -0.86 -0.00    +0.000 OA
DOCKED: ATOM     14  C   UNL     1      18.232 -11.618  -0.103 -0.51 -0.00    +0.000 C 
DOCKED: ATOM     15  O   UNL     1      18.651 -11.800  -1.280 -0.47 -0.00    +0.000 OA
DOCKED: ENDROOT
DOCKED: BRANCH   1  16
DOCKED: ATOM     16  C   UNL     1      20.614 -11.469   0.720 -0.64 -0.00    +0.000 C 
DOCKED: BRANCH  16  17
DOCKED: ATOM     17  C   UNL     1      21.076 -10.093   0.229 -0.69 -0.00    +0.000 C 
DOCKED: BRANCH  17  18
DOCKED: ATOM     18  C   UNL     1      21.436 -10.130  -1.260 -0.63 -0.00    +0.000 C 
DOCKED: BRANCH  18  19
DOCKED: ATOM     19  C   UNL     1      21.242  -8.750  -1.906 -0.52 -0.00    +0.000 C 
DOCKED: BRANCH  19  20
DOCKED: ATOM     20  C   UNL     1      20.511  -8.835  -3.253 -0.40 -0.00    +0.000 C 
DOCKED: BRANCH  20  22
DOCKED: ATOM     21  O   UNL     1      21.764 -10.412  -4.539 -0.51 -0.00    +0.000 OA
DOCKED: ATOM     22  C   UNL     1      20.701 -10.174  -3.906 -0.47 -0.00    +0.000 C 
DOCKED: ATOM     23  N   UNL     1      19.699 -11.187  -3.784 -0.43 -0.00    +0.000 N 
DOCKED: ATOM     24  O   UNL     1      19.878 -12.399  -4.358 -0.62 -0.00    +0.000 OA
DOCKED: ATOM     25  H   UNL     1      18.875 -11.002  -3.279 -0.01 -0.00    +0.000 HD
DOCKED: ENDBRANCH  20  22
DOCKED: ENDBRANCH  19  20
DOCKED: ENDBRANCH  18  19
DOCKED: ENDBRANCH  17  18
DOCKED: ENDBRANCH  16  17
DOCKED: ENDBRANCH   1  16
DOCKED: TORSDOF 6
DOCKED: TER
DOCKED: ENDMDL
________________________________________________________________________________


	BEGINNING GENETIC ALGORITHM DOCKING 7 of 100
Run: 7 Seed: 1411201289 971707828 [ Run 7 of 100 GA/GALS ]
Beginning LAMARCKIAN GENETIC ALGORITHM (LGA), with a maximum of 2500000 energy evaluations.

Final-Value: -13.221


	FINAL GENETIC ALGORITHM DOCKED STATE
	_______________________________________________


Detailed state:  trans 14.981 -11.577 2.814 quatxyzw 0.236849 -0.249647 0.444844 0.826857 center -0.023 0.069 -0.054 ntor 6 98.1759 152.6300 -146.1553 62.4034 -14.9343 179.8582
State:	 14.981 -11.577   2.814   0.421 -0.444  0.791 68.446     98.18  152.63 -146.16   62.40  -14.93  179.86

DOCKED: MODEL        7
DOCKED: USER    Run = 7
DOCKED: USER    DPF = ligand_dock.biased.dpf
DOCKED: USER  
DOCKED: USER    Estimated Free Energy of Binding    =   -9.56 kcal/mol  [=(1)+(2)+(3)-(4)]
DOCKED: USER    Estimated Inhibition Constant, Ki   =   98.76 nM (nanomolar)  [Temperature = 298.15 K]
DOCKED: USER    
DOCKED: USER    (1) Final Intermolecular Energy     =  -11.35 kcal/mol
DOCKED: USER        vdW + Hbond + desolv Energy     =  -11.35 kcal/mol
DOCKED: USER        Electrostatic Energy            =   +0.00 kcal/mol
DOCKED: USER    (2) Final Total Internal Energy     =   -1.87 kcal/mol
DOCKED: USER    (3) Torsional Free Energy           =   +1.79 kcal/mol
DOCKED: USER    (4) Unbound System's Energy  [=(2)] =   -1.87 kcal/mol
DOCKED: USER    
DOCKED: USER    
DOCKED: USER    NEWDPF move ligand.pdbqt
DOCKED: USER    NEWDPF about -0.023000 0.069000 -0.054000
DOCKED: USER    NEWDPF tran0 14.981363 -11.576571 2.814347
DOCKED: USER    NEWDPF quaternion0 0.236849 -0.249647 0.444844 0.826857
DOCKED: USER    NEWDPF axisangle0 0.421131 -0.443887 0.790957 68.445539
DOCKED: USER    NEWDPF quat0 0.421131 -0.443887 0.790957 68.445539
DOCKED: USER    NEWDPF dihe0 98.18 152.63 -146.16 62.40 -14.93 179.86 
DOCKED: USER  keepresnum = 1 
DOCKED: USER  
DOCKED: REMARK  Name = 
DOCKED: REMARK  6 active torsions:
DOCKED: REMARK  status: ('A' for Active; 'I' for Inactive)
DOCKED: REMARK    1  A    between atoms: C_2  and  C_5
DOCKED: REMARK    2  A    between atoms: C_5  and  C_6
DOCKED: REMARK    3  A    between atoms: C_6  and  C_7
DOCKED: REMARK    4  A    between atoms: C_7  and  C_8
DOCKED: REMARK    5  A    between atoms: C_8  and  C_9
DOCKED: REMARK    6  A    between atoms: C_9  and  N_10
DOCKED: REMARK                            x       y       z     vdW  Elec       q    Type
DOCKED: REMARK                         _______ _______ _______ _____ _____    ______ ____
DOCKED: USER                              x       y       z     vdW  Elec       q    Type
DOCKED: USER                           _______ _______ _______ _____ _____    ______ ____
DOCKED: ROOT
DOCKED: ATOM      1  N   UNL     1      15.080 -10.741   2.442 -0.37 +0.00    +0.000 N 
DOCKED: ATOM      2  C   UNL     1      13.643 -10.665   2.389 -0.36 +0.00    +0.000 C 
DOCKED: ATOM      3  C   UNL     1      12.940  -9.501   2.976 -0.21 +0.00    +0.000 A 
DOCKED: ATOM      4  C   UNL     1      11.540  -9.400   2.902 -0.08 +0.00    +0.000 A 
DOCKED: ATOM      5  C   UNL     1      10.877  -8.303   3.456 -0.12 +0.00    +0.000 A 
DOCKED: ATOM      6  C   UNL     1      11.598  -7.292   4.090 -0.13 +0.00    +0.000 A 
DOCKED: ATOM      7  C   UNL     1      12.995  -7.370   4.177 -0.19 +0.00    +0.000 A 
DOCKED: ATOM      8  C   UNL     1      13.719  -6.355   4.817 -0.30 +0.00    +0.000 A 
DOCKED: ATOM      9  C   UNL     1      15.109  -6.433   4.907 -0.41 +0.00    +0.000 A 
DOCKED: ATOM     10  C   UNL     1      15.790  -7.522   4.359 -0.20 +0.00    +0.000 A 
DOCKED: ATOM     11  C   UNL     1      15.086  -8.553   3.712 -0.34 +0.00    +0.000 A 
DOCKED: ATOM     12  C   UNL     1      13.678  -8.481   3.617 -0.24 +0.00    +0.000 A 
DOCKED: ATOM     13  O   UNL     1      12.980 -11.591   1.844 -0.47 +0.00    +0.000 OA
DOCKED: ATOM     14  C   UNL     1      15.809  -9.708   3.131 -0.44 +0.00    +0.000 C 
DOCKED: ATOM     15  O   UNL     1      17.064  -9.786   3.244 -0.51 +0.00    +0.000 OA
DOCKED: ENDROOT
DOCKED: BRANCH   1  16
DOCKED: ATOM     16  C   UNL     1      15.784 -11.909   1.895 -0.46 +0.00    +0.000 C 
DOCKED: BRANCH  16  17
DOCKED: ATOM     17  C   UNL     1      16.171 -11.658   0.435 -0.44 +0.00    +0.000 C 
DOCKED: BRANCH  17  18
DOCKED: ATOM     18  C   UNL     1      17.211 -12.677  -0.045 -0.53 +0.00    +0.000 C 
DOCKED: BRANCH  18  19
DOCKED: ATOM     19  C   UNL     1      18.526 -11.981  -0.428 -0.51 -0.00    +0.000 C 
DOCKED: BRANCH  19  20
DOCKED: ATOM     20  C   UNL     1      18.854 -10.804   0.501 -0.50 -0.00    +0.000 C 
DOCKED: BRANCH  20  22
DOCKED: ATOM     21  O   UNL     1      20.087 -12.396   1.787 -1.81 -0.00    +0.000 OA
DOCKED: ATOM     22  C   UNL     1      19.548 -11.257   1.752 -0.69 -0.00    +0.000 C 
DOCKED: ATOM     23  N   UNL     1      19.628 -10.394   2.889 -0.63 -0.00    +0.000 N 
DOCKED: ATOM     24  O   UNL     1      20.269 -10.796   4.010 -1.08 -0.00    +0.000 OA
DOCKED: ATOM     25  H   UNL     1      19.216  -9.501   2.855 -0.36 -0.00    +0.000 HD
DOCKED: ENDBRANCH  20  22
DOCKED: ENDBRANCH  19  20
DOCKED: ENDBRANCH  18  19
DOCKED: ENDBRANCH  17  18
DOCKED: ENDBRANCH  16  17
DOCKED: ENDBRANCH   1  16
DOCKED: TORSDOF 6
DOCKED: TER
DOCKED: ENDMDL
________________________________________________________________________________


	BEGINNING GENETIC ALGORITHM DOCKING 8 of 100
Run: 8 Seed: 1479018688 1179835373 [ Run 8 of 100 GA/GALS ]
Beginning LAMARCKIAN GENETIC ALGORITHM (LGA), with a maximum of 2500000 energy evaluations.

Final-Value: -13.210


	FINAL GENETIC ALGORITHM DOCKED STATE
	_______________________________________________


Detailed state:  trans 15.664 -11.420 -0.088 quatxyzw 0.249272 0.065865 0.953518 0.155974 center -0.023 0.069 -0.054 ntor 6 113.3802 -163.2698 35.1915 -82.2118 87.6497 6.3112
State:	 15.664 -11.420  -0.088   0.252  0.067  0.965 162.053    113.38 -163.27   35.19  -82.21   87.65    6.31

DOCKED: MODEL        8
DOCKED: USER    Run = 8
DOCKED: USER    DPF = ligand_dock.biased.dpf
DOCKED: USER  
DOCKED: USER    Estimated Free Energy of Binding    =   -9.49 kcal/mol  [=(1)+(2)+(3)-(4)]
DOCKED: USER    Estimated Inhibition Constant, Ki   =  110.40 nM (nanomolar)  [Temperature = 298.15 K]
DOCKED: USER    
DOCKED: USER    (1) Final Intermolecular Energy     =  -11.28 kcal/mol
DOCKED: USER        vdW + Hbond + desolv Energy     =  -11.28 kcal/mol
DOCKED: USER        Electrostatic Energy            =   +0.00 kcal/mol
DOCKED: USER    (2) Final Total Internal Energy     =   -1.93 kcal/mol
DOCKED: USER    (3) Torsional Free Energy           =   +1.79 kcal/mol
DOCKED: USER    (4) Unbound System's Energy  [=(2)] =   -1.93 kcal/mol
DOCKED: USER    
DOCKED: USER    
DOCKED: USER    NEWDPF move ligand.pdbqt
DOCKED: USER    NEWDPF about -0.023000 0.069000 -0.054000
DOCKED: USER    NEWDPF tran0 15.664099 -11.419639 -0.088440
DOCKED: USER    NEWDPF quaternion0 0.249272 0.065865 0.953518 0.155974
DOCKED: USER    NEWDPF axisangle0 0.252361 0.066681 0.965333 162.053369
DOCKED: USER    NEWDPF quat0 0.252361 0.066681 0.965333 162.053369
DOCKED: USER    NEWDPF dihe0 113.38 -163.27 35.19 -82.21 87.65 6.31 
DOCKED: USER  keepresnum = 1 
DOCKED: USER  
DOCKED: REMARK  Name = 
DOCKED: REMARK  6 active torsions:
DOCKED: REMARK  status: ('A' for Active; 'I' for Inactive)
DOCKED: REMARK    1  A    between atoms: C_2  and  C_5
DOCKED: REMARK    2  A    between atoms: C_5  and  C_6
DOCKED: REMARK    3  A    between atoms: C_6  and  C_7
DOCKED: REMARK    4  A    between atoms: C_7  and  C_8
DOCKED: REMARK    5  A    between atoms: C_8  and  C_9
DOCKED: REMARK    6  A    between atoms: C_9  and  N_10
DOCKED: REMARK                            x       y       z     vdW  Elec       q    Type
DOCKED: REMARK                         _______ _______ _______ _____ _____    ______ ____
DOCKED: USER                              x       y       z     vdW  Elec       q    Type
DOCKED: USER                           _______ _______ _______ _____ _____    ______ ____
DOCKED: ROOT
DOCKED: ATOM      1  N   UNL     1      16.347 -11.940  -0.418 -0.38 +0.00    +0.000 N 
DOCKED: ATOM      2  C   UNL     1      16.272 -11.161  -1.627 -0.16 -0.00    +0.000 C 
DOCKED: ATOM      3  C   UNL     1      17.492 -10.527  -2.177 -0.21 -0.00    +0.000 A 
DOCKED: ATOM      4  C   UNL     1      17.437  -9.790  -3.373 -0.20 -0.00    +0.000 A 
DOCKED: ATOM      5  C   UNL     1      18.587  -9.192  -3.892 -0.20 -0.00    +0.000 A 
DOCKED: ATOM      6  C   UNL     1      19.806  -9.317  -3.227 -0.29 -0.00    +0.000 A 
DOCKED: ATOM      7  C   UNL     1      19.887 -10.046  -2.032 -0.39 -0.00    +0.000 A 
DOCKED: ATOM      8  C   UNL     1      21.113 -10.170  -1.363 -0.57 -0.00    +0.000 A 
DOCKED: ATOM      9  C   UNL     1      21.193 -10.892  -0.173 -0.56 -0.00    +0.000 A 
DOCKED: ATOM     10  C   UNL     1      20.054 -11.499   0.362 -0.51 -0.00    +0.000 A 
DOCKED: ATOM     11  C   UNL     1      18.813 -11.389  -0.291 -0.45 -0.00    +0.000 A 
DOCKED: ATOM     12  C   UNL     1      18.724 -10.659  -1.497 -0.33 -0.00    +0.000 A 
DOCKED: ATOM     13  O   UNL     1      15.166 -11.016  -2.218 -0.31 -0.00    +0.000 OA
DOCKED: ATOM     14  C   UNL     1      17.606 -12.032   0.276 -0.53 +0.00    +0.000 C 
DOCKED: ATOM     15  O   UNL     1      17.681 -12.658   1.370 -0.80 +0.00    +0.000 OA
DOCKED: ENDROOT
DOCKED: BRANCH   1  16
DOCKED: ATOM     16  C   UNL     1      15.136 -12.543   0.156 -0.53 +0.00    +0.000 C 
DOCKED: BRANCH  16  17
DOCKED: ATOM     17  C   UNL     1      14.361 -11.502   0.969 -0.42 +0.00    +0.000 C 
DOCKED: BRANCH  17  18
DOCKED: ATOM     18  C   UNL     1      14.774 -11.532   2.444 -0.50 +0.00    +0.000 C 
DOCKED: BRANCH  18  19
DOCKED: ATOM     19  C   UNL     1      15.805 -10.435   2.749 -0.45 +0.00    +0.000 C 
DOCKED: BRANCH  19  20
DOCKED: ATOM     20  C   UNL     1      16.884 -10.906   3.733 -0.37 +0.00    +0.000 C 
DOCKED: BRANCH  20  22
DOCKED: ATOM     21  O   UNL     1      18.482  -9.636   2.489 -0.60 -0.00    +0.000 OA
DOCKED: ATOM     22  C   UNL     1      18.267 -10.649   3.208 -0.42 -0.00    +0.000 C 
DOCKED: ATOM     23  N   UNL     1      19.344 -11.525   3.547 -0.63 -0.00    +0.000 N 
DOCKED: ATOM     24  O   UNL     1      20.594 -11.284   3.088 -1.45 -0.00    +0.000 OA
DOCKED: ATOM     25  H   UNL     1      19.176 -12.309   4.118 -0.03 -0.00    +0.000 HD
DOCKED: ENDBRANCH  20  22
DOCKED: ENDBRANCH  19  20
DOCKED: ENDBRANCH  18  19
DOCKED: ENDBRANCH  17  18
DOCKED: ENDBRANCH  16  17
DOCKED: ENDBRANCH   1  16
DOCKED: TORSDOF 6
DOCKED: TER
DOCKED: ENDMDL
________________________________________________________________________________


	BEGINNING GENETIC ALGORITHM DOCKING 9 of 100
Run: 9 Seed: 864631160 2143116002 [ Run 9 of 100 GA/GALS ]
Beginning LAMARCKIAN GENETIC ALGORITHM (LGA), with a maximum of 2500000 energy evaluations.

Final-Value: -13.048


	FINAL GENETIC ALGORITHM DOCKED STATE
	_______________________________________________


Detailed state:  trans 15.739 -10.982 -1.029 quatxyzw -0.053090 0.025387 0.998154 0.015010 center -0.023 0.069 -0.054 ntor 6 -149.7799 -149.1615 99.1504 81.0465 -122.7300 -20.7907
State:	 15.739 -10.982  -1.029  -0.053  0.025  0.998 178.280   -149.78 -149.16   99.15   81.05 -122.73  -20.79

DOCKED: MODEL        9
DOCKED: USER    Run = 9
DOCKED: USER    DPF = ligand_dock.biased.dpf
DOCKED: USER  
DOCKED: USER    Estimated Free Energy of Binding    =   -8.71 kcal/mol  [=(1)+(2)+(3)-(4)]
DOCKED: USER    Estimated Inhibition Constant, Ki   =  415.86 nM (nanomolar)  [Temperature = 298.15 K]
DOCKED: USER    
DOCKED: USER    (1) Final Intermolecular Energy     =  -10.50 kcal/mol
DOCKED: USER        vdW + Hbond + desolv Energy     =  -10.50 kcal/mol
DOCKED: USER        Electrostatic Energy            =   +0.00 kcal/mol
DOCKED: USER    (2) Final Total Internal Energy     =   -2.55 kcal/mol
DOCKED: USER    (3) Torsional Free Energy           =   +1.79 kcal/mol
DOCKED: USER    (4) Unbound System's Energy  [=(2)] =   -2.55 kcal/mol
DOCKED: USER    
DOCKED: USER    
DOCKED: USER    NEWDPF move ligand.pdbqt
DOCKED: USER    NEWDPF about -0.023000 0.069000 -0.054000
DOCKED: USER    NEWDPF tran0 15.739314 -10.981810 -1.028795
DOCKED: USER    NEWDPF quaternion0 -0.053090 0.025387 0.998154 0.015010
DOCKED: USER    NEWDPF axisangle0 -0.053096 0.025390 0.998267 178.279946
DOCKED: USER    NEWDPF quat0 -0.053096 0.025390 0.998267 178.279946
DOCKED: USER    NEWDPF dihe0 -149.78 -149.16 99.15 81.05 -122.73 -20.79 
DOCKED: USER  keepresnum = 1 
DOCKED: USER  
DOCKED: REMARK  Name = 
DOCKED: REMARK  6 active torsions:
DOCKED: REMARK  status: ('A' for Active; 'I' for Inactive)
DOCKED: REMARK    1  A    between atoms: C_2  and  C_5
DOCKED: REMARK    2  A    between atoms: C_5  and  C_6
DOCKED: REMARK    3  A    between atoms: C_6  and  C_7
DOCKED: REMARK    4  A    between atoms: C_7  and  C_8
DOCKED: REMARK    5  A    between atoms: C_8  and  C_9
DOCKED: REMARK    6  A    between atoms: C_9  and  N_10
DOCKED: REMARK                            x       y       z     vdW  Elec       q    Type
DOCKED: REMARK                         _______ _______ _______ _____ _____    ______ ____
DOCKED: USER                              x       y       z     vdW  Elec       q    Type
DOCKED: USER                           _______ _______ _______ _____ _____    ______ ____
DOCKED: ROOT
DOCKED: ATOM      1  N   UNL     1      16.354 -11.665  -1.010 -0.29 +0.00    +0.000 N 
DOCKED: ATOM      2  C   UNL     1      17.169 -10.871  -1.893 -0.15 -0.00    +0.000 C 
DOCKED: ATOM      3  C   UNL     1      18.582 -10.593  -1.546 -0.30 -0.00    +0.000 A 
DOCKED: ATOM      4  C   UNL     1      19.397  -9.844  -2.414 -0.21 -0.00    +0.000 A 
DOCKED: ATOM      5  C   UNL     1      20.728  -9.582  -2.087 -0.49 -0.00    +0.000 A 
DOCKED: ATOM      6  C   UNL     1      21.268 -10.058  -0.893 -0.61 -0.00    +0.000 A 
DOCKED: ATOM      7  C   UNL     1      20.475 -10.806  -0.010 -0.58 -0.00    +0.000 A 
DOCKED: ATOM      8  C   UNL     1      21.017 -11.283   1.192 -0.51 -0.00    +0.000 A 
DOCKED: ATOM      9  C   UNL     1      20.228 -12.024   2.072 -0.68 -0.00    +0.000 A 
DOCKED: ATOM     10  C   UNL     1      18.895 -12.298   1.763 -0.46 -0.00    +0.000 A 
DOCKED: ATOM     11  C   UNL     1      18.328 -11.831   0.563 -0.49 -0.00    +0.000 A 
DOCKED: ATOM     12  C   UNL     1      19.121 -11.079  -0.333 -0.46 -0.00    +0.000 A 
DOCKED: ATOM     13  O   UNL     1      16.681 -10.409  -2.961 -0.28 -0.00    +0.000 OA
DOCKED: ATOM     14  C   UNL     1      16.914 -12.122   0.236 -0.50 +0.00    +0.000 C 
DOCKED: ATOM     15  O   UNL     1      16.198 -12.767   1.052 -1.05 +0.00    +0.000 OA
DOCKED: ENDROOT
DOCKED: BRANCH   1  16
DOCKED: ATOM     16  C   UNL     1      14.941 -11.917  -1.327 -0.39 +0.00    +0.000 C 
DOCKED: BRANCH  16  17
DOCKED: ATOM     17  C   UNL     1      14.037 -11.126  -0.377 -0.35 +0.00    +0.000 C 
DOCKED: BRANCH  17  18
DOCKED: ATOM     18  C   UNL     1      14.343  -9.625  -0.445 -0.25 +0.00    +0.000 C 
DOCKED: BRANCH  18  19
DOCKED: ATOM     19  C   UNL     1      15.257  -9.198   0.713 -0.27 +0.00    +0.000 C 
DOCKED: BRANCH  19  20
DOCKED: ATOM     20  C   UNL     1      14.493  -9.059   2.037 -0.28 +0.00    +0.000 C 
DOCKED: BRANCH  20  22
DOCKED: ATOM     21  O   UNL     1      15.429  -8.805   4.222 -0.42 +0.00    +0.000 OA
DOCKED: ATOM     22  C   UNL     1      15.308  -9.538   3.204 -0.41 +0.00    +0.000 C 
DOCKED: ATOM     23  N   UNL     1      15.917 -10.830   3.178 -0.46 +0.00    +0.000 N 
DOCKED: ATOM     24  O   UNL     1      16.637 -11.269   4.237 -0.60 +0.00    +0.000 OA
DOCKED: ATOM     25  H   UNL     1      15.812 -11.406   2.386 -0.01 +0.00    +0.000 HD
DOCKED: ENDBRANCH  20  22
DOCKED: ENDBRANCH  19  20
DOCKED: ENDBRANCH  18  19
DOCKED: ENDBRANCH  17  18
DOCKED: ENDBRANCH  16  17
DOCKED: ENDBRANCH   1  16
DOCKED: TORSDOF 6
DOCKED: TER
DOCKED: ENDMDL
________________________________________________________________________________


	BEGINNING GENETIC ALGORITHM DOCKING 10 of 100
Run: 10 Seed: 113638500 427315565 [ Run 10 of 100 GA/GALS ]
Beginning LAMARCKIAN GENETIC ALGORITHM (LGA), with a maximum of 2500000 energy evaluations.

Final-Value: -12.999


	FINAL GENETIC ALGORITHM DOCKED STATE
	_______________________________________________


Detailed state:  trans 16.190 -12.312 -1.387 quatxyzw 0.146209 -0.964402 0.018853 0.219535 center -0.023 0.069 -0.054 ntor 6 -179.9801 -138.7418 50.1375 -83.4067 69.2923 -165.1719
State:	 16.190 -12.312  -1.387   0.150 -0.989  0.019 154.637   -179.98 -138.74   50.14  -83.41   69.29 -165.17

DOCKED: MODEL       10
DOCKED: USER    Run = 10
DOCKED: USER    DPF = ligand_dock.biased.dpf
DOCKED: USER  
DOCKED: USER    Estimated Free Energy of Binding    =   -8.93 kcal/mol  [=(1)+(2)+(3)-(4)]
DOCKED: USER    Estimated Inhibition Constant, Ki   =  282.68 nM (nanomolar)  [Temperature = 298.15 K]
DOCKED: USER    
DOCKED: USER    (1) Final Intermolecular Energy     =  -10.72 kcal/mol
DOCKED: USER        vdW + Hbond + desolv Energy     =  -10.72 kcal/mol
DOCKED: USER        Electrostatic Energy            =   +0.00 kcal/mol
DOCKED: USER    (2) Final Total Internal Energy     =   -2.28 kcal/mol
DOCKED: USER    (3) Torsional Free Energy           =   +1.79 kcal/mol
DOCKED: USER    (4) Unbound System's Energy  [=(2)] =   -2.28 kcal/mol
DOCKED: USER    
DOCKED: USER    
DOCKED: USER    NEWDPF move ligand.pdbqt
DOCKED: USER    NEWDPF about -0.023000 0.069000 -0.054000
DOCKED: USER    NEWDPF tran0 16.190262 -12.311888 -1.386905
DOCKED: USER    NEWDPF quaternion0 0.146209 -0.964402 0.018853 0.219535
DOCKED: USER    NEWDPF axisangle0 0.149865 -0.988518 0.019325 154.636503
DOCKED: USER    NEWDPF quat0 0.149865 -0.988518 0.019325 154.636503
DOCKED: USER    NEWDPF dihe0 -179.98 -138.74 50.14 -83.41 69.29 -165.17 
DOCKED: USER  keepresnum = 1 
DOCKED: USER  
DOCKED: REMARK  Name = 
DOCKED: REMARK  6 active torsions:
DOCKED: REMARK  status: ('A' for Active; 'I' for Inactive)
DOCKED: REMARK    1  A    between atoms: C_2  and  C_5
DOCKED: REMARK    2  A    between atoms: C_5  and  C_6
DOCKED: REMARK    3  A    between atoms: C_6  and  C_7
DOCKED: REMARK    4  A    between atoms: C_7  and  C_8
DOCKED: REMARK    5  A    between atoms: C_8  and  C_9
DOCKED: REMARK    6  A    between atoms: C_9  and  N_10
DOCKED: REMARK                            x       y       z     vdW  Elec       q    Type
DOCKED: REMARK                         _______ _______ _______ _____ _____    ______ ____
DOCKED: USER                              x       y       z     vdW  Elec       q    Type
DOCKED: USER                           _______ _______ _______ _____ _____    ______ ____
DOCKED: ROOT
DOCKED: ATOM      1  N   UNL     1      16.473 -11.473  -1.137 -0.27 +0.00    +0.000 N 
DOCKED: ATOM      2  C   UNL     1      16.940 -12.065   0.090 -0.49 +0.00    +0.000 C 
DOCKED: ATOM      3  C   UNL     1      18.337 -11.849   0.531 -0.49 -0.00    +0.000 A 
DOCKED: ATOM      4  C   UNL     1      18.796 -12.395   1.743 -0.42 -0.00    +0.000 A 
DOCKED: ATOM      5  C   UNL     1      20.113 -12.193   2.158 -0.62 -0.00    +0.000 A 
DOCKED: ATOM      6  C   UNL     1      20.992 -11.446   1.375 -0.51 -0.00    +0.000 A 
DOCKED: ATOM      7  C   UNL     1      20.559 -10.892   0.162 -0.60 -0.00    +0.000 A 
DOCKED: ATOM      8  C   UNL     1      21.443 -10.142  -0.627 -0.62 -0.00    +0.000 A 
DOCKED: ATOM      9  C   UNL     1      21.013  -9.594  -1.835 -0.53 -0.00    +0.000 A 
DOCKED: ATOM     10  C   UNL     1      19.700  -9.784  -2.268 -0.28 -0.00    +0.000 A 
DOCKED: ATOM     11  C   UNL     1      18.793 -10.531  -1.494 -0.32 -0.00    +0.000 A 
DOCKED: ATOM     12  C   UNL     1      19.221 -11.091  -0.269 -0.47 -0.00    +0.000 A 
DOCKED: ATOM     13  O   UNL     1      16.160 -12.768   0.790 -1.10 +0.00    +0.000 OA
DOCKED: ATOM     14  C   UNL     1      17.400 -10.733  -1.954 -0.19 -0.00    +0.000 C 
DOCKED: ATOM     15  O   UNL     1      17.028 -10.259  -3.063 -0.29 -0.00    +0.000 OA
DOCKED: ENDROOT
DOCKED: BRANCH   1  16
DOCKED: ATOM     16  C   UNL     1      15.099 -11.710  -1.602 -0.32 +0.00    +0.000 C 
DOCKED: BRANCH  16  17
DOCKED: ATOM     17  C   UNL     1      14.252 -10.447  -1.419 -0.29 -0.00    +0.000 C 
DOCKED: BRANCH  17  18
DOCKED: ATOM     18  C   UNL     1      13.201 -10.641  -0.321 -0.30 +0.00    +0.000 C 
DOCKED: BRANCH  18  19
DOCKED: ATOM     19  C   UNL     1      13.693 -10.072   1.018 -0.24 +0.00    +0.000 C 
DOCKED: BRANCH  19  20
DOCKED: ATOM     20  C   UNL     1      13.610 -11.101   2.154 -0.40 +0.00    +0.000 C 
DOCKED: BRANCH  20  22
DOCKED: ATOM     21  O   UNL     1      14.285 -10.241   4.280 -0.46 +0.00    +0.000 OA
DOCKED: ATOM     22  C   UNL     1      14.630 -10.834   3.223 -0.46 +0.00    +0.000 C 
DOCKED: ATOM     23  N   UNL     1      15.980 -11.277   3.061 -0.49 +0.00    +0.000 N 
DOCKED: ATOM     24  O   UNL     1      16.895 -11.052   4.032 -0.55 +0.00    +0.000 OA
DOCKED: ATOM     25  H   UNL     1      16.245 -11.751   2.240 -0.02 +0.00    +0.000 HD
DOCKED: ENDBRANCH  20  22
DOCKED: ENDBRANCH  19  20
DOCKED: ENDBRANCH  18  19
DOCKED: ENDBRANCH  17  18
DOCKED: ENDBRANCH  16  17
DOCKED: ENDBRANCH   1  16
DOCKED: TORSDOF 6
DOCKED: TER
DOCKED: ENDMDL
________________________________________________________________________________


	BEGINNING GENETIC ALGORITHM DOCKING 11 of 100
Run: 11 Seed: 1666045915 620887724 [ Run 11 of 100 GA/GALS ]
Beginning LAMARCKIAN GENETIC ALGORITHM (LGA), with a maximum of 2500000 energy evaluations.

Final-Value: -12.234


	FINAL GENETIC ALGORITHM DOCKED STATE
	_______________________________________________


Detailed state:  trans 21.065 -11.953 -5.389 quatxyzw 0.077126 -0.832169 -0.050724 -0.546784 center -0.023 0.069 -0.054 ntor 6 122.0731 -19.0397 98.6284 -50.7784 -27.5660 -170.6563
State:	 21.065 -11.953  -5.389   0.092 -0.994 -0.061 -113.707    122.07  -19.04   98.63  -50.78  -27.57 -170.66

DOCKED: MODEL       11
DOCKED: USER    Run = 11
DOCKED: USER    DPF = ligand_dock.biased.dpf
DOCKED: USER  
DOCKED: USER    Estimated Free Energy of Binding    =   -9.72 kcal/mol  [=(1)+(2)+(3)-(4)]
DOCKED: USER    Estimated Inhibition Constant, Ki   =   75.10 nM (nanomolar)  [Temperature = 298.15 K]
DOCKED: USER    
DOCKED: USER    (1) Final Intermolecular Energy     =  -11.51 kcal/mol
DOCKED: USER        vdW + Hbond + desolv Energy     =  -11.51 kcal/mol
DOCKED: USER        Electrostatic Energy            =   +0.00 kcal/mol
DOCKED: USER    (2) Final Total Internal Energy     =   -0.72 kcal/mol
DOCKED: USER    (3) Torsional Free Energy           =   +1.79 kcal/mol
DOCKED: USER    (4) Unbound System's Energy  [=(2)] =   -0.72 kcal/mol
DOCKED: USER    
DOCKED: USER    
DOCKED: USER    NEWDPF move ligand.pdbqt
DOCKED: USER    NEWDPF about -0.023000 0.069000 -0.054000
DOCKED: USER    NEWDPF tran0 21.065046 -11.953240 -5.389123
DOCKED: USER    NEWDPF quaternion0 0.077126 -0.832169 -0.050724 -0.546784
DOCKED: USER    NEWDPF axisangle0 0.092116 -0.993904 -0.060582 -113.706645
DOCKED: USER    NEWDPF quat0 0.092116 -0.993904 -0.060582 -113.706645
DOCKED: USER    NEWDPF dihe0 122.07 -19.04 98.63 -50.78 -27.57 -170.66 
DOCKED: USER  keepresnum = 1 
DOCKED: USER  
DOCKED: REMARK  Name = 
DOCKED: REMARK  6 active torsions:
DOCKED: REMARK  status: ('A' for Active; 'I' for Inactive)
DOCKED: REMARK    1  A    between atoms: C_2  and  C_5
DOCKED: REMARK    2  A    between atoms: C_5  and  C_6
DOCKED: REMARK    3  A    between atoms: C_6  and  C_7
DOCKED: REMARK    4  A    between atoms: C_7  and  C_8
DOCKED: REMARK    5  A    between atoms: C_8  and  C_9
DOCKED: REMARK    6  A    between atoms: C_9  and  N_10
DOCKED: REMARK                            x       y       z     vdW  Elec       q    Type
DOCKED: REMARK                         _______ _______ _______ _____ _____    ______ ____
DOCKED: USER                              x       y       z     vdW  Elec       q    Type
DOCKED: USER                           _______ _______ _______ _____ _____    ______ ____
DOCKED: ROOT
DOCKED: ATOM      1  N   UNL     1      21.319 -11.157  -5.772 -0.44 -0.00    +0.000 N 
DOCKED: ATOM      2  C   UNL     1      22.516 -11.823  -6.214 -0.51 -0.00    +0.000 C 
DOCKED: ATOM      3  C   UNL     1      22.908 -11.774  -7.641 -0.39 -0.00    +0.000 A 
DOCKED: ATOM      4  C   UNL     1      24.091 -12.394  -8.079 -0.40 -0.00    +0.000 A 
DOCKED: ATOM      5  C   UNL     1      24.461 -12.348  -9.425 -0.35 -0.00    +0.000 A 
DOCKED: ATOM      6  C   UNL     1      23.658 -11.686 -10.353 -0.18 -0.00    +0.000 A 
DOCKED: ATOM      7  C   UNL     1      22.472 -11.060  -9.941 -0.18 -0.00    +0.000 A 
DOCKED: ATOM      8  C   UNL     1      21.665 -10.396 -10.874 -0.11 -0.00    +0.000 A 
DOCKED: ATOM      9  C   UNL     1      20.484  -9.777 -10.466 -0.11 -0.00    +0.000 A 
DOCKED: ATOM     10  C   UNL     1      20.098  -9.811  -9.125 -0.15 -0.00    +0.000 A 
DOCKED: ATOM     11  C   UNL     1      20.891 -10.469  -8.169 -0.22 -0.00    +0.000 A 
DOCKED: ATOM     12  C   UNL     1      22.089 -11.100  -8.575 -0.25 -0.00    +0.000 A 
DOCKED: ATOM     13  O   UNL     1      23.233 -12.451  -5.386 -0.59 -0.00    +0.000 OA
DOCKED: ATOM     14  C   UNL     1      20.481 -10.506  -6.747 -0.32 -0.00    +0.000 C 
DOCKED: ATOM     15  O   UNL     1      19.396  -9.969  -6.391 -0.23 -0.00    +0.000 OA
DOCKED: ENDROOT
DOCKED: BRANCH   1  16
DOCKED: ATOM     16  C   UNL     1      20.902 -11.230  -4.365 -0.50 -0.00    +0.000 C 
DOCKED: BRANCH  16  17
DOCKED: ATOM     17  C   UNL     1      21.265  -9.932  -3.637 -0.49 -0.00    +0.000 C 
DOCKED: BRANCH  17  18
DOCKED: ATOM     18  C   UNL     1      20.312  -9.670  -2.465 -0.47 -0.00    +0.000 C 
DOCKED: BRANCH  18  19
DOCKED: ATOM     19  C   UNL     1      21.095  -9.372  -1.177 -0.63 -0.00    +0.000 C 
DOCKED: BRANCH  19  20
DOCKED: ATOM     20  C   UNL     1      21.648 -10.647  -0.525 -0.62 -0.00    +0.000 C 
DOCKED: BRANCH  20  22
DOCKED: ATOM     21  O   UNL     1      19.440 -11.332   0.080 -0.64 -0.00    +0.000 OA
DOCKED: ATOM     22  C   UNL     1      20.654 -11.270   0.412 -0.65 -0.00    +0.000 C 
DOCKED: ATOM     23  N   UNL     1      21.082 -11.821   1.660 -0.66 -0.00    +0.000 N 
DOCKED: ATOM     24  O   UNL     1      20.188 -12.398   2.496 -1.92 -0.00    +0.000 OA
DOCKED: ATOM     25  H   UNL     1      22.033 -11.781   1.912 -0.48 -0.00    +0.000 HD
DOCKED: ENDBRANCH  20  22
DOCKED: ENDBRANCH  19  20
DOCKED: ENDBRANCH  18  19
DOCKED: ENDBRANCH  17  18
DOCKED: ENDBRANCH  16  17
DOCKED: ENDBRANCH   1  16
DOCKED: TORSDOF 6
DOCKED: TER
DOCKED: ENDMDL
________________________________________________________________________________


	BEGINNING GENETIC ALGORITHM DOCKING 12 of 100
Run: 12 Seed: 1327309771 607021606 [ Run 12 of 100 GA/GALS ]
Beginning LAMARCKIAN GENETIC ALGORITHM (LGA), with a maximum of 2500000 energy evaluations.

Final-Value: -12.612


	FINAL GENETIC ALGORITHM DOCKED STATE
	_______________________________________________


Detailed state:  trans 18.699 -11.016 1.472 quatxyzw 0.971948 -0.092029 -0.142153 -0.163219 center -0.023 0.069 -0.054 ntor 6 171.9851 18.3789 38.8933 2.8248 85.1344 30.6154
State:	 18.699 -11.016   1.472   0.985 -0.093 -0.144 -161.212    171.99   18.38   38.89    2.82   85.13   30.62

DOCKED: MODEL       12
DOCKED: USER    Run = 12
DOCKED: USER    DPF = ligand_dock.biased.dpf
DOCKED: USER  
DOCKED: USER    Estimated Free Energy of Binding    =   -9.93 kcal/mol  [=(1)+(2)+(3)-(4)]
DOCKED: USER    Estimated Inhibition Constant, Ki   =   52.45 nM (nanomolar)  [Temperature = 298.15 K]
DOCKED: USER    
DOCKED: USER    (1) Final Intermolecular Energy     =  -11.72 kcal/mol
DOCKED: USER        vdW + Hbond + desolv Energy     =  -11.72 kcal/mol
DOCKED: USER        Electrostatic Energy            =   +0.00 kcal/mol
DOCKED: USER    (2) Final Total Internal Energy     =   -0.89 kcal/mol
DOCKED: USER    (3) Torsional Free Energy           =   +1.79 kcal/mol
DOCKED: USER    (4) Unbound System's Energy  [=(2)] =   -0.89 kcal/mol
DOCKED: USER    
DOCKED: USER    
DOCKED: USER    NEWDPF move ligand.pdbqt
DOCKED: USER    NEWDPF about -0.023000 0.069000 -0.054000
DOCKED: USER    NEWDPF tran0 18.699095 -11.016321 1.472345
DOCKED: USER    NEWDPF quaternion0 0.971948 -0.092029 -0.142153 -0.163219
DOCKED: USER    NEWDPF axisangle0 0.985159 -0.093280 -0.144085 -161.212438
DOCKED: USER    NEWDPF quat0 0.985159 -0.093280 -0.144085 -161.212438
DOCKED: USER    NEWDPF dihe0 171.99 18.38 38.89 2.82 85.13 30.62 
DOCKED: USER  keepresnum = 1 
DOCKED: USER  
DOCKED: REMARK  Name = 
DOCKED: REMARK  6 active torsions:
DOCKED: REMARK  status: ('A' for Active; 'I' for Inactive)
DOCKED: REMARK    1  A    between atoms: C_2  and  C_5
DOCKED: REMARK    2  A    between atoms: C_5  and  C_6
DOCKED: REMARK    3  A    between atoms: C_6  and  C_7
DOCKED: REMARK    4  A    between atoms: C_7  and  C_8
DOCKED: REMARK    5  A    between atoms: C_8  and  C_9
DOCKED: REMARK    6  A    between atoms: C_9  and  N_10
DOCKED: REMARK                            x       y       z     vdW  Elec       q    Type
DOCKED: REMARK                         _______ _______ _______ _____ _____    ______ ____
DOCKED: USER                              x       y       z     vdW  Elec       q    Type
DOCKED: USER                           _______ _______ _______ _____ _____    ______ ____
DOCKED: ROOT
DOCKED: ATOM      1  N   UNL     1      18.074 -11.510   1.932 -0.46 +0.00    +0.000 N 
DOCKED: ATOM      2  C   UNL     1      17.765 -10.314   2.672 -0.52 +0.00    +0.000 C 
DOCKED: ATOM      3  C   UNL     1      16.364  -9.843   2.765 -0.39 +0.00    +0.000 A 
DOCKED: ATOM      4  C   UNL     1      16.045  -8.694   3.510 -0.29 +0.00    +0.000 A 
DOCKED: ATOM      5  C   UNL     1      14.725  -8.248   3.598 -0.31 +0.00    +0.000 A 
DOCKED: ATOM      6  C   UNL     1      13.705  -8.939   2.946 -0.22 +0.00    +0.000 A 
DOCKED: ATOM      7  C   UNL     1      13.997 -10.087   2.195 -0.27 +0.00    +0.000 A 
DOCKED: ATOM      8  C   UNL     1      12.971 -10.779   1.537 -0.30 +0.00    +0.000 A 
DOCKED: ATOM      9  C   UNL     1      13.261 -11.919   0.788 -0.38 +0.00    +0.000 A 
DOCKED: ATOM     10  C   UNL     1      14.575 -12.381   0.689 -0.43 +0.00    +0.000 A 
DOCKED: ATOM     11  C   UNL     1      15.622 -11.704   1.340 -0.40 +0.00    +0.000 A 
DOCKED: ATOM     12  C   UNL     1      15.335 -10.548   2.100 -0.34 +0.00    +0.000 A 
DOCKED: ATOM     13  O   UNL     1      18.687  -9.666   3.240 -0.52 -0.00    +0.000 OA
DOCKED: ATOM     14  C   UNL     1      17.015 -12.194   1.234 -0.45 +0.00    +0.000 C 
DOCKED: ATOM     15  O   UNL     1      17.274 -13.209   0.529 -1.12 +0.00    +0.000 OA
DOCKED: ENDROOT
DOCKED: BRANCH   1  16
DOCKED: ATOM     16  C   UNL     1      19.465 -11.967   1.802 -0.72 -0.00    +0.000 C 
DOCKED: BRANCH  16  17
DOCKED: ATOM     17  C   UNL     1      20.328 -10.866   1.178 -0.70 -0.00    +0.000 C 
DOCKED: BRANCH  17  18
DOCKED: ATOM     18  C   UNL     1      20.449 -11.052  -0.338 -0.52 -0.00    +0.000 C 
DOCKED: BRANCH  18  19
DOCKED: ATOM     19  C   UNL     1      21.378  -9.992  -0.949 -0.68 -0.00    +0.000 C 
DOCKED: BRANCH  19  20
DOCKED: ATOM     20  C   UNL     1      20.830  -9.429  -2.268 -0.53 -0.00    +0.000 C 
DOCKED: BRANCH  20  22
DOCKED: ATOM     21  O   UNL     1      19.252 -10.954  -3.216 -0.43 -0.00    +0.000 OA
DOCKED: ATOM     22  C   UNL     1      20.436 -10.522  -3.219 -0.50 -0.00    +0.000 C 
DOCKED: ATOM     23  N   UNL     1      21.386 -11.050  -4.147 -0.49 -0.00    +0.000 N 
DOCKED: ATOM     24  O   UNL     1      21.026 -12.023  -5.016 -0.74 -0.00    +0.000 OA
DOCKED: ATOM     25  H   UNL     1      22.307 -10.703  -4.156 -0.04 -0.00    +0.000 HD
DOCKED: ENDBRANCH  20  22
DOCKED: ENDBRANCH  19  20
DOCKED: ENDBRANCH  18  19
DOCKED: ENDBRANCH  17  18
DOCKED: ENDBRANCH  16  17
DOCKED: ENDBRANCH   1  16
DOCKED: TORSDOF 6
DOCKED: TER
DOCKED: ENDMDL
________________________________________________________________________________


	BEGINNING GENETIC ALGORITHM DOCKING 13 of 100
Run: 13 Seed: 1322876337 1068739725 [ Run 13 of 100 GA/GALS ]
Beginning LAMARCKIAN GENETIC ALGORITHM (LGA), with a maximum of 2500000 energy evaluations.

Final-Value: -12.008


	FINAL GENETIC ALGORITHM DOCKED STATE
	_______________________________________________


Detailed state:  trans 17.222 -12.284 1.030 quatxyzw -0.294307 0.896218 -0.117285 0.310518 center -0.023 0.069 -0.054 ntor 6 -165.3657 -83.2028 -170.6600 9.5267 19.6700 170.2995
State:	 17.222 -12.284   1.030  -0.310  0.943 -0.123 143.819   -165.37  -83.20 -170.66    9.53   19.67  170.30

DOCKED: MODEL       13
DOCKED: USER    Run = 13
DOCKED: USER    DPF = ligand_dock.biased.dpf
DOCKED: USER  
DOCKED: USER    Estimated Free Energy of Binding    =   -9.48 kcal/mol  [=(1)+(2)+(3)-(4)]
DOCKED: USER    Estimated Inhibition Constant, Ki   =  111.89 nM (nanomolar)  [Temperature = 298.15 K]
DOCKED: USER    
DOCKED: USER    (1) Final Intermolecular Energy     =  -11.27 kcal/mol
DOCKED: USER        vdW + Hbond + desolv Energy     =  -11.27 kcal/mol
DOCKED: USER        Electrostatic Energy            =   +0.00 kcal/mol
DOCKED: USER    (2) Final Total Internal Energy     =   -0.74 kcal/mol
DOCKED: USER    (3) Torsional Free Energy           =   +1.79 kcal/mol
DOCKED: USER    (4) Unbound System's Energy  [=(2)] =   -0.74 kcal/mol
DOCKED: USER    
DOCKED: USER    
DOCKED: USER    NEWDPF move ligand.pdbqt
DOCKED: USER    NEWDPF about -0.023000 0.069000 -0.054000
DOCKED: USER    NEWDPF tran0 17.221903 -12.283625 1.030103
DOCKED: USER    NEWDPF quaternion0 -0.294307 0.896218 -0.117285 0.310518
DOCKED: USER    NEWDPF axisangle0 -0.309612 0.942824 -0.123385 143.819100
DOCKED: USER    NEWDPF quat0 -0.309612 0.942824 -0.123385 143.819100
DOCKED: USER    NEWDPF dihe0 -165.37 -83.20 -170.66 9.53 19.67 170.30 
DOCKED: USER  keepresnum = 1 
DOCKED: USER  
DOCKED: REMARK  Name = 
DOCKED: REMARK  6 active torsions:
DOCKED: REMARK  status: ('A' for Active; 'I' for Inactive)
DOCKED: REMARK    1  A    between atoms: C_2  and  C_5
DOCKED: REMARK    2  A    between atoms: C_5  and  C_6
DOCKED: REMARK    3  A    between atoms: C_6  and  C_7
DOCKED: REMARK    4  A    between atoms: C_7  and  C_8
DOCKED: REMARK    5  A    between atoms: C_8  and  C_9
DOCKED: REMARK    6  A    between atoms: C_9  and  N_10
DOCKED: REMARK                            x       y       z     vdW  Elec       q    Type
DOCKED: REMARK                         _______ _______ _______ _____ _____    ______ ____
DOCKED: USER                              x       y       z     vdW  Elec       q    Type
DOCKED: USER                           _______ _______ _______ _____ _____    ______ ____
DOCKED: ROOT
DOCKED: ATOM      1  N   UNL     1      17.216 -11.424   0.704 -0.40 +0.00    +0.000 N 
DOCKED: ATOM      2  C   UNL     1      18.628 -11.376   0.982 -0.56 -0.00    +0.000 C 
DOCKED: ATOM      3  C   UNL     1      19.579 -10.974  -0.080 -0.50 -0.00    +0.000 A 
DOCKED: ATOM      4  C   UNL     1      20.957 -10.893   0.187 -0.61 -0.00    +0.000 A 
DOCKED: ATOM      5  C   UNL     1      21.853 -10.516  -0.814 -0.43 -0.00    +0.000 A 
DOCKED: ATOM      6  C   UNL     1      21.392 -10.215  -2.095 -0.51 -0.00    +0.000 A 
DOCKED: ATOM      7  C   UNL     1      20.022 -10.289  -2.387 -0.43 -0.00    +0.000 A 
DOCKED: ATOM      8  C   UNL     1      19.559  -9.988  -3.675 -0.33 -0.00    +0.000 A 
DOCKED: ATOM      9  C   UNL     1      18.197 -10.065  -3.968 -0.26 -0.00    +0.000 A 
DOCKED: ATOM     10  C   UNL     1      17.285 -10.440  -2.980 -0.13 -0.00    +0.000 A 
DOCKED: ATOM     11  C   UNL     1      17.724 -10.746  -1.679 -0.23 -0.00    +0.000 A 
DOCKED: ATOM     12  C   UNL     1      19.103 -10.671  -1.376 -0.38 -0.00    +0.000 A 
DOCKED: ATOM     13  O   UNL     1      19.057 -11.677   2.130 -1.09 -0.00    +0.000 OA
DOCKED: ATOM     14  C   UNL     1      16.756 -11.144  -0.632 -0.37 -0.00    +0.000 C 
DOCKED: ATOM     15  O   UNL     1      15.530 -11.241  -0.913 -0.33 +0.00    +0.000 OA
DOCKED: ENDROOT
DOCKED: BRANCH   1  16
DOCKED: ATOM     16  C   UNL     1      16.267 -11.855   1.741 -0.44 +0.00    +0.000 C 
DOCKED: BRANCH  16  17
DOCKED: ATOM     17  C   UNL     1      15.930 -10.685   2.670 -0.47 +0.00    +0.000 C 
DOCKED: BRANCH  17  18
DOCKED: ATOM     18  C   UNL     1      15.358 -11.184   4.001 -0.50 +0.00    +0.000 C 
DOCKED: BRANCH  18  19
DOCKED: ATOM     19  C   UNL     1      14.797 -10.018   4.830 -0.39 +0.00    +0.000 C 
DOCKED: BRANCH  19  20
DOCKED: ATOM     20  C   UNL     1      14.670  -8.728   4.008 -0.39 +0.00    +0.000 C 
DOCKED: BRANCH  20  22
DOCKED: ATOM     21  O   UNL     1      15.776  -6.731   4.716 -0.55 +0.00    +0.000 OA
DOCKED: ATOM     22  C   UNL     1      14.793  -7.504   4.869 -0.42 +0.00    +0.000 C 
DOCKED: ATOM     23  N   UNL     1      13.786  -7.196   5.836 -0.44 +0.00    +0.000 N 
DOCKED: ATOM     24  O   UNL     1      13.888  -6.084   6.600 -1.10 +0.00    +0.000 OA
DOCKED: ATOM     25  H   UNL     1      13.013  -7.796   5.945 -0.02 +0.00    +0.000 HD
DOCKED: ENDBRANCH  20  22
DOCKED: ENDBRANCH  19  20
DOCKED: ENDBRANCH  18  19
DOCKED: ENDBRANCH  17  18
DOCKED: ENDBRANCH  16  17
DOCKED: ENDBRANCH   1  16
DOCKED: TORSDOF 6
DOCKED: TER
DOCKED: ENDMDL
________________________________________________________________________________


	BEGINNING GENETIC ALGORITHM DOCKING 14 of 100
Run: 14 Seed: 510181406 2053210327 [ Run 14 of 100 GA/GALS ]
Beginning LAMARCKIAN GENETIC ALGORITHM (LGA), with a maximum of 2500000 energy evaluations.

Final-Value: -12.532


	FINAL GENETIC ALGORITHM DOCKED STATE
	_______________________________________________


Detailed state:  trans 16.700 -9.820 -1.660 quatxyzw -0.461428 -0.261062 -0.847855 -0.008549 center -0.023 0.069 -0.054 ntor 6 -25.7778 -55.5152 -147.9700 83.5070 -8.0828 -150.4723
State:	 16.700  -9.820  -1.660  -0.461 -0.261 -0.848 -179.020    -25.78  -55.52 -147.97   83.51   -8.08 -150.47

DOCKED: MODEL       14
DOCKED: USER    Run = 14
DOCKED: USER    DPF = ligand_dock.biased.dpf
DOCKED: USER  
DOCKED: USER    Estimated Free Energy of Binding    =   -8.97 kcal/mol  [=(1)+(2)+(3)-(4)]
DOCKED: USER    Estimated Inhibition Constant, Ki   =  264.60 nM (nanomolar)  [Temperature = 298.15 K]
DOCKED: USER    
DOCKED: USER    (1) Final Intermolecular Energy     =  -10.76 kcal/mol
DOCKED: USER        vdW + Hbond + desolv Energy     =  -10.76 kcal/mol
DOCKED: USER        Electrostatic Energy            =   +0.00 kcal/mol
DOCKED: USER    (2) Final Total Internal Energy     =   -1.77 kcal/mol
DOCKED: USER    (3) Torsional Free Energy           =   +1.79 kcal/mol
DOCKED: USER    (4) Unbound System's Energy  [=(2)] =   -1.77 kcal/mol
DOCKED: USER    
DOCKED: USER    
DOCKED: USER    NEWDPF move ligand.pdbqt
DOCKED: USER    NEWDPF about -0.023000 0.069000 -0.054000
DOCKED: USER    NEWDPF tran0 16.699706 -9.819679 -1.659742
DOCKED: USER    NEWDPF quaternion0 -0.461428 -0.261062 -0.847855 -0.008549
DOCKED: USER    NEWDPF axisangle0 -0.461445 -0.261071 -0.847886 -179.020351
DOCKED: USER    NEWDPF quat0 -0.461445 -0.261071 -0.847886 -179.020351
DOCKED: USER    NEWDPF dihe0 -25.78 -55.52 -147.97 83.51 -8.08 -150.47 
DOCKED: USER  keepresnum = 1 
DOCKED: USER  
DOCKED: REMARK  Name = 
DOCKED: REMARK  6 active torsions:
DOCKED: REMARK  status: ('A' for Active; 'I' for Inactive)
DOCKED: REMARK    1  A    between atoms: C_2  and  C_5
DOCKED: REMARK    2  A    between atoms: C_5  and  C_6
DOCKED: REMARK    3  A    between atoms: C_6  and  C_7
DOCKED: REMARK    4  A    between atoms: C_7  and  C_8
DOCKED: REMARK    5  A    between atoms: C_8  and  C_9
DOCKED: REMARK    6  A    between atoms: C_9  and  N_10
DOCKED: REMARK                            x       y       z     vdW  Elec       q    Type
DOCKED: REMARK                         _______ _______ _______ _____ _____    ______ ____
DOCKED: USER                              x       y       z     vdW  Elec       q    Type
DOCKED: USER                           _______ _______ _______ _____ _____    ______ ____
DOCKED: ROOT
DOCKED: ATOM      1  N   UNL     1      17.155 -10.594  -1.856 -0.28 -0.00    +0.000 N 
DOCKED: ATOM      2  C   UNL     1      16.654 -10.474  -3.200 -0.15 -0.00    +0.000 C 
DOCKED: ATOM      3  C   UNL     1      17.591 -10.518  -4.347 -0.20 -0.00    +0.000 A 
DOCKED: ATOM      4  C   UNL     1      17.111 -10.432  -5.666 -0.23 -0.00    +0.000 A 
DOCKED: ATOM      5  C   UNL     1      17.993 -10.473  -6.746 -0.27 -0.00    +0.000 A 
DOCKED: ATOM      6  C   UNL     1      19.365 -10.599  -6.530 -0.29 -0.00    +0.000 A 
DOCKED: ATOM      7  C   UNL     1      19.869 -10.685  -5.224 -0.36 -0.00    +0.000 A 
DOCKED: ATOM      8  C   UNL     1      21.248 -10.809  -5.007 -0.45 -0.00    +0.000 A 
DOCKED: ATOM      9  C   UNL     1      21.750 -10.892  -3.709 -0.37 -0.00    +0.000 A 
DOCKED: ATOM     10  C   UNL     1      20.883 -10.853  -2.615 -0.35 -0.00    +0.000 A 
DOCKED: ATOM     11  C   UNL     1      19.496 -10.730  -2.806 -0.39 -0.00    +0.000 A 
DOCKED: ATOM     12  C   UNL     1      18.980 -10.645  -4.119 -0.33 -0.00    +0.000 A 
DOCKED: ATOM     13  O   UNL     1      15.417 -10.328  -3.404 -0.25 -0.00    +0.000 OA
DOCKED: ATOM     14  C   UNL     1      18.577 -10.689  -1.646 -0.37 -0.00    +0.000 C 
DOCKED: ATOM     15  O   UNL     1      19.041 -10.733  -0.473 -0.48 -0.00    +0.000 OA
DOCKED: ENDROOT
DOCKED: BRANCH   1  16
DOCKED: ATOM     16  C   UNL     1      16.238 -10.516  -0.710 -0.32 -0.00    +0.000 C 
DOCKED: BRANCH  16  17
DOCKED: ATOM     17  C   UNL     1      16.331 -11.792   0.131 -0.45 +0.00    +0.000 C 
DOCKED: BRANCH  17  18
DOCKED: ATOM     18  C   UNL     1      15.539 -11.653   1.436 -0.46 +0.00    +0.000 C 
DOCKED: BRANCH  18  19
DOCKED: ATOM     19  C   UNL     1      16.457 -11.234   2.594 -0.46 +0.00    +0.000 C 
DOCKED: BRANCH  19  20
DOCKED: ATOM     20  C   UNL     1      17.569 -10.280   2.139 -0.48 +0.00    +0.000 C 
DOCKED: BRANCH  20  22
DOCKED: ATOM     21  O   UNL     1      19.577 -10.280   3.436 -0.70 -0.00    +0.000 OA
DOCKED: ATOM     22  C   UNL     1      18.932 -10.805   2.489 -0.63 -0.00    +0.000 C 
DOCKED: ATOM     23  N   UNL     1      19.485 -11.913   1.776 -0.64 -0.00    +0.000 N 
DOCKED: ATOM     24  O   UNL     1      20.706 -12.397   2.102 -1.78 -0.00    +0.000 OA
DOCKED: ATOM     25  H   UNL     1      18.974 -12.328   1.044 -0.08 -0.00    +0.000 HD
DOCKED: ENDBRANCH  20  22
DOCKED: ENDBRANCH  19  20
DOCKED: ENDBRANCH  18  19
DOCKED: ENDBRANCH  17  18
DOCKED: ENDBRANCH  16  17
DOCKED: ENDBRANCH   1  16
DOCKED: TORSDOF 6
DOCKED: TER
DOCKED: ENDMDL
________________________________________________________________________________


	BEGINNING GENETIC ALGORITHM DOCKING 15 of 100
Run: 15 Seed: 1998697857 1113099882 [ Run 15 of 100 GA/GALS ]
Beginning LAMARCKIAN GENETIC ALGORITHM (LGA), with a maximum of 2500000 energy evaluations.

Final-Value: -12.347


	FINAL GENETIC ALGORITHM DOCKED STATE
	_______________________________________________


Detailed state:  trans 18.463 -11.139 1.142 quatxyzw 0.965207 -0.086747 -0.203898 -0.138837 center -0.023 0.069 -0.054 ntor 6 144.0801 153.9216 175.8131 -19.6467 -78.4945 4.9193
State:	 18.463 -11.139   1.142   0.975 -0.088 -0.206 -164.039    144.08  153.92  175.81  -19.65  -78.49    4.92

DOCKED: MODEL       15
DOCKED: USER    Run = 15
DOCKED: USER    DPF = ligand_dock.biased.dpf
DOCKED: USER  
DOCKED: USER    Estimated Free Energy of Binding    =   -9.51 kcal/mol  [=(1)+(2)+(3)-(4)]
DOCKED: USER    Estimated Inhibition Constant, Ki   =  107.43 nM (nanomolar)  [Temperature = 298.15 K]
DOCKED: USER    
DOCKED: USER    (1) Final Intermolecular Energy     =  -11.30 kcal/mol
DOCKED: USER        vdW + Hbond + desolv Energy     =  -11.30 kcal/mol
DOCKED: USER        Electrostatic Energy            =   +0.00 kcal/mol
DOCKED: USER    (2) Final Total Internal Energy     =   -1.05 kcal/mol
DOCKED: USER    (3) Torsional Free Energy           =   +1.79 kcal/mol
DOCKED: USER    (4) Unbound System's Energy  [=(2)] =   -1.05 kcal/mol
DOCKED: USER    
DOCKED: USER    
DOCKED: USER    NEWDPF move ligand.pdbqt
DOCKED: USER    NEWDPF about -0.023000 0.069000 -0.054000
DOCKED: USER    NEWDPF tran0 18.462660 -11.139482 1.141762
DOCKED: USER    NEWDPF quaternion0 0.965207 -0.086747 -0.203898 -0.138837
DOCKED: USER    NEWDPF axisangle0 0.974646 -0.087596 -0.205892 -164.038860
DOCKED: USER    NEWDPF quat0 0.974646 -0.087596 -0.205892 -164.038860
DOCKED: USER    NEWDPF dihe0 144.08 153.92 175.81 -19.65 -78.49 4.92 
DOCKED: USER  keepresnum = 1 
DOCKED: USER  
DOCKED: REMARK  Name = 
DOCKED: REMARK  6 active torsions:
DOCKED: REMARK  status: ('A' for Active; 'I' for Inactive)
DOCKED: REMARK    1  A    between atoms: C_2  and  C_5
DOCKED: REMARK    2  A    between atoms: C_5  and  C_6
DOCKED: REMARK    3  A    between atoms: C_6  and  C_7
DOCKED: REMARK    4  A    between atoms: C_7  and  C_8
DOCKED: REMARK    5  A    between atoms: C_8  and  C_9
DOCKED: REMARK    6  A    between atoms: C_9  and  N_10
DOCKED: REMARK                            x       y       z     vdW  Elec       q    Type
DOCKED: REMARK                         _______ _______ _______ _____ _____    ______ ____
DOCKED: USER                              x       y       z     vdW  Elec       q    Type
DOCKED: USER                           _______ _______ _______ _____ _____    ______ ____
DOCKED: ROOT
DOCKED: ATOM      1  N   UNL     1      17.886 -11.651   1.644 -0.46 +0.00    +0.000 N 
DOCKED: ATOM      2  C   UNL     1      17.692 -10.496   2.482 -0.52 +0.00    +0.000 C 
DOCKED: ATOM      3  C   UNL     1      16.323 -10.010   2.769 -0.39 +0.00    +0.000 A 
DOCKED: ATOM      4  C   UNL     1      16.119  -8.903   3.611 -0.30 +0.00    +0.000 A 
DOCKED: ATOM      5  C   UNL     1      14.829  -8.444   3.881 -0.33 +0.00    +0.000 A 
DOCKED: ATOM      6  C   UNL     1      13.724  -9.080   3.317 -0.25 +0.00    +0.000 A 
DOCKED: ATOM      7  C   UNL     1      13.900 -10.186   2.473 -0.28 +0.00    +0.000 A 
DOCKED: ATOM      8  C   UNL     1      12.789 -10.823   1.904 -0.29 +0.00    +0.000 A 
DOCKED: ATOM      9  C   UNL     1      12.964 -11.921   1.062 -0.37 +0.00    +0.000 A 
DOCKED: ATOM     10  C   UNL     1      14.247 -12.395   0.780 -0.38 +0.00    +0.000 A 
DOCKED: ATOM     11  C   UNL     1      15.377 -11.774   1.339 -0.41 +0.00    +0.000 A 
DOCKED: ATOM     12  C   UNL     1      15.208 -10.660   2.193 -0.36 +0.00    +0.000 A 
DOCKED: ATOM     13  O   UNL     1      18.689  -9.896   2.972 -0.62 -0.00    +0.000 OA
DOCKED: ATOM     14  C   UNL     1      16.738 -12.276   1.039 -0.48 +0.00    +0.000 C 
DOCKED: ATOM     15  O   UNL     1      16.889 -13.251   0.252 -1.22 +0.00    +0.000 OA
DOCKED: ENDROOT
DOCKED: BRANCH   1  16
DOCKED: ATOM     16  C   UNL     1      19.242 -12.119   1.323 -0.67 -0.00    +0.000 C 
DOCKED: BRANCH  16  17
DOCKED: ATOM     17  C   UNL     1      19.819 -11.311   0.157 -0.61 -0.00    +0.000 C 
DOCKED: BRANCH  17  18
DOCKED: ATOM     18  C   UNL     1      20.801 -10.245   0.657 -0.66 -0.00    +0.000 C 
DOCKED: BRANCH  18  19
DOCKED: ATOM     19  C   UNL     1      21.722  -9.772  -0.478 -0.58 -0.00    +0.000 C 
DOCKED: BRANCH  19  20
DOCKED: ATOM     20  C   UNL     1      21.440 -10.501  -1.799 -0.57 -0.00    +0.000 C 
DOCKED: BRANCH  20  22
DOCKED: ATOM     21  O   UNL     1      20.479  -8.671  -2.998 -0.39 -0.00    +0.000 OA
DOCKED: ATOM     22  C   UNL     1      20.331  -9.847  -2.570 -0.49 -0.00    +0.000 C 
DOCKED: ATOM     23  N   UNL     1      19.125 -10.562  -2.850 -0.36 -0.00    +0.000 N 
DOCKED: ATOM     24  O   UNL     1      18.132  -9.978  -3.560 -0.30 -0.00    +0.000 OA
DOCKED: ATOM     25  H   UNL     1      19.016 -11.485  -2.525 -0.02 -0.00    +0.000 HD
DOCKED: ENDBRANCH  20  22
DOCKED: ENDBRANCH  19  20
DOCKED: ENDBRANCH  18  19
DOCKED: ENDBRANCH  17  18
DOCKED: ENDBRANCH  16  17
DOCKED: ENDBRANCH   1  16
DOCKED: TORSDOF 6
DOCKED: TER
DOCKED: ENDMDL
________________________________________________________________________________


	BEGINNING GENETIC ALGORITHM DOCKING 16 of 100
Run: 16 Seed: 1508151652 1009348490 [ Run 16 of 100 GA/GALS ]
Beginning LAMARCKIAN GENETIC ALGORITHM (LGA), with a maximum of 2500000 energy evaluations.

Final-Value: -12.961


	FINAL GENETIC ALGORITHM DOCKED STATE
	_______________________________________________


Detailed state:  trans 20.633 -10.004 -1.789 quatxyzw 0.800153 -0.019924 -0.502690 0.326591 center -0.023 0.069 -0.054 ntor 6 -172.5747 -50.0582 -87.8609 103.1783 56.5597 10.2555
State:	 20.633 -10.004  -1.789   0.847 -0.021 -0.532 141.876   -172.57  -50.06  -87.86  103.18   56.56   10.26

DOCKED: MODEL       16
DOCKED: USER    Run = 16
DOCKED: USER    DPF = ligand_dock.biased.dpf
DOCKED: USER  
DOCKED: USER    Estimated Free Energy of Binding    =  -10.16 kcal/mol  [=(1)+(2)+(3)-(4)]
DOCKED: USER    Estimated Inhibition Constant, Ki   =   35.54 nM (nanomolar)  [Temperature = 298.15 K]
DOCKED: USER    
DOCKED: USER    (1) Final Intermolecular Energy     =  -11.95 kcal/mol
DOCKED: USER        vdW + Hbond + desolv Energy     =  -11.95 kcal/mol
DOCKED: USER        Electrostatic Energy            =   +0.00 kcal/mol
DOCKED: USER    (2) Final Total Internal Energy     =   -1.01 kcal/mol
DOCKED: USER    (3) Torsional Free Energy           =   +1.79 kcal/mol
DOCKED: USER    (4) Unbound System's Energy  [=(2)] =   -1.01 kcal/mol
DOCKED: USER    
DOCKED: USER    
DOCKED: USER    NEWDPF move ligand.pdbqt
DOCKED: USER    NEWDPF about -0.023000 0.069000 -0.054000
DOCKED: USER    NEWDPF tran0 20.632781 -10.004009 -1.789039
DOCKED: USER    NEWDPF quaternion0 0.800153 -0.019924 -0.502690 0.326591
DOCKED: USER    NEWDPF axisangle0 0.846574 -0.021080 -0.531854 141.876043
DOCKED: USER    NEWDPF quat0 0.846574 -0.021080 -0.531854 141.876043
DOCKED: USER    NEWDPF dihe0 -172.57 -50.06 -87.86 103.18 56.56 10.26 
DOCKED: USER  keepresnum = 1 
DOCKED: USER  
DOCKED: REMARK  Name = 
DOCKED: REMARK  6 active torsions:
DOCKED: REMARK  status: ('A' for Active; 'I' for Inactive)
DOCKED: REMARK    1  A    between atoms: C_2  and  C_5
DOCKED: REMARK    2  A    between atoms: C_5  and  C_6
DOCKED: REMARK    3  A    between atoms: C_6  and  C_7
DOCKED: REMARK    4  A    between atoms: C_7  and  C_8
DOCKED: REMARK    5  A    between atoms: C_8  and  C_9
DOCKED: REMARK    6  A    between atoms: C_9  and  N_10
DOCKED: REMARK                            x       y       z     vdW  Elec       q    Type
DOCKED: REMARK                         _______ _______ _______ _____ _____    ______ ____
DOCKED: USER                              x       y       z     vdW  Elec       q    Type
DOCKED: USER                           _______ _______ _______ _____ _____    ______ ____
DOCKED: ROOT
DOCKED: ATOM      1  N   UNL     1      20.153 -10.773  -1.635 -0.47 -0.00    +0.000 N 
DOCKED: ATOM      2  C   UNL     1      20.812 -10.853  -0.357 -0.63 -0.00    +0.000 C 
DOCKED: ATOM      3  C   UNL     1      20.011 -10.997   0.881 -0.60 -0.00    +0.000 A 
DOCKED: ATOM      4  C   UNL     1      20.644 -11.107   2.132 -0.60 -0.00    +0.000 A 
DOCKED: ATOM      5  C   UNL     1      19.890 -11.242   3.299 -0.65 -0.00    +0.000 A 
DOCKED: ATOM      6  C   UNL     1      18.497 -11.268   3.238 -0.37 -0.00    +0.000 A 
DOCKED: ATOM      7  C   UNL     1      17.842 -11.159   2.003 -0.44 +0.00    +0.000 A 
DOCKED: ATOM      8  C   UNL     1      16.442 -11.183   1.942 -0.39 +0.00    +0.000 A 
DOCKED: ATOM      9  C   UNL     1      15.791 -11.071   0.714 -0.32 +0.00    +0.000 A 
DOCKED: ATOM     10  C   UNL     1      16.527 -10.936  -0.464 -0.30 -0.00    +0.000 A 
DOCKED: ATOM     11  C   UNL     1      17.933 -10.910  -0.430 -0.35 -0.00    +0.000 A 
DOCKED: ATOM     12  C   UNL     1      18.600 -11.022   0.811 -0.46 -0.00    +0.000 A 
DOCKED: ATOM     13  O   UNL     1      22.071 -10.799  -0.290 -0.73 -0.00    +0.000 OA
DOCKED: ATOM     14  C   UNL     1      18.713 -10.766  -1.680 -0.40 -0.00    +0.000 C 
DOCKED: ATOM     15  O   UNL     1      18.115 -10.635  -2.784 -0.33 -0.00    +0.000 OA
DOCKED: ENDROOT
DOCKED: BRANCH   1  16
DOCKED: ATOM     16  C   UNL     1      20.936 -10.594  -2.866 -0.52 -0.00    +0.000 C 
DOCKED: BRANCH  16  17
DOCKED: ATOM     17  C   UNL     1      21.384  -9.136  -3.000 -0.48 -0.00    +0.000 C 
DOCKED: BRANCH  17  18
DOCKED: ATOM     18  C   UNL     1      20.910  -8.532  -4.327 -0.33 -0.00    +0.000 C 
DOCKED: BRANCH  18  19
DOCKED: ATOM     19  C   UNL     1      21.775  -9.025  -5.496 -0.30 -0.00    +0.000 C 
DOCKED: BRANCH  19  20
DOCKED: ATOM     20  C   UNL     1      21.156 -10.236  -6.208 -0.34 -0.00    +0.000 C 
DOCKED: BRANCH  20  22
DOCKED: ATOM     21  O   UNL     1      21.731 -12.400  -5.374 -0.82 -0.00    +0.000 OA
DOCKED: ATOM     22  C   UNL     1      22.045 -11.442  -6.131 -0.48 -0.00    +0.000 C 
DOCKED: ATOM     23  N   UNL     1      23.226 -11.524  -6.933 -0.48 -0.00    +0.000 N 
DOCKED: ATOM     24  O   UNL     1      24.018 -12.619  -6.876 -1.15 +0.00    +0.000 OA
DOCKED: ATOM     25  H   UNL     1      23.462 -10.779  -7.532 -0.01 -0.00    +0.000 HD
DOCKED: ENDBRANCH  20  22
DOCKED: ENDBRANCH  19  20
DOCKED: ENDBRANCH  18  19
DOCKED: ENDBRANCH  17  18
DOCKED: ENDBRANCH  16  17
DOCKED: ENDBRANCH   1  16
DOCKED: TORSDOF 6
DOCKED: TER
DOCKED: ENDMDL
________________________________________________________________________________


	BEGINNING GENETIC ALGORITHM DOCKING 17 of 100
Run: 17 Seed: 896801299 1173943880 [ Run 17 of 100 GA/GALS ]
Beginning LAMARCKIAN GENETIC ALGORITHM (LGA), with a maximum of 2500000 energy evaluations.

Final-Value: -12.605


	FINAL GENETIC ALGORITHM DOCKED STATE
	_______________________________________________


Detailed state:  trans 15.533 -9.973 2.082 quatxyzw 0.839722 -0.299846 -0.428743 -0.145395 center -0.023 0.069 -0.054 ntor 6 -169.5903 -142.2782 101.8698 152.2257 4.0839 -23.4680
State:	 15.533  -9.973   2.082   0.849 -0.303 -0.433 -163.280   -169.59 -142.28  101.87  152.23    4.08  -23.47

DOCKED: MODEL       17
DOCKED: USER    Run = 17
DOCKED: USER    DPF = ligand_dock.biased.dpf
DOCKED: USER  
DOCKED: USER    Estimated Free Energy of Binding    =   -9.02 kcal/mol  [=(1)+(2)+(3)-(4)]
DOCKED: USER    Estimated Inhibition Constant, Ki   =  244.11 nM (nanomolar)  [Temperature = 298.15 K]
DOCKED: USER    
DOCKED: USER    (1) Final Intermolecular Energy     =  -10.81 kcal/mol
DOCKED: USER        vdW + Hbond + desolv Energy     =  -10.81 kcal/mol
DOCKED: USER        Electrostatic Energy            =   +0.00 kcal/mol
DOCKED: USER    (2) Final Total Internal Energy     =   -1.79 kcal/mol
DOCKED: USER    (3) Torsional Free Energy           =   +1.79 kcal/mol
DOCKED: USER    (4) Unbound System's Energy  [=(2)] =   -1.79 kcal/mol
DOCKED: USER    
DOCKED: USER    
DOCKED: USER    NEWDPF move ligand.pdbqt
DOCKED: USER    NEWDPF about -0.023000 0.069000 -0.054000
DOCKED: USER    NEWDPF tran0 15.533205 -9.972773 2.082190
DOCKED: USER    NEWDPF quaternion0 0.839722 -0.299846 -0.428743 -0.145395
DOCKED: USER    NEWDPF axisangle0 0.848741 -0.303066 -0.433348 -163.279675
DOCKED: USER    NEWDPF quat0 0.848741 -0.303066 -0.433348 -163.279675
DOCKED: USER    NEWDPF dihe0 -169.59 -142.28 101.87 152.23 4.08 -23.47 
DOCKED: USER  keepresnum = 1 
DOCKED: USER  
DOCKED: REMARK  Name = 
DOCKED: REMARK  6 active torsions:
DOCKED: REMARK  status: ('A' for Active; 'I' for Inactive)
DOCKED: REMARK    1  A    between atoms: C_2  and  C_5
DOCKED: REMARK    2  A    between atoms: C_5  and  C_6
DOCKED: REMARK    3  A    between atoms: C_6  and  C_7
DOCKED: REMARK    4  A    between atoms: C_7  and  C_8
DOCKED: REMARK    5  A    between atoms: C_8  and  C_9
DOCKED: REMARK    6  A    between atoms: C_9  and  N_10
DOCKED: REMARK                            x       y       z     vdW  Elec       q    Type
DOCKED: REMARK                         _______ _______ _______ _____ _____    ______ ____
DOCKED: USER                              x       y       z     vdW  Elec       q    Type
DOCKED: USER                           _______ _______ _______ _____ _____    ______ ____
DOCKED: ROOT
DOCKED: ATOM      1  N   UNL     1      15.066 -10.147   2.855 -0.35 +0.00    +0.000 N 
DOCKED: ATOM      2  C   UNL     1      15.785  -9.057   3.461 -0.42 +0.00    +0.000 C 
DOCKED: ATOM      3  C   UNL     1      15.046  -7.971   4.146 -0.35 +0.00    +0.000 A 
DOCKED: ATOM      4  C   UNL     1      15.737  -6.917   4.768 -0.30 +0.00    +0.000 A 
DOCKED: ATOM      5  C   UNL     1      15.041  -5.894   5.413 -0.37 +0.00    +0.000 A 
DOCKED: ATOM      6  C   UNL     1      13.647  -5.904   5.447 -0.35 +0.00    +0.000 A 
DOCKED: ATOM      7  C   UNL     1      12.934  -6.943   4.832 -0.25 +0.00    +0.000 A 
DOCKED: ATOM      8  C   UNL     1      11.532  -6.952   4.864 -0.19 +0.00    +0.000 A 
DOCKED: ATOM      9  C   UNL     1      10.822  -7.984   4.251 -0.15 +0.00    +0.000 A 
DOCKED: ATOM     10  C   UNL     1      11.501  -9.017   3.602 -0.08 +0.00    +0.000 A 
DOCKED: ATOM     11  C   UNL     1      12.906  -9.031   3.556 -0.22 +0.00    +0.000 A 
DOCKED: ATOM     12  C   UNL     1      13.633  -7.989   4.175 -0.26 +0.00    +0.000 A 
DOCKED: ATOM     13  O   UNL     1      17.046  -9.023   3.408 -0.40 +0.00    +0.000 OA
DOCKED: ATOM     14  C   UNL     1      13.626 -10.127   2.867 -0.32 +0.00    +0.000 C 
DOCKED: ATOM     15  O   UNL     1      12.975 -11.041   2.288 -0.38 +0.00    +0.000 OA
DOCKED: ENDROOT
DOCKED: BRANCH   1  16
DOCKED: ATOM     16  C   UNL     1      15.788 -11.210   2.142 -0.46 +0.00    +0.000 C 
DOCKED: BRANCH  16  17
DOCKED: ATOM     17  C   UNL     1      15.503 -11.127   0.639 -0.37 +0.00    +0.000 C 
DOCKED: BRANCH  17  18
DOCKED: ATOM     18  C   UNL     1      16.167 -12.286  -0.114 -0.51 +0.00    +0.000 C 
DOCKED: BRANCH  18  19
DOCKED: ATOM     19  C   UNL     1      17.416 -12.781   0.630 -0.49 +0.00    +0.000 C 
DOCKED: BRANCH  19  20
DOCKED: ATOM     20  C   UNL     1      18.604 -11.822   0.476 -0.57 -0.00    +0.000 C 
DOCKED: BRANCH  20  22
DOCKED: ATOM     21  O   UNL     1      20.648 -12.351   1.595 -1.57 -0.00    +0.000 OA
DOCKED: ATOM     22  C   UNL     1      19.498 -11.843   1.682 -0.72 -0.00    +0.000 C 
DOCKED: ATOM     23  N   UNL     1      19.065 -11.263   2.914 -0.59 -0.00    +0.000 N 
DOCKED: ATOM     24  O   UNL     1      19.877 -11.268   3.996 -1.13 -0.00    +0.000 OA
DOCKED: ATOM     25  H   UNL     1      18.170 -10.857   2.976 -0.02 +0.00    +0.000 HD
DOCKED: ENDBRANCH  20  22
DOCKED: ENDBRANCH  19  20
DOCKED: ENDBRANCH  18  19
DOCKED: ENDBRANCH  17  18
DOCKED: ENDBRANCH  16  17
DOCKED: ENDBRANCH   1  16
DOCKED: TORSDOF 6
DOCKED: TER
DOCKED: ENDMDL
________________________________________________________________________________


	BEGINNING GENETIC ALGORITHM DOCKING 18 of 100
Run: 18 Seed: 1581402496 1315273620 [ Run 18 of 100 GA/GALS ]
Beginning LAMARCKIAN GENETIC ALGORITHM (LGA), with a maximum of 2500000 energy evaluations.

Final-Value: -13.106


	FINAL GENETIC ALGORITHM DOCKED STATE
	_______________________________________________


Detailed state:  trans 19.869 -10.220 0.540 quatxyzw 0.946931 0.090129 -0.196493 0.237883 center -0.023 0.069 -0.054 ntor 6 -73.3294 -56.6874 9.9988 169.6911 72.5080 -1.8896
State:	 19.869 -10.220   0.540   0.975  0.093 -0.202 152.477    -73.33  -56.69   10.00  169.69   72.51   -1.89

DOCKED: MODEL       18
DOCKED: USER    Run = 18
DOCKED: USER    DPF = ligand_dock.biased.dpf
DOCKED: USER  
DOCKED: USER    Estimated Free Energy of Binding    =   -9.54 kcal/mol  [=(1)+(2)+(3)-(4)]
DOCKED: USER    Estimated Inhibition Constant, Ki   =  100.87 nM (nanomolar)  [Temperature = 298.15 K]
DOCKED: USER    
DOCKED: USER    (1) Final Intermolecular Energy     =  -11.33 kcal/mol
DOCKED: USER        vdW + Hbond + desolv Energy     =  -11.33 kcal/mol
DOCKED: USER        Electrostatic Energy            =   +0.00 kcal/mol
DOCKED: USER    (2) Final Total Internal Energy     =   -1.77 kcal/mol
DOCKED: USER    (3) Torsional Free Energy           =   +1.79 kcal/mol
DOCKED: USER    (4) Unbound System's Energy  [=(2)] =   -1.77 kcal/mol
DOCKED: USER    
DOCKED: USER    
DOCKED: USER    NEWDPF move ligand.pdbqt
DOCKED: USER    NEWDPF about -0.023000 0.069000 -0.054000
DOCKED: USER    NEWDPF tran0 19.869258 -10.220432 0.540369
DOCKED: USER    NEWDPF quaternion0 0.946931 0.090129 -0.196493 0.237883
DOCKED: USER    NEWDPF axisangle0 0.974917 0.092793 -0.202301 152.476755
DOCKED: USER    NEWDPF quat0 0.974917 0.092793 -0.202301 152.476755
DOCKED: USER    NEWDPF dihe0 -73.33 -56.69 10.00 169.69 72.51 -1.89 
DOCKED: USER  keepresnum = 1 
DOCKED: USER  
DOCKED: REMARK  Name = 
DOCKED: REMARK  6 active torsions:
DOCKED: REMARK  status: ('A' for Active; 'I' for Inactive)
DOCKED: REMARK    1  A    between atoms: C_2  and  C_5
DOCKED: REMARK    2  A    between atoms: C_5  and  C_6
DOCKED: REMARK    3  A    between atoms: C_6  and  C_7
DOCKED: REMARK    4  A    between atoms: C_7  and  C_8
DOCKED: REMARK    5  A    between atoms: C_8  and  C_9
DOCKED: REMARK    6  A    between atoms: C_9  and  N_10
DOCKED: REMARK                            x       y       z     vdW  Elec       q    Type
DOCKED: REMARK                         _______ _______ _______ _____ _____    ______ ____
DOCKED: USER                              x       y       z     vdW  Elec       q    Type
DOCKED: USER                           _______ _______ _______ _____ _____    ______ ____
DOCKED: ROOT
DOCKED: ATOM      1  N   UNL     1      19.421 -11.020   0.460 -0.51 -0.00    +0.000 N 
DOCKED: ATOM      2  C   UNL     1      19.068 -10.888   1.850 -0.61 -0.00    +0.000 C 
DOCKED: ATOM      3  C   UNL     1      17.651 -10.993   2.267 -0.43 +0.00    +0.000 A 
DOCKED: ATOM      4  C   UNL     1      17.296 -10.897   3.624 -0.24 +0.00    +0.000 A 
DOCKED: ATOM      5  C   UNL     1      15.961 -10.995   4.018 -0.46 +0.00    +0.000 A 
DOCKED: ATOM      6  C   UNL     1      14.959 -11.189   3.067 -0.45 +0.00    +0.000 A 
DOCKED: ATOM      7  C   UNL     1      15.287 -11.286   1.707 -0.38 +0.00    +0.000 A 
DOCKED: ATOM      8  C   UNL     1      14.280 -11.478   0.751 -0.37 +0.00    +0.000 A 
DOCKED: ATOM      9  C   UNL     1      14.604 -11.572  -0.602 -0.35 +0.00    +0.000 A 
DOCKED: ATOM     10  C   UNL     1      15.934 -11.477  -1.015 -0.28 +0.00    +0.000 A 
DOCKED: ATOM     11  C   UNL     1      16.963 -11.285  -0.076 -0.35 +0.00    +0.000 A 
DOCKED: ATOM     12  C   UNL     1      16.642 -11.189   1.297 -0.37 +0.00    +0.000 A 
DOCKED: ATOM     13  O   UNL     1      19.965 -10.682   2.714 -0.93 -0.00    +0.000 OA
DOCKED: ATOM     14  C   UNL     1      18.374 -11.184  -0.515 -0.47 -0.00    +0.000 C 
DOCKED: ATOM     15  O   UNL     1      18.656 -11.239  -1.744 -0.44 -0.00    +0.000 OA
DOCKED: ENDROOT
DOCKED: BRANCH   1  16
DOCKED: ATOM     16  C   UNL     1      20.820 -10.881   0.032 -0.67 -0.00    +0.000 C 
DOCKED: BRANCH  16  17
DOCKED: ATOM     17  C   UNL     1      21.132  -9.417  -0.292 -0.64 -0.00    +0.000 C 
DOCKED: BRANCH  17  18
DOCKED: ATOM     18  C   UNL     1      21.274  -9.203  -1.803 -0.56 -0.00    +0.000 C 
DOCKED: BRANCH  18  19
DOCKED: ATOM     19  C   UNL     1      21.311 -10.546  -2.547 -0.54 -0.00    +0.000 C 
DOCKED: BRANCH  19  20
DOCKED: ATOM     20  C   UNL     1      21.770 -10.393  -4.003 -0.45 -0.00    +0.000 C 
DOCKED: BRANCH  20  22
DOCKED: ATOM     21  O   UNL     1      21.172 -11.395  -6.089 -0.44 -0.00    +0.000 OA
DOCKED: ATOM     22  C   UNL     1      20.779 -10.981  -4.966 -0.50 -0.00    +0.000 C 
DOCKED: ATOM     23  N   UNL     1      19.402 -11.103  -4.601 -0.40 -0.00    +0.000 N 
DOCKED: ATOM     24  O   UNL     1      18.512 -11.649  -5.462 -0.46 -0.00    +0.000 OA
DOCKED: ATOM     25  H   UNL     1      19.100 -10.789  -3.719 -0.01 -0.00    +0.000 HD
DOCKED: ENDBRANCH  20  22
DOCKED: ENDBRANCH  19  20
DOCKED: ENDBRANCH  18  19
DOCKED: ENDBRANCH  17  18
DOCKED: ENDBRANCH  16  17
DOCKED: ENDBRANCH   1  16
DOCKED: TORSDOF 6
DOCKED: TER
DOCKED: ENDMDL
________________________________________________________________________________


	BEGINNING GENETIC ALGORITHM DOCKING 19 of 100
Run: 19 Seed: 1214384318 274976892 [ Run 19 of 100 GA/GALS ]
Beginning LAMARCKIAN GENETIC ALGORITHM (LGA), with a maximum of 2500000 energy evaluations.

Final-Value: -12.767


	FINAL GENETIC ALGORITHM DOCKED STATE
	_______________________________________________


Detailed state:  trans 16.908 -12.694 -0.763 quatxyzw 0.375466 -0.847352 -0.094682 -0.363394 center -0.023 0.069 -0.054 ntor 6 -123.7593 -152.0966 140.2202 81.9744 -175.5008 -179.3823
State:	 16.908 -12.694  -0.763   0.403 -0.910 -0.102 -137.382   -123.76 -152.10  140.22   81.97 -175.50 -179.38

DOCKED: MODEL       19
DOCKED: USER    Run = 19
DOCKED: USER    DPF = ligand_dock.biased.dpf
DOCKED: USER  
DOCKED: USER    Estimated Free Energy of Binding    =   -8.88 kcal/mol  [=(1)+(2)+(3)-(4)]
DOCKED: USER    Estimated Inhibition Constant, Ki   =  308.31 nM (nanomolar)  [Temperature = 298.15 K]
DOCKED: USER    
DOCKED: USER    (1) Final Intermolecular Energy     =  -10.67 kcal/mol
DOCKED: USER        vdW + Hbond + desolv Energy     =  -10.67 kcal/mol
DOCKED: USER        Electrostatic Energy            =   +0.00 kcal/mol
DOCKED: USER    (2) Final Total Internal Energy     =   -2.09 kcal/mol
DOCKED: USER    (3) Torsional Free Energy           =   +1.79 kcal/mol
DOCKED: USER    (4) Unbound System's Energy  [=(2)] =   -2.09 kcal/mol
DOCKED: USER    
DOCKED: USER    
DOCKED: USER    NEWDPF move ligand.pdbqt
DOCKED: USER    NEWDPF about -0.023000 0.069000 -0.054000
DOCKED: USER    NEWDPF tran0 16.907514 -12.693818 -0.763153
DOCKED: USER    NEWDPF quaternion0 0.375466 -0.847352 -0.094682 -0.363394
DOCKED: USER    NEWDPF axisangle0 0.403019 -0.909531 -0.101629 -137.382447
DOCKED: USER    NEWDPF quat0 0.403019 -0.909531 -0.101629 -137.382447
DOCKED: USER    NEWDPF dihe0 -123.76 -152.10 140.22 81.97 -175.50 -179.38 
DOCKED: USER  keepresnum = 1 
DOCKED: USER  
DOCKED: REMARK  Name = 
DOCKED: REMARK  6 active torsions:
DOCKED: REMARK  status: ('A' for Active; 'I' for Inactive)
DOCKED: REMARK    1  A    between atoms: C_2  and  C_5
DOCKED: REMARK    2  A    between atoms: C_5  and  C_6
DOCKED: REMARK    3  A    between atoms: C_6  and  C_7
DOCKED: REMARK    4  A    between atoms: C_7  and  C_8
DOCKED: REMARK    5  A    between atoms: C_8  and  C_9
DOCKED: REMARK    6  A    between atoms: C_9  and  N_10
DOCKED: REMARK                            x       y       z     vdW  Elec       q    Type
DOCKED: REMARK                         _______ _______ _______ _____ _____    ______ ____
DOCKED: USER                              x       y       z     vdW  Elec       q    Type
DOCKED: USER                           _______ _______ _______ _____ _____    ______ ____
DOCKED: ROOT
DOCKED: ATOM      1  N   UNL     1      16.834 -11.778  -0.724 -0.34 +0.00    +0.000 N 
DOCKED: ATOM      2  C   UNL     1      18.270 -11.722  -0.819 -0.44 -0.00    +0.000 C 
DOCKED: ATOM      3  C   UNL     1      18.911 -10.878  -1.853 -0.37 -0.00    +0.000 A 
DOCKED: ATOM      4  C   UNL     1      20.312 -10.790  -1.937 -0.38 -0.00    +0.000 A 
DOCKED: ATOM      5  C   UNL     1      20.917  -9.995  -2.912 -0.47 -0.00    +0.000 A 
DOCKED: ATOM      6  C   UNL     1      20.137  -9.277  -3.817 -0.31 -0.00    +0.000 A 
DOCKED: ATOM      7  C   UNL     1      18.738  -9.348  -3.756 -0.21 -0.00    +0.000 A 
DOCKED: ATOM      8  C   UNL     1      17.954  -8.628  -4.667 -0.17 -0.00    +0.000 A 
DOCKED: ATOM      9  C   UNL     1      16.563  -8.701  -4.609 -0.15 -0.00    +0.000 A 
DOCKED: ATOM     10  C   UNL     1      15.939  -9.490  -3.641 -0.20 -0.00    +0.000 A 
DOCKED: ATOM     11  C   UNL     1      16.703 -10.221  -2.714 -0.21 -0.00    +0.000 A 
DOCKED: ATOM     12  C   UNL     1      18.113 -10.153  -2.768 -0.22 -0.00    +0.000 A 
DOCKED: ATOM     13  O   UNL     1      18.983 -12.393  -0.023 -0.66 -0.00    +0.000 OA
DOCKED: ATOM     14  C   UNL     1      16.041 -11.059  -1.687 -0.22 -0.00    +0.000 C 
DOCKED: ATOM     15  O   UNL     1      14.782 -11.143  -1.660 -0.34 -0.00    +0.000 OA
DOCKED: ENDROOT
DOCKED: BRANCH   1  16
DOCKED: ATOM     16  C   UNL     1      16.187 -12.640   0.275 -0.52 +0.00    +0.000 C 
DOCKED: BRANCH  16  17
DOCKED: ATOM     17  C   UNL     1      15.906 -11.848   1.556 -0.46 +0.00    +0.000 C 
DOCKED: BRANCH  17  18
DOCKED: ATOM     18  C   UNL     1      16.277 -10.371   1.384 -0.37 +0.00    +0.000 C 
DOCKED: BRANCH  18  19
DOCKED: ATOM     19  C   UNL     1      17.669 -10.083   1.965 -0.39 -0.00    +0.000 C 
DOCKED: BRANCH  19  20
DOCKED: ATOM     20  C   UNL     1      17.948 -10.894   3.238 -0.46 +0.00    +0.000 C 
DOCKED: BRANCH  20  22
DOCKED: ATOM     21  O   UNL     1      19.893 -11.692   4.375 -1.07 -0.00    +0.000 OA
DOCKED: ATOM     22  C   UNL     1      19.355 -11.417   3.269 -0.66 -0.00    +0.000 C 
DOCKED: ATOM     23  N   UNL     1      20.072 -11.635   2.052 -0.69 -0.00    +0.000 N 
DOCKED: ATOM     24  O   UNL     1      21.334 -12.123   2.080 -1.37 -0.00    +0.000 OA
DOCKED: ATOM     25  H   UNL     1      19.646 -11.430   1.189 -0.01 -0.00    +0.000 HD
DOCKED: ENDBRANCH  20  22
DOCKED: ENDBRANCH  19  20
DOCKED: ENDBRANCH  18  19
DOCKED: ENDBRANCH  17  18
DOCKED: ENDBRANCH  16  17
DOCKED: ENDBRANCH   1  16
DOCKED: TORSDOF 6
DOCKED: TER
DOCKED: ENDMDL
________________________________________________________________________________


	BEGINNING GENETIC ALGORITHM DOCKING 20 of 100
Run: 20 Seed: 1796196788 521192378 [ Run 20 of 100 GA/GALS ]
Beginning LAMARCKIAN GENETIC ALGORITHM (LGA), with a maximum of 2500000 energy evaluations.

Final-Value: -13.251


	FINAL GENETIC ALGORITHM DOCKED STATE
	_______________________________________________


Detailed state:  trans 16.169 -12.310 -1.396 quatxyzw -0.146557 0.964384 -0.018197 -0.219437 center -0.023 0.069 -0.054 ntor 6 -38.5661 -69.7227 -101.8352 53.8173 -105.1831 142.0512
State:	 16.169 -12.310  -1.396  -0.150  0.988 -0.019 -154.648    -38.57  -69.72 -101.84   53.82 -105.18  142.05

DOCKED: MODEL       20
DOCKED: USER    Run = 20
DOCKED: USER    DPF = ligand_dock.biased.dpf
DOCKED: USER  
DOCKED: USER    Estimated Free Energy of Binding    =   -8.83 kcal/mol  [=(1)+(2)+(3)-(4)]
DOCKED: USER    Estimated Inhibition Constant, Ki   =  335.39 nM (nanomolar)  [Temperature = 298.15 K]
DOCKED: USER    
DOCKED: USER    (1) Final Intermolecular Energy     =  -10.62 kcal/mol
DOCKED: USER        vdW + Hbond + desolv Energy     =  -10.62 kcal/mol
DOCKED: USER        Electrostatic Energy            =   +0.00 kcal/mol
DOCKED: USER    (2) Final Total Internal Energy     =   -2.63 kcal/mol
DOCKED: USER    (3) Torsional Free Energy           =   +1.79 kcal/mol
DOCKED: USER    (4) Unbound System's Energy  [=(2)] =   -2.63 kcal/mol
DOCKED: USER    
DOCKED: USER    
DOCKED: USER    NEWDPF move ligand.pdbqt
DOCKED: USER    NEWDPF about -0.023000 0.069000 -0.054000
DOCKED: USER    NEWDPF tran0 16.168984 -12.310190 -1.396072
DOCKED: USER    NEWDPF quaternion0 -0.146557 0.964384 -0.018197 -0.219437
DOCKED: USER    NEWDPF axisangle0 -0.150218 0.988477 -0.018651 -154.648064
DOCKED: USER    NEWDPF quat0 -0.150218 0.988477 -0.018651 -154.648064
DOCKED: USER    NEWDPF dihe0 -38.57 -69.72 -101.84 53.82 -105.18 142.05 
DOCKED: USER  keepresnum = 1 
DOCKED: USER  
DOCKED: REMARK  Name = 
DOCKED: REMARK  6 active torsions:
DOCKED: REMARK  status: ('A' for Active; 'I' for Inactive)
DOCKED: REMARK    1  A    between atoms: C_2  and  C_5
DOCKED: REMARK    2  A    between atoms: C_5  and  C_6
DOCKED: REMARK    3  A    between atoms: C_6  and  C_7
DOCKED: REMARK    4  A    between atoms: C_7  and  C_8
DOCKED: REMARK    5  A    between atoms: C_8  and  C_9
DOCKED: REMARK    6  A    between atoms: C_9  and  N_10
DOCKED: REMARK                            x       y       z     vdW  Elec       q    Type
DOCKED: REMARK                         _______ _______ _______ _____ _____    ______ ____
DOCKED: USER                              x       y       z     vdW  Elec       q    Type
DOCKED: USER                           _______ _______ _______ _____ _____    ______ ____
DOCKED: ROOT
DOCKED: ATOM      1  N   UNL     1      16.451 -11.471  -1.146 -0.27 +0.00    +0.000 N 
DOCKED: ATOM      2  C   UNL     1      16.919 -12.064   0.081 -0.49 +0.00    +0.000 C 
DOCKED: ATOM      3  C   UNL     1      18.316 -11.848   0.522 -0.49 -0.00    +0.000 A 
DOCKED: ATOM      4  C   UNL     1      18.776 -12.395   1.732 -0.41 -0.00    +0.000 A 
DOCKED: ATOM      5  C   UNL     1      20.093 -12.192   2.148 -0.63 -0.00    +0.000 A 
DOCKED: ATOM      6  C   UNL     1      20.971 -11.443   1.365 -0.52 -0.00    +0.000 A 
DOCKED: ATOM      7  C   UNL     1      20.537 -10.887   0.152 -0.60 -0.00    +0.000 A 
DOCKED: ATOM      8  C   UNL     1      21.420 -10.136  -0.636 -0.62 -0.00    +0.000 A 
DOCKED: ATOM      9  C   UNL     1      20.989  -9.587  -1.843 -0.53 -0.00    +0.000 A 
DOCKED: ATOM     10  C   UNL     1      19.676  -9.778  -2.275 -0.27 -0.00    +0.000 A 
DOCKED: ATOM     11  C   UNL     1      18.770 -10.526  -1.502 -0.31 -0.00    +0.000 A 
DOCKED: ATOM     12  C   UNL     1      19.199 -11.087  -0.278 -0.46 -0.00    +0.000 A 
DOCKED: ATOM     13  O   UNL     1      16.140 -12.769   0.780 -1.10 +0.00    +0.000 OA
DOCKED: ATOM     14  C   UNL     1      17.377 -10.730  -1.962 -0.19 -0.00    +0.000 C 
DOCKED: ATOM     15  O   UNL     1      17.004 -10.254  -3.070 -0.29 -0.00    +0.000 OA
DOCKED: ENDROOT
DOCKED: BRANCH   1  16
DOCKED: ATOM     16  C   UNL     1      15.077 -11.709  -1.610 -0.33 +0.00    +0.000 C 
DOCKED: BRANCH  16  17
DOCKED: ATOM     17  C   UNL     1      14.075 -11.331  -0.515 -0.37 +0.00    +0.000 C 
DOCKED: BRANCH  17  18
DOCKED: ATOM     18  C   UNL     1      13.942  -9.809  -0.390 -0.23 +0.00    +0.000 C 
DOCKED: BRANCH  18  19
DOCKED: ATOM     19  C   UNL     1      14.192  -9.353   1.056 -0.24 +0.00    +0.000 C 
DOCKED: BRANCH  19  20
DOCKED: ATOM     20  C   UNL     1      15.688  -9.242   1.380 -0.27 +0.00    +0.000 C 
DOCKED: BRANCH  20  22
DOCKED: ATOM     21  O   UNL     1      16.498  -9.020   3.618 -0.48 +0.00    +0.000 OA
DOCKED: ATOM     22  C   UNL     1      16.004  -9.783   2.745 -0.42 +0.00    +0.000 C 
DOCKED: ATOM     23  N   UNL     1      15.717 -11.146   3.067 -0.48 +0.00    +0.000 N 
DOCKED: ATOM     24  O   UNL     1      15.986 -11.629   4.302 -0.59 +0.00    +0.000 OA
DOCKED: ATOM     25  H   UNL     1      15.320 -11.736   2.387 -0.02 +0.00    +0.000 HD
DOCKED: ENDBRANCH  20  22
DOCKED: ENDBRANCH  19  20
DOCKED: ENDBRANCH  18  19
DOCKED: ENDBRANCH  17  18
DOCKED: ENDBRANCH  16  17
DOCKED: ENDBRANCH   1  16
DOCKED: TORSDOF 6
DOCKED: TER
DOCKED: ENDMDL
________________________________________________________________________________


	BEGINNING GENETIC ALGORITHM DOCKING 21 of 100
Run: 21 Seed: 612850987 1548964516 [ Run 21 of 100 GA/GALS ]
Beginning LAMARCKIAN GENETIC ALGORITHM (LGA), with a maximum of 2500000 energy evaluations.

Final-Value: -13.352


	FINAL GENETIC ALGORITHM DOCKED STATE
	_______________________________________________


Detailed state:  trans 19.532 -12.291 1.407 quatxyzw 0.070130 -0.014491 -0.086792 -0.993649 center -0.023 0.069 -0.054 ntor 6 -134.5661 -180.0000 28.5057 -47.2150 74.5489 178.1346
State:	 19.532 -12.291   1.407   0.623 -0.129 -0.771 -12.921   -134.57 -180.00   28.51  -47.21   74.55  178.13

DOCKED: MODEL       21
DOCKED: USER    Run = 21
DOCKED: USER    DPF = ligand_dock.biased.dpf
DOCKED: USER  
DOCKED: USER    Estimated Free Energy of Binding    =   -9.30 kcal/mol  [=(1)+(2)+(3)-(4)]
DOCKED: USER    Estimated Inhibition Constant, Ki   =  153.03 nM (nanomolar)  [Temperature = 298.15 K]
DOCKED: USER    
DOCKED: USER    (1) Final Intermolecular Energy     =  -11.09 kcal/mol
DOCKED: USER        vdW + Hbond + desolv Energy     =  -11.09 kcal/mol
DOCKED: USER        Electrostatic Energy            =   +0.00 kcal/mol
DOCKED: USER    (2) Final Total Internal Energy     =   -2.26 kcal/mol
DOCKED: USER    (3) Torsional Free Energy           =   +1.79 kcal/mol
DOCKED: USER    (4) Unbound System's Energy  [=(2)] =   -2.26 kcal/mol
DOCKED: USER    
DOCKED: USER    
DOCKED: USER    NEWDPF move ligand.pdbqt
DOCKED: USER    NEWDPF about -0.023000 0.069000 -0.054000
DOCKED: USER    NEWDPF tran0 19.532303 -12.291064 1.406966
DOCKED: USER    NEWDPF quaternion0 0.070130 -0.014491 -0.086792 -0.993649
DOCKED: USER    NEWDPF axisangle0 0.623262 -0.128782 -0.771337 -12.921357
DOCKED: USER    NEWDPF quat0 0.623262 -0.128782 -0.771337 -12.921357
DOCKED: USER    NEWDPF dihe0 -134.57 -180.00 28.51 -47.21 74.55 178.13 
DOCKED: USER  keepresnum = 1 
DOCKED: USER  
DOCKED: REMARK  Name = 
DOCKED: REMARK  6 active torsions:
DOCKED: REMARK  status: ('A' for Active; 'I' for Inactive)
DOCKED: REMARK    1  A    between atoms: C_2  and  C_5
DOCKED: REMARK    2  A    between atoms: C_5  and  C_6
DOCKED: REMARK    3  A    between atoms: C_6  and  C_7
DOCKED: REMARK    4  A    between atoms: C_7  and  C_8
DOCKED: REMARK    5  A    between atoms: C_8  and  C_9
DOCKED: REMARK    6  A    between atoms: C_9  and  N_10
DOCKED: REMARK                            x       y       z     vdW  Elec       q    Type
DOCKED: REMARK                         _______ _______ _______ _____ _____    ______ ____
DOCKED: USER                              x       y       z     vdW  Elec       q    Type
DOCKED: USER                           _______ _______ _______ _____ _____    ______ ____
DOCKED: ROOT
DOCKED: ATOM      1  N   UNL     1      19.073 -11.494   1.416 -0.54 -0.00    +0.000 N 
DOCKED: ATOM      2  C   UNL     1      18.240 -12.035   0.373 -0.56 -0.00    +0.000 C 
DOCKED: ATOM      3  C   UNL     1      16.766 -12.026   0.523 -0.43 +0.00    +0.000 A 
DOCKED: ATOM      4  C   UNL     1      15.941 -12.522  -0.501 -0.42 +0.00    +0.000 A 
DOCKED: ATOM      5  C   UNL     1      14.553 -12.514  -0.361 -0.42 +0.00    +0.000 A 
DOCKED: ATOM      6  C   UNL     1      13.966 -12.013   0.801 -0.42 +0.00    +0.000 A 
DOCKED: ATOM      7  C   UNL     1      14.767 -11.514   1.838 -0.41 +0.00    +0.000 A 
DOCKED: ATOM      8  C   UNL     1      14.177 -11.012   3.006 -0.34 +0.00    +0.000 A 
DOCKED: ATOM      9  C   UNL     1      14.973 -10.518   4.039 -0.43 +0.00    +0.000 A 
DOCKED: ATOM     10  C   UNL     1      16.364 -10.517   3.917 -0.32 +0.00    +0.000 A 
DOCKED: ATOM     11  C   UNL     1      16.980 -11.013   2.754 -0.39 +0.00    +0.000 A 
DOCKED: ATOM     12  C   UNL     1      16.180 -11.516   1.704 -0.39 +0.00    +0.000 A 
DOCKED: ATOM     13  O   UNL     1      18.764 -12.518  -0.668 -0.47 -0.00    +0.000 OA
DOCKED: ATOM     14  C   UNL     1      18.455 -11.013   2.625 -0.57 -0.00    +0.000 C 
DOCKED: ATOM     15  O   UNL     1      19.170 -10.592   3.577 -0.60 -0.00    +0.000 OA
DOCKED: ENDROOT
DOCKED: BRANCH   1  16
DOCKED: ATOM     16  C   UNL     1      20.537 -11.531   1.294 -0.75 -0.00    +0.000 C 
DOCKED: BRANCH  16  17
DOCKED: ATOM     17  C   UNL     1      21.044 -10.255   0.616 -0.64 -0.00    +0.000 C 
DOCKED: BRANCH  17  18
DOCKED: ATOM     18  C   UNL     1      21.468 -10.529  -0.831 -0.67 -0.00    +0.000 C 
DOCKED: BRANCH  18  19
DOCKED: ATOM     19  C   UNL     1      20.891  -9.471  -1.783 -0.58 -0.00    +0.000 C 
DOCKED: BRANCH  19  20
DOCKED: ATOM     20  C   UNL     1      20.596 -10.041  -3.177 -0.49 -0.00    +0.000 C 
DOCKED: BRANCH  20  22
DOCKED: ATOM     21  O   UNL     1      18.698  -9.897  -4.622 -0.26 -0.00    +0.000 OA
DOCKED: ATOM     22  C   UNL     1      19.122 -10.104  -3.454 -0.36 -0.00    +0.000 C 
DOCKED: ATOM     23  N   UNL     1      18.203 -10.429  -2.408 -0.30 -0.00    +0.000 N 
DOCKED: ATOM     24  O   UNL     1      16.876 -10.503  -2.661 -0.29 -0.00    +0.000 OA
DOCKED: ATOM     25  H   UNL     1      18.538 -10.602  -1.498 -0.01 -0.00    +0.000 HD
DOCKED: ENDBRANCH  20  22
DOCKED: ENDBRANCH  19  20
DOCKED: ENDBRANCH  18  19
DOCKED: ENDBRANCH  17  18
DOCKED: ENDBRANCH  16  17
DOCKED: ENDBRANCH   1  16
DOCKED: TORSDOF 6
DOCKED: TER
DOCKED: ENDMDL
________________________________________________________________________________


	BEGINNING GENETIC ALGORITHM DOCKING 22 of 100
Run: 22 Seed: 423882364 634819496 [ Run 22 of 100 GA/GALS ]
Beginning LAMARCKIAN GENETIC ALGORITHM (LGA), with a maximum of 2500000 energy evaluations.

Final-Value: -13.545


	FINAL GENETIC ALGORITHM DOCKED STATE
	_______________________________________________


Detailed state:  trans 19.807 -12.020 0.722 quatxyzw 0.204962 0.024018 -0.109291 -0.972352 center -0.023 0.069 -0.054 ntor 6 16.3658 27.5630 53.2687 -33.9331 76.2576 167.8552
State:	 19.807 -12.020   0.722   0.878  0.103 -0.468 -27.009     16.37   27.56   53.27  -33.93   76.26  167.86

DOCKED: MODEL       22
DOCKED: USER    Run = 22
DOCKED: USER    DPF = ligand_dock.biased.dpf
DOCKED: USER  
DOCKED: USER    Estimated Free Energy of Binding    =   -9.82 kcal/mol  [=(1)+(2)+(3)-(4)]
DOCKED: USER    Estimated Inhibition Constant, Ki   =   62.93 nM (nanomolar)  [Temperature = 298.15 K]
DOCKED: USER    
DOCKED: USER    (1) Final Intermolecular Energy     =  -11.61 kcal/mol
DOCKED: USER        vdW + Hbond + desolv Energy     =  -11.61 kcal/mol
DOCKED: USER        Electrostatic Energy            =   +0.00 kcal/mol
DOCKED: USER    (2) Final Total Internal Energy     =   -1.93 kcal/mol
DOCKED: USER    (3) Torsional Free Energy           =   +1.79 kcal/mol
DOCKED: USER    (4) Unbound System's Energy  [=(2)] =   -1.93 kcal/mol
DOCKED: USER    
DOCKED: USER    
DOCKED: USER    NEWDPF move ligand.pdbqt
DOCKED: USER    NEWDPF about -0.023000 0.069000 -0.054000
DOCKED: USER    NEWDPF tran0 19.806635 -12.019512 0.721810
DOCKED: USER    NEWDPF quaternion0 0.204962 0.024018 -0.109291 -0.972352
DOCKED: USER    NEWDPF axisangle0 0.877712 0.102853 -0.468021 -27.008620
DOCKED: USER    NEWDPF quat0 0.877712 0.102853 -0.468021 -27.008620
DOCKED: USER    NEWDPF dihe0 16.37 27.56 53.27 -33.93 76.26 167.86 
DOCKED: USER  keepresnum = 1 
DOCKED: USER  
DOCKED: REMARK  Name = 
DOCKED: REMARK  6 active torsions:
DOCKED: REMARK  status: ('A' for Active; 'I' for Inactive)
DOCKED: REMARK    1  A    between atoms: C_2  and  C_5
DOCKED: REMARK    2  A    between atoms: C_5  and  C_6
DOCKED: REMARK    3  A    between atoms: C_6  and  C_7
DOCKED: REMARK    4  A    between atoms: C_7  and  C_8
DOCKED: REMARK    5  A    between atoms: C_8  and  C_9
DOCKED: REMARK    6  A    between atoms: C_9  and  N_10
DOCKED: REMARK                            x       y       z     vdW  Elec       q    Type
DOCKED: REMARK                         _______ _______ _______ _____ _____    ______ ____
DOCKED: USER                              x       y       z     vdW  Elec       q    Type
DOCKED: USER                           _______ _______ _______ _____ _____    ______ ____
DOCKED: ROOT
DOCKED: ATOM      1  N   UNL     1      19.386 -11.243   0.977 -0.54 -0.00    +0.000 N 
DOCKED: ATOM      2  C   UNL     1      18.478 -11.448  -0.122 -0.51 -0.00    +0.000 C 
DOCKED: ATOM      3  C   UNL     1      17.016 -11.434   0.114 -0.38 +0.00    +0.000 A 
DOCKED: ATOM      4  C   UNL     1      16.118 -11.602  -0.956 -0.27 +0.00    +0.000 A 
DOCKED: ATOM      5  C   UNL     1      14.740 -11.591  -0.734 -0.35 +0.00    +0.000 A 
DOCKED: ATOM      6  C   UNL     1      14.236 -11.413   0.553 -0.35 +0.00    +0.000 A 
DOCKED: ATOM      7  C   UNL     1      15.110 -11.244   1.637 -0.38 +0.00    +0.000 A 
DOCKED: ATOM      8  C   UNL     1      14.602 -11.068   2.931 -0.41 +0.00    +0.000 A 
DOCKED: ATOM      9  C   UNL     1      15.471 -10.903   4.010 -0.48 +0.00    +0.000 A 
DOCKED: ATOM     10  C   UNL     1      16.853 -10.911   3.809 -0.27 +0.00    +0.000 A 
DOCKED: ATOM     11  C   UNL     1      17.387 -11.086   2.520 -0.39 +0.00    +0.000 A 
DOCKED: ATOM     12  C   UNL     1      16.512 -11.254   1.422 -0.38 +0.00    +0.000 A 
DOCKED: ATOM     13  O   UNL     1      18.927 -11.640  -1.285 -0.49 -0.00    +0.000 OA
DOCKED: ATOM     14  C   UNL     1      18.852 -11.095   2.307 -0.62 -0.00    +0.000 C 
DOCKED: ATOM     15  O   UNL     1      19.632 -10.976   3.292 -0.93 -0.00    +0.000 OA
DOCKED: ENDROOT
DOCKED: BRANCH   1  16
DOCKED: ATOM     16  C   UNL     1      20.839 -11.290   0.761 -0.67 -0.00    +0.000 C 
DOCKED: BRANCH  16  17
DOCKED: ATOM     17  C   UNL     1      21.332  -9.959   0.184 -0.66 -0.00    +0.000 C 
DOCKED: BRANCH  17  18
DOCKED: ATOM     18  C   UNL     1      21.622 -10.081  -1.316 -0.51 -0.00    +0.000 C 
DOCKED: BRANCH  18  19
DOCKED: ATOM     19  C   UNL     1      21.300  -8.768  -2.046 -0.52 -0.00    +0.000 C 
DOCKED: BRANCH  19  20
DOCKED: ATOM     20  C   UNL     1      20.293  -8.968  -3.187 -0.38 -0.00    +0.000 C 
DOCKED: BRANCH  20  22
DOCKED: ATOM     21  O   UNL     1      21.650 -10.330  -4.605 -0.48 -0.00    +0.000 OA
DOCKED: ATOM     22  C   UNL     1      20.572 -10.222  -3.963 -0.46 -0.00    +0.000 C 
DOCKED: ATOM     23  N   UNL     1      19.637 -11.304  -3.949 -0.44 -0.00    +0.000 N 
DOCKED: ATOM     24  O   UNL     1      19.896 -12.441  -4.635 -0.73 -0.00    +0.000 OA
DOCKED: ATOM     25  H   UNL     1      18.800 -11.221  -3.437 -0.01 -0.00    +0.000 HD
DOCKED: ENDBRANCH  20  22
DOCKED: ENDBRANCH  19  20
DOCKED: ENDBRANCH  18  19
DOCKED: ENDBRANCH  17  18
DOCKED: ENDBRANCH  16  17
DOCKED: ENDBRANCH   1  16
DOCKED: TORSDOF 6
DOCKED: TER
DOCKED: ENDMDL
________________________________________________________________________________


	BEGINNING GENETIC ALGORITHM DOCKING 23 of 100
Run: 23 Seed: 1633080286 409799208 [ Run 23 of 100 GA/GALS ]
Beginning LAMARCKIAN GENETIC ALGORITHM (LGA), with a maximum of 2500000 energy evaluations.

Final-Value: -12.689


	FINAL GENETIC ALGORITHM DOCKED STATE
	_______________________________________________


Detailed state:  trans 16.050 -12.479 -0.810 quatxyzw -0.205919 0.975677 -0.038849 -0.064365 center -0.023 0.069 -0.054 ntor 6 -112.8350 179.9268 103.9538 64.0129 -93.6252 141.4866
State:	 16.050 -12.479  -0.810  -0.206  0.978 -0.039 -172.619   -112.84  179.93  103.95   64.01  -93.63  141.49

DOCKED: MODEL       23
DOCKED: USER    Run = 23
DOCKED: USER    DPF = ligand_dock.biased.dpf
DOCKED: USER  
DOCKED: USER    Estimated Free Energy of Binding    =   -8.66 kcal/mol  [=(1)+(2)+(3)-(4)]
DOCKED: USER    Estimated Inhibition Constant, Ki   =  451.93 nM (nanomolar)  [Temperature = 298.15 K]
DOCKED: USER    
DOCKED: USER    (1) Final Intermolecular Energy     =  -10.45 kcal/mol
DOCKED: USER        vdW + Hbond + desolv Energy     =  -10.45 kcal/mol
DOCKED: USER        Electrostatic Energy            =   +0.00 kcal/mol
DOCKED: USER    (2) Final Total Internal Energy     =   -2.24 kcal/mol
DOCKED: USER    (3) Torsional Free Energy           =   +1.79 kcal/mol
DOCKED: USER    (4) Unbound System's Energy  [=(2)] =   -2.24 kcal/mol
DOCKED: USER    
DOCKED: USER    
DOCKED: USER    NEWDPF move ligand.pdbqt
DOCKED: USER    NEWDPF about -0.023000 0.069000 -0.054000
DOCKED: USER    NEWDPF tran0 16.050151 -12.479006 -0.809664
DOCKED: USER    NEWDPF quaternion0 -0.205919 0.975677 -0.038849 -0.064365
DOCKED: USER    NEWDPF axisangle0 -0.206347 0.977704 -0.038930 -172.619226
DOCKED: USER    NEWDPF quat0 -0.206347 0.977704 -0.038930 -172.619226
DOCKED: USER    NEWDPF dihe0 -112.84 179.93 103.95 64.01 -93.63 141.49 
DOCKED: USER  keepresnum = 1 
DOCKED: USER  
DOCKED: REMARK  Name = 
DOCKED: REMARK  6 active torsions:
DOCKED: REMARK  status: ('A' for Active; 'I' for Inactive)
DOCKED: REMARK    1  A    between atoms: C_2  and  C_5
DOCKED: REMARK    2  A    between atoms: C_5  and  C_6
DOCKED: REMARK    3  A    between atoms: C_6  and  C_7
DOCKED: REMARK    4  A    between atoms: C_7  and  C_8
DOCKED: REMARK    5  A    between atoms: C_8  and  C_9
DOCKED: REMARK    6  A    between atoms: C_9  and  N_10
DOCKED: REMARK                            x       y       z     vdW  Elec       q    Type
DOCKED: REMARK                         _______ _______ _______ _____ _____    ______ ____
DOCKED: USER                              x       y       z     vdW  Elec       q    Type
DOCKED: USER                           _______ _______ _______ _____ _____    ______ ____
DOCKED: ROOT
DOCKED: ATOM      1  N   UNL     1      16.297 -11.596  -0.736 -0.33 +0.00    +0.000 N 
DOCKED: ATOM      2  C   UNL     1      17.164 -11.993   0.342 -0.50 +0.00    +0.000 C 
DOCKED: ATOM      3  C   UNL     1      18.596 -11.615   0.319 -0.48 -0.00    +0.000 A 
DOCKED: ATOM      4  C   UNL     1      19.446 -11.971   1.381 -0.62 -0.00    +0.000 A 
DOCKED: ATOM      5  C   UNL     1      20.796 -11.615   1.359 -0.62 -0.00    +0.000 A 
DOCKED: ATOM      6  C   UNL     1      21.319 -10.902   0.281 -0.51 -0.00    +0.000 A 
DOCKED: ATOM      7  C   UNL     1      20.492 -10.537  -0.791 -0.55 -0.00    +0.000 A 
DOCKED: ATOM      8  C   UNL     1      21.018  -9.823  -1.876 -0.54 -0.00    +0.000 A 
DOCKED: ATOM      9  C   UNL     1      20.197  -9.462  -2.944 -0.37 -0.00    +0.000 A 
DOCKED: ATOM     10  C   UNL     1      18.844  -9.808  -2.941 -0.18 -0.00    +0.000 A 
DOCKED: ATOM     11  C   UNL     1      18.292 -10.524  -1.864 -0.27 -0.00    +0.000 A 
DOCKED: ATOM     12  C   UNL     1      19.118 -10.893  -0.778 -0.43 -0.00    +0.000 A 
DOCKED: ATOM     13  O   UNL     1      16.706 -12.666   1.307 -0.98 +0.00    +0.000 OA
DOCKED: ATOM     14  C   UNL     1      16.857 -10.891  -1.861 -0.16 -0.00    +0.000 C 
DOCKED: ATOM     15  O   UNL     1      16.128 -10.587  -2.845 -0.27 -0.00    +0.000 OA
DOCKED: ENDROOT
DOCKED: BRANCH   1  16
DOCKED: ATOM     16  C   UNL     1      14.883 -11.997  -0.741 -0.45 +0.00    +0.000 C 
DOCKED: BRANCH  16  17
DOCKED: ATOM     17  C   UNL     1      14.210 -11.578   0.570 -0.42 +0.00    +0.000 C 
DOCKED: BRANCH  17  18
DOCKED: ATOM     18  C   UNL     1      13.693 -10.137   0.490 -0.24 +0.00    +0.000 C 
DOCKED: BRANCH  18  19
DOCKED: ATOM     19  C   UNL     1      14.431  -9.233   1.489 -0.26 +0.00    +0.000 C 
DOCKED: BRANCH  19  20
DOCKED: ATOM     20  C   UNL     1      14.005  -9.499   2.939 -0.31 +0.00    +0.000 C 
DOCKED: BRANCH  20  22
DOCKED: ATOM     21  O   UNL     1      15.016 -10.183   4.994 -0.54 +0.00    +0.000 OA
DOCKED: ATOM     22  C   UNL     1      15.110 -10.127   3.738 -0.47 +0.00    +0.000 C 
DOCKED: ATOM     23  N   UNL     1      16.248 -10.690   3.081 -0.45 +0.00    +0.000 N 
DOCKED: ATOM     24  O   UNL     1      17.236 -11.271   3.801 -0.50 +0.00    +0.000 OA
DOCKED: ATOM     25  H   UNL     1      16.313 -10.655   2.100 -0.00 +0.00    +0.000 HD
DOCKED: ENDBRANCH  20  22
DOCKED: ENDBRANCH  19  20
DOCKED: ENDBRANCH  18  19
DOCKED: ENDBRANCH  17  18
DOCKED: ENDBRANCH  16  17
DOCKED: ENDBRANCH   1  16
DOCKED: TORSDOF 6
DOCKED: TER
DOCKED: ENDMDL
________________________________________________________________________________


	BEGINNING GENETIC ALGORITHM DOCKING 24 of 100
Run: 24 Seed: 758465468 319380794 [ Run 24 of 100 GA/GALS ]
Beginning LAMARCKIAN GENETIC ALGORITHM (LGA), with a maximum of 2500000 energy evaluations.

Final-Value: -12.636


	FINAL GENETIC ALGORITHM DOCKED STATE
	_______________________________________________


Detailed state:  trans 15.416 -10.784 2.113 quatxyzw 0.829450 -0.400143 -0.358511 -0.152866 center -0.023 0.069 -0.054 ntor 6 -180.0000 178.2292 20.4900 -95.1331 -96.2956 -17.2251
State:	 15.416 -10.784   2.113   0.839 -0.405 -0.363 -162.414   -180.00  178.23   20.49  -95.13  -96.30  -17.23

DOCKED: MODEL       24
DOCKED: USER    Run = 24
DOCKED: USER    DPF = ligand_dock.biased.dpf
DOCKED: USER  
DOCKED: USER    Estimated Free Energy of Binding    =   -8.99 kcal/mol  [=(1)+(2)+(3)-(4)]
DOCKED: USER    Estimated Inhibition Constant, Ki   =  255.94 nM (nanomolar)  [Temperature = 298.15 K]
DOCKED: USER    
DOCKED: USER    (1) Final Intermolecular Energy     =  -10.78 kcal/mol
DOCKED: USER        vdW + Hbond + desolv Energy     =  -10.78 kcal/mol
DOCKED: USER        Electrostatic Energy            =   +0.00 kcal/mol
DOCKED: USER    (2) Final Total Internal Energy     =   -1.85 kcal/mol
DOCKED: USER    (3) Torsional Free Energy           =   +1.79 kcal/mol
DOCKED: USER    (4) Unbound System's Energy  [=(2)] =   -1.85 kcal/mol
DOCKED: USER    
DOCKED: USER    
DOCKED: USER    NEWDPF move ligand.pdbqt
DOCKED: USER    NEWDPF about -0.023000 0.069000 -0.054000
DOCKED: USER    NEWDPF tran0 15.416315 -10.783822 2.112841
DOCKED: USER    NEWDPF quaternion0 0.829450 -0.400143 -0.358511 -0.152866
DOCKED: USER    NEWDPF axisangle0 0.839315 -0.404902 -0.362775 -162.413865
DOCKED: USER    NEWDPF quat0 0.839315 -0.404902 -0.362775 -162.413865
DOCKED: USER    NEWDPF dihe0 -180.00 178.23 20.49 -95.13 -96.30 -17.23 
DOCKED: USER  keepresnum = 1 
DOCKED: USER  
DOCKED: REMARK  Name = 
DOCKED: REMARK  6 active torsions:
DOCKED: REMARK  status: ('A' for Active; 'I' for Inactive)
DOCKED: REMARK    1  A    between atoms: C_2  and  C_5
DOCKED: REMARK    2  A    between atoms: C_5  and  C_6
DOCKED: REMARK    3  A    between atoms: C_6  and  C_7
DOCKED: REMARK    4  A    between atoms: C_7  and  C_8
DOCKED: REMARK    5  A    between atoms: C_8  and  C_9
DOCKED: REMARK    6  A    between atoms: C_9  and  N_10
DOCKED: REMARK                            x       y       z     vdW  Elec       q    Type
DOCKED: REMARK                         _______ _______ _______ _____ _____    ______ ____
DOCKED: USER                              x       y       z     vdW  Elec       q    Type
DOCKED: USER                           _______ _______ _______ _____ _____    ______ ____
DOCKED: ROOT
DOCKED: ATOM      1  N   UNL     1      14.837 -10.773   2.827 -0.40 +0.00    +0.000 N 
DOCKED: ATOM      2  C   UNL     1      15.638  -9.712   3.379 -0.45 +0.00    +0.000 C 
DOCKED: ATOM      3  C   UNL     1      14.999  -8.443   3.801 -0.34 +0.00    +0.000 A 
DOCKED: ATOM      4  C   UNL     1      15.766  -7.412   4.371 -0.23 +0.00    +0.000 A 
DOCKED: ATOM      5  C   UNL     1      15.164  -6.216   4.767 -0.41 +0.00    +0.000 A 
DOCKED: ATOM      6  C   UNL     1      13.792  -6.030   4.602 -0.28 +0.00    +0.000 A 
DOCKED: ATOM      7  C   UNL     1      13.006  -7.043   4.035 -0.17 +0.00    +0.000 A 
DOCKED: ATOM      8  C   UNL     1      11.627  -6.855   3.867 -0.11 +0.00    +0.000 A 
DOCKED: ATOM      9  C   UNL     1      10.845  -7.861   3.300 -0.09 +0.00    +0.000 A 
DOCKED: ATOM     10  C   UNL     1      11.428  -9.064   2.898 -0.13 +0.00    +0.000 A 
DOCKED: ATOM     11  C   UNL     1      12.809  -9.278   3.057 -0.20 +0.00    +0.000 A 
DOCKED: ATOM     12  C   UNL     1      13.608  -8.263   3.630 -0.22 +0.00    +0.000 A 
DOCKED: ATOM     13  O   UNL     1      16.885  -9.860   3.504 -0.46 +0.00    +0.000 OA
DOCKED: ATOM     14  C   UNL     1      13.427 -10.554   2.629 -0.33 +0.00    +0.000 C 
DOCKED: ATOM     15  O   UNL     1      12.717 -11.447   2.089 -0.44 +0.00    +0.000 OA
DOCKED: ENDROOT
DOCKED: BRANCH   1  16
DOCKED: ATOM     16  C   UNL     1      15.465 -12.021   2.372 -0.45 +0.00    +0.000 C 
DOCKED: BRANCH  16  17
DOCKED: ATOM     17  C   UNL     1      15.522 -12.058   0.842 -0.48 +0.00    +0.000 C 
DOCKED: BRANCH  17  18
DOCKED: ATOM     18  C   UNL     1      16.745 -11.300   0.316 -0.41 +0.00    +0.000 C 
DOCKED: BRANCH  18  19
DOCKED: ATOM     19  C   UNL     1      17.987 -12.204   0.298 -0.54 -0.00    +0.000 C 
DOCKED: BRANCH  19  20
DOCKED: ATOM     20  C   UNL     1      19.293 -11.400   0.349 -0.59 -0.00    +0.000 C 
DOCKED: BRANCH  20  22
DOCKED: ATOM     21  O   UNL     1      20.958 -12.364   1.767 -1.49 -0.00    +0.000 OA
DOCKED: ATOM     22  C   UNL     1      19.994 -11.559   1.668 -0.75 -0.00    +0.000 C 
DOCKED: ATOM     23  N   UNL     1      19.594 -10.780   2.798 -0.64 -0.00    +0.000 N 
DOCKED: ATOM     24  O   UNL     1      20.236 -10.911   3.982 -1.13 -0.00    +0.000 OA
DOCKED: ATOM     25  H   UNL     1      18.848 -10.144   2.715 -0.05 -0.00    +0.000 HD
DOCKED: ENDBRANCH  20  22
DOCKED: ENDBRANCH  19  20
DOCKED: ENDBRANCH  18  19
DOCKED: ENDBRANCH  17  18
DOCKED: ENDBRANCH  16  17
DOCKED: ENDBRANCH   1  16
DOCKED: TORSDOF 6
DOCKED: TER
DOCKED: ENDMDL
________________________________________________________________________________


	BEGINNING GENETIC ALGORITHM DOCKING 25 of 100
Run: 25 Seed: 1279878845 419720640 [ Run 25 of 100 GA/GALS ]
Beginning LAMARCKIAN GENETIC ALGORITHM (LGA), with a maximum of 2500000 energy evaluations.

Final-Value: -13.168


	FINAL GENETIC ALGORITHM DOCKED STATE
	_______________________________________________


Detailed state:  trans 15.827 -11.610 -0.032 quatxyzw -0.246946 -0.049481 -0.951331 -0.177589 center -0.023 0.069 -0.054 ntor 6 165.7035 161.1905 7.7540 -90.1059 115.0609 11.9724
State:	 15.827 -11.610  -0.032  -0.251 -0.050 -0.967 -159.541    165.70  161.19    7.75  -90.11  115.06   11.97

DOCKED: MODEL       25
DOCKED: USER    Run = 25
DOCKED: USER    DPF = ligand_dock.biased.dpf
DOCKED: USER  
DOCKED: USER    Estimated Free Energy of Binding    =   -9.13 kcal/mol  [=(1)+(2)+(3)-(4)]
DOCKED: USER    Estimated Inhibition Constant, Ki   =  203.06 nM (nanomolar)  [Temperature = 298.15 K]
DOCKED: USER    
DOCKED: USER    (1) Final Intermolecular Energy     =  -10.92 kcal/mol
DOCKED: USER        vdW + Hbond + desolv Energy     =  -10.92 kcal/mol
DOCKED: USER        Electrostatic Energy            =   +0.00 kcal/mol
DOCKED: USER    (2) Final Total Internal Energy     =   -2.25 kcal/mol
DOCKED: USER    (3) Torsional Free Energy           =   +1.79 kcal/mol
DOCKED: USER    (4) Unbound System's Energy  [=(2)] =   -2.25 kcal/mol
DOCKED: USER    
DOCKED: USER    
DOCKED: USER    NEWDPF move ligand.pdbqt
DOCKED: USER    NEWDPF about -0.023000 0.069000 -0.054000
DOCKED: USER    NEWDPF tran0 15.826757 -11.609521 -0.032286
DOCKED: USER    NEWDPF quaternion0 -0.246946 -0.049481 -0.951331 -0.177589
DOCKED: USER    NEWDPF axisangle0 -0.250935 -0.050281 -0.966697 -159.541329
DOCKED: USER    NEWDPF quat0 -0.250935 -0.050281 -0.966697 -159.541329
DOCKED: USER    NEWDPF dihe0 165.70 161.19 7.75 -90.11 115.06 11.97 
DOCKED: USER  keepresnum = 1 
DOCKED: USER  
DOCKED: REMARK  Name = 
DOCKED: REMARK  6 active torsions:
DOCKED: REMARK  status: ('A' for Active; 'I' for Inactive)
DOCKED: REMARK    1  A    between atoms: C_2  and  C_5
DOCKED: REMARK    2  A    between atoms: C_5  and  C_6
DOCKED: REMARK    3  A    between atoms: C_6  and  C_7
DOCKED: REMARK    4  A    between atoms: C_7  and  C_8
DOCKED: REMARK    5  A    between atoms: C_8  and  C_9
DOCKED: REMARK    6  A    between atoms: C_9  and  N_10
DOCKED: REMARK                            x       y       z     vdW  Elec       q    Type
DOCKED: REMARK                         _______ _______ _______ _____ _____    ______ ____
DOCKED: USER                              x       y       z     vdW  Elec       q    Type
DOCKED: USER                           _______ _______ _______ _____ _____    ______ ____
DOCKED: ROOT
DOCKED: ATOM      1  N   UNL     1      16.525 -12.091  -0.387 -0.40 +0.00    +0.000 N 
DOCKED: ATOM      2  C   UNL     1      16.417 -11.265  -1.561 -0.09 -0.00    +0.000 C 
DOCKED: ATOM      3  C   UNL     1      17.612 -10.567  -2.088 -0.20 -0.00    +0.000 A 
DOCKED: ATOM      4  C   UNL     1      17.526  -9.782  -3.252 -0.18 -0.00    +0.000 A 
DOCKED: ATOM      5  C   UNL     1      18.652  -9.124  -3.749 -0.14 -0.00    +0.000 A 
DOCKED: ATOM      6  C   UNL     1      19.879  -9.236  -3.095 -0.28 -0.00    +0.000 A 
DOCKED: ATOM      7  C   UNL     1      19.990 -10.012  -1.932 -0.41 -0.00    +0.000 A 
DOCKED: ATOM      8  C   UNL     1      21.223 -10.122  -1.274 -0.58 -0.00    +0.000 A 
DOCKED: ATOM      9  C   UNL     1      21.334 -10.891  -0.115 -0.55 -0.00    +0.000 A 
DOCKED: ATOM     10  C   UNL     1      20.220 -11.558   0.397 -0.46 -0.00    +0.000 A 
DOCKED: ATOM     11  C   UNL     1      18.972 -11.463  -0.245 -0.46 -0.00    +0.000 A 
DOCKED: ATOM     12  C   UNL     1      18.852 -10.686  -1.419 -0.35 -0.00    +0.000 A 
DOCKED: ATOM     13  O   UNL     1      15.304 -11.133  -2.141 -0.32 -0.00    +0.000 OA
DOCKED: ATOM     14  C   UNL     1      17.790 -12.170   0.299 -0.54 -0.00    +0.000 C 
DOCKED: ATOM     15  O   UNL     1      17.892 -12.839   1.364 -0.77 +0.00    +0.000 OA
DOCKED: ENDROOT
DOCKED: BRANCH   1  16
DOCKED: ATOM     16  C   UNL     1      15.338 -12.759   0.166 -0.55 +0.00    +0.000 C 
DOCKED: BRANCH  16  17
DOCKED: ATOM     17  C   UNL     1      14.459 -11.748   0.908 -0.45 +0.00    +0.000 C 
DOCKED: BRANCH  17  18
DOCKED: ATOM     18  C   UNL     1      15.181 -11.186   2.138 -0.46 +0.00    +0.000 C 
DOCKED: BRANCH  18  19
DOCKED: ATOM     19  C   UNL     1      15.978  -9.923   1.778 -0.36 +0.00    +0.000 C 
DOCKED: BRANCH  19  20
DOCKED: ATOM     20  C   UNL     1      16.921  -9.488   2.909 -0.42 +0.00    +0.000 C 
DOCKED: BRANCH  20  22
DOCKED: ATOM     21  O   UNL     1      19.138  -9.485   2.018 -0.42 -0.00    +0.000 OA
DOCKED: ATOM     22  C   UNL     1      18.294 -10.073   2.745 -0.52 -0.00    +0.000 C 
DOCKED: ATOM     23  N   UNL     1      18.656 -11.272   3.434 -0.52 -0.00    +0.000 N 
DOCKED: ATOM     24  O   UNL     1      19.899 -11.790   3.300 -1.48 -0.00    +0.000 OA
DOCKED: ATOM     25  H   UNL     1      17.998 -11.723   4.011 -0.01 +0.00    +0.000 HD
DOCKED: ENDBRANCH  20  22
DOCKED: ENDBRANCH  19  20
DOCKED: ENDBRANCH  18  19
DOCKED: ENDBRANCH  17  18
DOCKED: ENDBRANCH  16  17
DOCKED: ENDBRANCH   1  16
DOCKED: TORSDOF 6
DOCKED: TER
DOCKED: ENDMDL
________________________________________________________________________________


	BEGINNING GENETIC ALGORITHM DOCKING 26 of 100
Run: 26 Seed: 870480600 237433588 [ Run 26 of 100 GA/GALS ]
Beginning LAMARCKIAN GENETIC ALGORITHM (LGA), with a maximum of 2500000 energy evaluations.

Final-Value: -13.084


	FINAL GENETIC ALGORITHM DOCKED STATE
	_______________________________________________


Detailed state:  trans 19.374 -12.366 1.136 quatxyzw 0.044018 0.016537 -0.099091 -0.993967 center -0.023 0.069 -0.054 ntor 6 -76.4185 -37.9979 93.1774 -78.4291 55.2466 -164.3048
State:	 19.374 -12.366   1.136   0.401  0.151 -0.903 -12.594    -76.42  -38.00   93.18  -78.43   55.25 -164.30

DOCKED: MODEL       26
DOCKED: USER    Run = 26
DOCKED: USER    DPF = ligand_dock.biased.dpf
DOCKED: USER  
DOCKED: USER    Estimated Free Energy of Binding    =  -10.16 kcal/mol  [=(1)+(2)+(3)-(4)]
DOCKED: USER    Estimated Inhibition Constant, Ki   =   35.97 nM (nanomolar)  [Temperature = 298.15 K]
DOCKED: USER    
DOCKED: USER    (1) Final Intermolecular Energy     =  -11.95 kcal/mol
DOCKED: USER        vdW + Hbond + desolv Energy     =  -11.95 kcal/mol
DOCKED: USER        Electrostatic Energy            =   +0.00 kcal/mol
DOCKED: USER    (2) Final Total Internal Energy     =   -1.14 kcal/mol
DOCKED: USER    (3) Torsional Free Energy           =   +1.79 kcal/mol
DOCKED: USER    (4) Unbound System's Energy  [=(2)] =   -1.14 kcal/mol
DOCKED: USER    
DOCKED: USER    
DOCKED: USER    NEWDPF move ligand.pdbqt
DOCKED: USER    NEWDPF about -0.023000 0.069000 -0.054000
DOCKED: USER    NEWDPF tran0 19.373566 -12.366320 1.136401
DOCKED: USER    NEWDPF quaternion0 0.044018 0.016537 -0.099091 -0.993967
DOCKED: USER    NEWDPF axisangle0 0.401326 0.150770 -0.903441 -12.593910
DOCKED: USER    NEWDPF quat0 0.401326 0.150770 -0.903441 -12.593910
DOCKED: USER    NEWDPF dihe0 -76.42 -38.00 93.18 -78.43 55.25 -164.30 
DOCKED: USER  keepresnum = 1 
DOCKED: USER  
DOCKED: REMARK  Name = 
DOCKED: REMARK  6 active torsions:
DOCKED: REMARK  status: ('A' for Active; 'I' for Inactive)
DOCKED: REMARK    1  A    between atoms: C_2  and  C_5
DOCKED: REMARK    2  A    between atoms: C_5  and  C_6
DOCKED: REMARK    3  A    between atoms: C_6  and  C_7
DOCKED: REMARK    4  A    between atoms: C_7  and  C_8
DOCKED: REMARK    5  A    between atoms: C_8  and  C_9
DOCKED: REMARK    6  A    between atoms: C_9  and  N_10
DOCKED: REMARK                            x       y       z     vdW  Elec       q    Type
DOCKED: REMARK                         _______ _______ _______ _____ _____    ______ ____
DOCKED: USER                              x       y       z     vdW  Elec       q    Type
DOCKED: USER                           _______ _______ _______ _____ _____    ______ ____
DOCKED: ROOT
DOCKED: ATOM      1  N   UNL     1      18.931 -11.560   1.139 -0.52 -0.00    +0.000 N 
DOCKED: ATOM      2  C   UNL     1      18.019 -12.128   0.181 -0.54 -0.00    +0.000 C 
DOCKED: ATOM      3  C   UNL     1      16.559 -12.080   0.429 -0.43 +0.00    +0.000 A 
DOCKED: ATOM      4  C   UNL     1      15.657 -12.603  -0.513 -0.45 +0.00    +0.000 A 
DOCKED: ATOM      5  C   UNL     1      14.281 -12.558  -0.279 -0.36 +0.00    +0.000 A 
DOCKED: ATOM      6  C   UNL     1      13.785 -11.992   0.894 -0.41 +0.00    +0.000 A 
DOCKED: ATOM      7  C   UNL     1      14.665 -11.464   1.850 -0.41 +0.00    +0.000 A 
DOCKED: ATOM      8  C   UNL     1      14.166 -10.897   3.031 -0.35 +0.00    +0.000 A 
DOCKED: ATOM      9  C   UNL     1      15.040 -10.374   3.983 -0.44 +0.00    +0.000 A 
DOCKED: ATOM     10  C   UNL     1      16.419 -10.410   3.768 -0.32 +0.00    +0.000 A 
DOCKED: ATOM     11  C   UNL     1      16.945 -10.972   2.591 -0.41 +0.00    +0.000 A 
DOCKED: ATOM     12  C   UNL     1      16.065 -11.504   1.622 -0.39 +0.00    +0.000 A 
DOCKED: ATOM     13  O   UNL     1      18.461 -12.671  -0.869 -0.46 -0.00    +0.000 OA
DOCKED: ATOM     14  C   UNL     1      18.407 -11.010   2.363 -0.57 -0.00    +0.000 C 
DOCKED: ATOM     15  O   UNL     1      19.193 -10.563   3.244 -0.72 -0.00    +0.000 OA
DOCKED: ENDROOT
DOCKED: BRANCH   1  16
DOCKED: ATOM     16  C   UNL     1      20.383 -11.635   0.920 -0.69 -0.00    +0.000 C 
DOCKED: BRANCH  16  17
DOCKED: ATOM     17  C   UNL     1      20.936 -10.254   0.558 -0.67 -0.00    +0.000 C 
DOCKED: BRANCH  17  18
DOCKED: ATOM     18  C   UNL     1      21.703 -10.296  -0.769 -0.61 -0.00    +0.000 C 
DOCKED: BRANCH  18  19
DOCKED: ATOM     19  C   UNL     1      20.850  -9.731  -1.915 -0.58 -0.00    +0.000 C 
DOCKED: BRANCH  19  20
DOCKED: ATOM     20  C   UNL     1      19.897 -10.781  -2.503 -0.45 -0.00    +0.000 C 
DOCKED: BRANCH  20  22
DOCKED: ATOM     21  O   UNL     1      19.518 -11.748  -4.655 -0.56 -0.00    +0.000 OA
DOCKED: ATOM     22  C   UNL     1      20.355 -11.253  -3.853 -0.45 -0.00    +0.000 C 
DOCKED: ATOM     23  N   UNL     1      21.723 -11.114  -4.243 -0.50 -0.00    +0.000 N 
DOCKED: ATOM     24  O   UNL     1      22.131 -11.524  -5.467 -0.61 -0.00    +0.000 OA
DOCKED: ATOM     25  H   UNL     1      22.372 -10.716  -3.619 -0.05 -0.00    +0.000 HD
DOCKED: ENDBRANCH  20  22
DOCKED: ENDBRANCH  19  20
DOCKED: ENDBRANCH  18  19
DOCKED: ENDBRANCH  17  18
DOCKED: ENDBRANCH  16  17
DOCKED: ENDBRANCH   1  16
DOCKED: TORSDOF 6
DOCKED: TER
DOCKED: ENDMDL
________________________________________________________________________________


	BEGINNING GENETIC ALGORITHM DOCKING 27 of 100
Run: 27 Seed: 1621233154 362240773 [ Run 27 of 100 GA/GALS ]
Beginning LAMARCKIAN GENETIC ALGORITHM (LGA), with a maximum of 2500000 energy evaluations.

Final-Value: -12.487


	FINAL GENETIC ALGORITHM DOCKED STATE
	_______________________________________________


Detailed state:  trans 19.273 -9.833 -2.382 quatxyzw 0.673788 -0.074452 -0.642564 0.357180 center -0.023 0.069 -0.054 ntor 6 -78.7474 -173.4119 71.7079 -136.6511 42.2501 164.0020
State:	 19.273  -9.833  -2.382   0.721 -0.080 -0.688 138.146    -78.75 -173.41   71.71 -136.65   42.25  164.00

DOCKED: MODEL       27
DOCKED: USER    Run = 27
DOCKED: USER    DPF = ligand_dock.biased.dpf
DOCKED: USER  
DOCKED: USER    Estimated Free Energy of Binding    =   -8.56 kcal/mol  [=(1)+(2)+(3)-(4)]
DOCKED: USER    Estimated Inhibition Constant, Ki   =  527.93 nM (nanomolar)  [Temperature = 298.15 K]
DOCKED: USER    
DOCKED: USER    (1) Final Intermolecular Energy     =  -10.35 kcal/mol
DOCKED: USER        vdW + Hbond + desolv Energy     =  -10.35 kcal/mol
DOCKED: USER        Electrostatic Energy            =   +0.00 kcal/mol
DOCKED: USER    (2) Final Total Internal Energy     =   -2.13 kcal/mol
DOCKED: USER    (3) Torsional Free Energy           =   +1.79 kcal/mol
DOCKED: USER    (4) Unbound System's Energy  [=(2)] =   -2.13 kcal/mol
DOCKED: USER    
DOCKED: USER    
DOCKED: USER    NEWDPF move ligand.pdbqt
DOCKED: USER    NEWDPF about -0.023000 0.069000 -0.054000
DOCKED: USER    NEWDPF tran0 19.272738 -9.832986 -2.381828
DOCKED: USER    NEWDPF quaternion0 0.673788 -0.074452 -0.642564 0.357180
DOCKED: USER    NEWDPF axisangle0 0.721373 -0.079710 -0.687944 138.145747
DOCKED: USER    NEWDPF quat0 0.721373 -0.079710 -0.687944 138.145747
DOCKED: USER    NEWDPF dihe0 -78.75 -173.41 71.71 -136.65 42.25 164.00 
DOCKED: USER  keepresnum = 1 
DOCKED: USER  
DOCKED: REMARK  Name = 
DOCKED: REMARK  6 active torsions:
DOCKED: REMARK  status: ('A' for Active; 'I' for Inactive)
DOCKED: REMARK    1  A    between atoms: C_2  and  C_5
DOCKED: REMARK    2  A    between atoms: C_5  and  C_6
DOCKED: REMARK    3  A    between atoms: C_6  and  C_7
DOCKED: REMARK    4  A    between atoms: C_7  and  C_8
DOCKED: REMARK    5  A    between atoms: C_8  and  C_9
DOCKED: REMARK    6  A    between atoms: C_9  and  N_10
DOCKED: REMARK                            x       y       z     vdW  Elec       q    Type
DOCKED: REMARK                         _______ _______ _______ _____ _____    ______ ____
DOCKED: USER                              x       y       z     vdW  Elec       q    Type
DOCKED: USER                           _______ _______ _______ _____ _____    ______ ____
DOCKED: ROOT
DOCKED: ATOM      1  N   UNL     1      18.851 -10.605  -2.115 -0.36 -0.00    +0.000 N 
DOCKED: ATOM      2  C   UNL     1      19.937 -10.806  -1.192 -0.50 -0.00    +0.000 C 
DOCKED: ATOM      3  C   UNL     1      19.656 -11.044   0.243 -0.54 -0.00    +0.000 A 
DOCKED: ATOM      4  C   UNL     1      20.707 -11.272   1.149 -0.64 -0.00    +0.000 A 
DOCKED: ATOM      5  C   UNL     1      20.442 -11.496   2.501 -0.61 -0.00    +0.000 A 
DOCKED: ATOM      6  C   UNL     1      19.130 -11.496   2.970 -0.52 -0.00    +0.000 A 
DOCKED: ATOM      7  C   UNL     1      18.064 -11.270   2.087 -0.45 +0.00    +0.000 A 
DOCKED: ATOM      8  C   UNL     1      16.744 -11.268   2.560 -0.37 +0.00    +0.000 A 
DOCKED: ATOM      9  C   UNL     1      15.684 -11.040   1.683 -0.36 +0.00    +0.000 A 
DOCKED: ATOM     10  C   UNL     1      15.928 -10.814   0.327 -0.30 +0.00    +0.000 A 
DOCKED: ATOM     11  C   UNL     1      17.243 -10.813  -0.173 -0.31 -0.00    +0.000 A 
DOCKED: ATOM     12  C   UNL     1      18.322 -11.042   0.711 -0.43 -0.00    +0.000 A 
DOCKED: ATOM     13  O   UNL     1      21.130 -10.776  -1.603 -0.62 -0.00    +0.000 OA
DOCKED: ATOM     14  C   UNL     1      17.502 -10.573  -1.611 -0.27 -0.00    +0.000 C 
DOCKED: ATOM     15  O   UNL     1      16.539 -10.337  -2.392 -0.30 -0.00    +0.000 OA
DOCKED: ENDROOT
DOCKED: BRANCH   1  16
DOCKED: ATOM     16  C   UNL     1      19.120 -10.332  -3.534 -0.38 -0.00    +0.000 C 
DOCKED: BRANCH  16  17
DOCKED: ATOM     17  C   UNL     1      19.523 -11.623  -4.254 -0.45 -0.00    +0.000 C 
DOCKED: BRANCH  17  18
DOCKED: ATOM     18  C   UNL     1      20.694 -11.378  -5.213 -0.51 -0.00    +0.000 C 
DOCKED: BRANCH  18  19
DOCKED: ATOM     19  C   UNL     1      21.766 -10.496  -4.556 -0.47 -0.00    +0.000 C 
DOCKED: BRANCH  19  20
DOCKED: ATOM     20  C   UNL     1      21.749  -9.059  -5.097 -0.32 -0.00    +0.000 C 
DOCKED: BRANCH  20  22
DOCKED: ATOM     21  O   UNL     1      20.998  -6.923  -4.333 -0.24 -0.00    +0.000 OA
DOCKED: ATOM     22  C   UNL     1      21.438  -8.062  -4.019 -0.34 -0.00    +0.000 C 
DOCKED: ATOM     23  N   UNL     1      21.606  -8.408  -2.642 -0.43 -0.00    +0.000 N 
DOCKED: ATOM     24  O   UNL     1      21.309  -7.515  -1.670 -0.57 -0.00    +0.000 OA
DOCKED: ATOM     25  H   UNL     1      21.938  -9.302  -2.400 -0.04 -0.00    +0.000 HD
DOCKED: ENDBRANCH  20  22
DOCKED: ENDBRANCH  19  20
DOCKED: ENDBRANCH  18  19
DOCKED: ENDBRANCH  17  18
DOCKED: ENDBRANCH  16  17
DOCKED: ENDBRANCH   1  16
DOCKED: TORSDOF 6
DOCKED: TER
DOCKED: ENDMDL
________________________________________________________________________________


	BEGINNING GENETIC ALGORITHM DOCKING 28 of 100
Run: 28 Seed: 1501546688 1063908646 [ Run 28 of 100 GA/GALS ]
Beginning LAMARCKIAN GENETIC ALGORITHM (LGA), with a maximum of 2500000 energy evaluations.

Final-Value: -13.288


	FINAL GENETIC ALGORITHM DOCKED STATE
	_______________________________________________


Detailed state:  trans 19.568 -12.189 1.161 quatxyzw 0.074532 0.012605 -0.077816 -0.994098 center -0.023 0.069 -0.054 ntor 6 -178.2223 24.9735 63.2558 -20.7588 69.7444 174.0238
State:	 19.568 -12.189   1.161   0.687  0.116 -0.717 -12.456   -178.22   24.97   63.26  -20.76   69.74  174.02

DOCKED: MODEL       28
DOCKED: USER    Run = 28
DOCKED: USER    DPF = ligand_dock.biased.dpf
DOCKED: USER  
DOCKED: USER    Estimated Free Energy of Binding    =  -10.30 kcal/mol  [=(1)+(2)+(3)-(4)]
DOCKED: USER    Estimated Inhibition Constant, Ki   =   28.02 nM (nanomolar)  [Temperature = 298.15 K]
DOCKED: USER    
DOCKED: USER    (1) Final Intermolecular Energy     =  -12.09 kcal/mol
DOCKED: USER        vdW + Hbond + desolv Energy     =  -12.09 kcal/mol
DOCKED: USER        Electrostatic Energy            =   +0.00 kcal/mol
DOCKED: USER    (2) Final Total Internal Energy     =   -1.19 kcal/mol
DOCKED: USER    (3) Torsional Free Energy           =   +1.79 kcal/mol
DOCKED: USER    (4) Unbound System's Energy  [=(2)] =   -1.19 kcal/mol
DOCKED: USER    
DOCKED: USER    
DOCKED: USER    NEWDPF move ligand.pdbqt
DOCKED: USER    NEWDPF about -0.023000 0.069000 -0.054000
DOCKED: USER    NEWDPF tran0 19.568003 -12.189133 1.160769
DOCKED: USER    NEWDPF quaternion0 0.074532 0.012605 -0.077816 -0.994098
DOCKED: USER    NEWDPF axisangle0 0.687016 0.116193 -0.717292 -12.456102
DOCKED: USER    NEWDPF quat0 0.687016 0.116193 -0.717292 -12.456102
DOCKED: USER    NEWDPF dihe0 -178.22 24.97 63.26 -20.76 69.74 174.02 
DOCKED: USER  keepresnum = 1 
DOCKED: USER  
DOCKED: REMARK  Name = 
DOCKED: REMARK  6 active torsions:
DOCKED: REMARK  status: ('A' for Active; 'I' for Inactive)
DOCKED: REMARK    1  A    between atoms: C_2  and  C_5
DOCKED: REMARK    2  A    between atoms: C_5  and  C_6
DOCKED: REMARK    3  A    between atoms: C_6  and  C_7
DOCKED: REMARK    4  A    between atoms: C_7  and  C_8
DOCKED: REMARK    5  A    between atoms: C_8  and  C_9
DOCKED: REMARK    6  A    between atoms: C_9  and  N_10
DOCKED: REMARK                            x       y       z     vdW  Elec       q    Type
DOCKED: REMARK                         _______ _______ _______ _____ _____    ______ ____
DOCKED: USER                              x       y       z     vdW  Elec       q    Type
DOCKED: USER                           _______ _______ _______ _____ _____    ______ ____
DOCKED: ROOT
DOCKED: ATOM      1  N   UNL     1      19.093 -11.403   1.205 -0.53 -0.00    +0.000 N 
DOCKED: ATOM      2  C   UNL     1      18.219 -11.949   0.199 -0.54 -0.00    +0.000 C 
DOCKED: ATOM      3  C   UNL     1      16.755 -11.974   0.425 -0.43 +0.00    +0.000 A 
DOCKED: ATOM      4  C   UNL     1      15.888 -12.476  -0.562 -0.39 +0.00    +0.000 A 
DOCKED: ATOM      5  C   UNL     1      14.509 -12.500  -0.350 -0.42 +0.00    +0.000 A 
DOCKED: ATOM      6  C   UNL     1      13.973 -12.027   0.847 -0.42 +0.00    +0.000 A 
DOCKED: ATOM      7  C   UNL     1      14.816 -11.523   1.848 -0.41 +0.00    +0.000 A 
DOCKED: ATOM      8  C   UNL     1      14.277 -11.050   3.052 -0.35 +0.00    +0.000 A 
DOCKED: ATOM      9  C   UNL     1      15.115 -10.551   4.049 -0.44 +0.00    +0.000 A 
DOCKED: ATOM     10  C   UNL     1      16.497 -10.517   3.855 -0.30 +0.00    +0.000 A 
DOCKED: ATOM     11  C   UNL     1      17.063 -10.985   2.655 -0.40 +0.00    +0.000 A 
DOCKED: ATOM     12  C   UNL     1      16.219 -11.493   1.641 -0.39 +0.00    +0.000 A 
DOCKED: ATOM     13  O   UNL     1      18.698 -12.407  -0.875 -0.48 -0.00    +0.000 OA
DOCKED: ATOM     14  C   UNL     1      18.529 -10.950   2.451 -0.59 -0.00    +0.000 C 
DOCKED: ATOM     15  O   UNL     1      19.283 -10.526   3.370 -0.69 -0.00    +0.000 OA
DOCKED: ENDROOT
DOCKED: BRANCH   1  16
DOCKED: ATOM     16  C   UNL     1      20.549 -11.406   1.006 -0.73 -0.00    +0.000 C 
DOCKED: BRANCH  16  17
DOCKED: ATOM     17  C   UNL     1      20.980 -10.158   0.230 -0.70 -0.00    +0.000 C 
DOCKED: BRANCH  17  18
DOCKED: ATOM     18  C   UNL     1      21.450 -10.521  -1.183 -0.63 -0.00    +0.000 C 
DOCKED: BRANCH  18  19
DOCKED: ATOM     19  C   UNL     1      21.396  -9.298  -2.111 -0.53 -0.00    +0.000 C 
DOCKED: BRANCH  19  20
DOCKED: ATOM     20  C   UNL     1      20.348  -9.455  -3.221 -0.43 -0.00    +0.000 C 
DOCKED: BRANCH  20  22
DOCKED: ATOM     21  O   UNL     1      19.523 -11.681  -3.497 -0.48 -0.00    +0.000 OA
DOCKED: ATOM     22  C   UNL     1      20.385 -10.826  -3.833 -0.49 -0.00    +0.000 C 
DOCKED: ATOM     23  N   UNL     1      21.371 -11.152  -4.815 -0.50 -0.00    +0.000 N 
DOCKED: ATOM     24  O   UNL     1      21.394 -12.382  -5.379 -0.79 -0.00    +0.000 OA
DOCKED: ATOM     25  H   UNL     1      22.036 -10.478  -5.084 -0.02 -0.00    +0.000 HD
DOCKED: ENDBRANCH  20  22
DOCKED: ENDBRANCH  19  20
DOCKED: ENDBRANCH  18  19
DOCKED: ENDBRANCH  17  18
DOCKED: ENDBRANCH  16  17
DOCKED: ENDBRANCH   1  16
DOCKED: TORSDOF 6
DOCKED: TER
DOCKED: ENDMDL
________________________________________________________________________________


	BEGINNING GENETIC ALGORITHM DOCKING 29 of 100
Run: 29 Seed: 1004581100 918266546 [ Run 29 of 100 GA/GALS ]
Beginning LAMARCKIAN GENETIC ALGORITHM (LGA), with a maximum of 2500000 energy evaluations.

Final-Value: -12.230


	FINAL GENETIC ALGORITHM DOCKED STATE
	_______________________________________________


Detailed state:  trans 20.679 -9.402 -2.038 quatxyzw -0.801231 -0.100275 0.501225 -0.311040 center -0.023 0.069 -0.054 ntor 6 -87.6692 -94.7731 69.8622 -10.4953 -33.0412 -163.5262
State:	 20.679  -9.402  -2.038  -0.843 -0.106  0.527 -143.756    -87.67  -94.77   69.86  -10.50  -33.04 -163.53

DOCKED: MODEL       29
DOCKED: USER    Run = 29
DOCKED: USER    DPF = ligand_dock.biased.dpf
DOCKED: USER  
DOCKED: USER    Estimated Free Energy of Binding    =   -9.83 kcal/mol  [=(1)+(2)+(3)-(4)]
DOCKED: USER    Estimated Inhibition Constant, Ki   =   62.71 nM (nanomolar)  [Temperature = 298.15 K]
DOCKED: USER    
DOCKED: USER    (1) Final Intermolecular Energy     =  -11.62 kcal/mol
DOCKED: USER        vdW + Hbond + desolv Energy     =  -11.62 kcal/mol
DOCKED: USER        Electrostatic Energy            =   +0.00 kcal/mol
DOCKED: USER    (2) Final Total Internal Energy     =   -0.61 kcal/mol
DOCKED: USER    (3) Torsional Free Energy           =   +1.79 kcal/mol
DOCKED: USER    (4) Unbound System's Energy  [=(2)] =   -0.61 kcal/mol
DOCKED: USER    
DOCKED: USER    
DOCKED: USER    NEWDPF move ligand.pdbqt
DOCKED: USER    NEWDPF about -0.023000 0.069000 -0.054000
DOCKED: USER    NEWDPF tran0 20.678524 -9.401784 -2.038091
DOCKED: USER    NEWDPF quaternion0 -0.801231 -0.100275 0.501225 -0.311040
DOCKED: USER    NEWDPF axisangle0 -0.843050 -0.105509 0.527385 -143.756115
DOCKED: USER    NEWDPF quat0 -0.843050 -0.105509 0.527385 -143.756115
DOCKED: USER    NEWDPF dihe0 -87.67 -94.77 69.86 -10.50 -33.04 -163.53 
DOCKED: USER  keepresnum = 1 
DOCKED: USER  
DOCKED: REMARK  Name = 
DOCKED: REMARK  6 active torsions:
DOCKED: REMARK  status: ('A' for Active; 'I' for Inactive)
DOCKED: REMARK    1  A    between atoms: C_2  and  C_5
DOCKED: REMARK    2  A    between atoms: C_5  and  C_6
DOCKED: REMARK    3  A    between atoms: C_6  and  C_7
DOCKED: REMARK    4  A    between atoms: C_7  and  C_8
DOCKED: REMARK    5  A    between atoms: C_8  and  C_9
DOCKED: REMARK    6  A    between atoms: C_9  and  N_10
DOCKED: REMARK                            x       y       z     vdW  Elec       q    Type
DOCKED: REMARK                         _______ _______ _______ _____ _____    ______ ____
DOCKED: USER                              x       y       z     vdW  Elec       q    Type
DOCKED: USER                           _______ _______ _______ _____ _____    ______ ____
DOCKED: ROOT
DOCKED: ATOM      1  N   UNL     1      20.361 -10.264  -1.995 -0.48 -0.00    +0.000 N 
DOCKED: ATOM      2  C   UNL     1      20.929 -10.340  -0.674 -0.67 -0.00    +0.000 C 
DOCKED: ATOM      3  C   UNL     1      20.091 -10.769   0.469 -0.58 -0.00    +0.000 A 
DOCKED: ATOM      4  C   UNL     1      20.642 -10.877   1.758 -0.59 -0.00    +0.000 A 
DOCKED: ATOM      5  C   UNL     1      19.853 -11.281   2.836 -0.66 -0.00    +0.000 A 
DOCKED: ATOM      6  C   UNL     1      18.504 -11.581   2.648 -0.25 +0.00    +0.000 A 
DOCKED: ATOM      7  C   UNL     1      17.930 -11.480   1.372 -0.45 +0.00    +0.000 A 
DOCKED: ATOM      8  C   UNL     1      16.574 -11.780   1.183 -0.41 +0.00    +0.000 A 
DOCKED: ATOM      9  C   UNL     1      16.002 -11.676  -0.085 -0.37 +0.00    +0.000 A 
DOCKED: ATOM     10  C   UNL     1      16.776 -11.274  -1.176 -0.22 -0.00    +0.000 A 
DOCKED: ATOM     11  C   UNL     1      18.139 -10.969  -1.012 -0.35 -0.00    +0.000 A 
DOCKED: ATOM     12  C   UNL     1      18.725 -11.071   0.269 -0.45 -0.00    +0.000 A 
DOCKED: ATOM     13  O   UNL     1      22.141 -10.040  -0.489 -0.67 -0.00    +0.000 OA
DOCKED: ATOM     14  C   UNL     1      18.958 -10.543  -2.170 -0.40 -0.00    +0.000 C 
DOCKED: ATOM     15  O   UNL     1      18.426 -10.422  -3.308 -0.34 -0.00    +0.000 OA
DOCKED: ENDROOT
DOCKED: BRANCH   1  16
DOCKED: ATOM     16  C   UNL     1      21.174  -9.805  -3.130 -0.52 -0.00    +0.000 C 
DOCKED: BRANCH  16  17
DOCKED: ATOM     17  C   UNL     1      21.488 -10.977  -4.064 -0.47 -0.00    +0.000 C 
DOCKED: BRANCH  17  18
DOCKED: ATOM     18  C   UNL     1      21.566 -10.515  -5.524 -0.45 -0.00    +0.000 C 
DOCKED: BRANCH  18  19
DOCKED: ATOM     19  C   UNL     1      22.126 -11.628  -6.423 -0.36 -0.00    +0.000 C 
DOCKED: BRANCH  19  20
DOCKED: ATOM     20  C   UNL     1      23.562 -11.340  -6.880 -0.30 -0.00    +0.000 C 
DOCKED: BRANCH  20  22
DOCKED: ATOM     21  O   UNL     1      25.165 -12.249  -8.402 -0.67 -0.00    +0.000 OA
DOCKED: ATOM     22  C   UNL     1      23.956 -12.194  -8.050 -0.49 -0.00    +0.000 C 
DOCKED: ATOM     23  N   UNL     1      22.975 -12.969  -8.743 -0.39 -0.00    +0.000 N 
DOCKED: ATOM     24  O   UNL     1      23.333 -13.752  -9.787 -0.48 -0.00    +0.000 OA
DOCKED: ATOM     25  H   UNL     1      22.033 -12.933  -8.459 -0.61 -0.00    +0.000 HD
DOCKED: ENDBRANCH  20  22
DOCKED: ENDBRANCH  19  20
DOCKED: ENDBRANCH  18  19
DOCKED: ENDBRANCH  17  18
DOCKED: ENDBRANCH  16  17
DOCKED: ENDBRANCH   1  16
DOCKED: TORSDOF 6
DOCKED: TER
DOCKED: ENDMDL
________________________________________________________________________________


	BEGINNING GENETIC ALGORITHM DOCKING 30 of 100
Run: 30 Seed: 1677421347 152442525 [ Run 30 of 100 GA/GALS ]
Beginning LAMARCKIAN GENETIC ALGORITHM (LGA), with a maximum of 2500000 energy evaluations.

Final-Value: -13.121


	FINAL GENETIC ALGORITHM DOCKED STATE
	_______________________________________________


Detailed state:  trans 16.186 -12.567 -1.129 quatxyzw -0.193077 0.974964 0.006198 -0.110130 center -0.023 0.069 -0.054 ntor 6 67.5570 -55.0775 -29.3188 79.3136 -174.4455 -178.4010
State:	 16.186 -12.567  -1.129  -0.194  0.981  0.006 -167.354     67.56  -55.08  -29.32   79.31 -174.45 -178.40

DOCKED: MODEL       30
DOCKED: USER    Run = 30
DOCKED: USER    DPF = ligand_dock.biased.dpf
DOCKED: USER  
DOCKED: USER    Estimated Free Energy of Binding    =   -9.15 kcal/mol  [=(1)+(2)+(3)-(4)]
DOCKED: USER    Estimated Inhibition Constant, Ki   =  195.60 nM (nanomolar)  [Temperature = 298.15 K]
DOCKED: USER    
DOCKED: USER    (1) Final Intermolecular Energy     =  -10.94 kcal/mol
DOCKED: USER        vdW + Hbond + desolv Energy     =  -10.94 kcal/mol
DOCKED: USER        Electrostatic Energy            =   +0.00 kcal/mol
DOCKED: USER    (2) Final Total Internal Energy     =   -2.18 kcal/mol
DOCKED: USER    (3) Torsional Free Energy           =   +1.79 kcal/mol
DOCKED: USER    (4) Unbound System's Energy  [=(2)] =   -2.18 kcal/mol
DOCKED: USER    
DOCKED: USER    
DOCKED: USER    NEWDPF move ligand.pdbqt
DOCKED: USER    NEWDPF about -0.023000 0.069000 -0.054000
DOCKED: USER    NEWDPF tran0 16.185980 -12.566983 -1.129155
DOCKED: USER    NEWDPF quaternion0 -0.193077 0.974964 0.006198 -0.110130
DOCKED: USER    NEWDPF axisangle0 -0.194259 0.980930 0.006236 -167.354344
DOCKED: USER    NEWDPF quat0 -0.194259 0.980930 0.006236 -167.354344
DOCKED: USER    NEWDPF dihe0 67.56 -55.08 -29.32 79.31 -174.45 -178.40 
DOCKED: USER  keepresnum = 1 
DOCKED: USER  
DOCKED: REMARK  Name = 
DOCKED: REMARK  6 active torsions:
DOCKED: REMARK  status: ('A' for Active; 'I' for Inactive)
DOCKED: REMARK    1  A    between atoms: C_2  and  C_5
DOCKED: REMARK    2  A    between atoms: C_5  and  C_6
DOCKED: REMARK    3  A    between atoms: C_6  and  C_7
DOCKED: REMARK    4  A    between atoms: C_7  and  C_8
DOCKED: REMARK    5  A    between atoms: C_8  and  C_9
DOCKED: REMARK    6  A    between atoms: C_9  and  N_10
DOCKED: REMARK                            x       y       z     vdW  Elec       q    Type
DOCKED: REMARK                         _______ _______ _______ _____ _____    ______ ____
DOCKED: USER                              x       y       z     vdW  Elec       q    Type
DOCKED: USER                           _______ _______ _______ _____ _____    ______ ____
DOCKED: ROOT
DOCKED: ATOM      1  N   UNL     1      16.437 -11.702  -0.943 -0.30 +0.00    +0.000 N 
DOCKED: ATOM      2  C   UNL     1      17.219 -12.230   0.145 -0.52 +0.00    +0.000 C 
DOCKED: ATOM      3  C   UNL     1      18.653 -11.879   0.264 -0.50 -0.00    +0.000 A 
DOCKED: ATOM      4  C   UNL     1      19.420 -12.363   1.339 -0.57 -0.00    +0.000 A 
DOCKED: ATOM      5  C   UNL     1      20.771 -12.033   1.452 -0.57 -0.00    +0.000 A 
DOCKED: ATOM      6  C   UNL     1      21.379 -11.219   0.497 -0.29 -0.00    +0.000 A 
DOCKED: ATOM      7  C   UNL     1      20.636 -10.724  -0.585 -0.54 -0.00    +0.000 A 
DOCKED: ATOM      8  C   UNL     1      21.248  -9.907  -1.546 -0.55 -0.00    +0.000 A 
DOCKED: ATOM      9  C   UNL     1      20.511  -9.418  -2.624 -0.42 -0.00    +0.000 A 
DOCKED: ATOM     10  C   UNL     1      19.158  -9.736  -2.754 -0.17 -0.00    +0.000 A 
DOCKED: ATOM     11  C   UNL     1      18.520 -10.553  -1.803 -0.30 -0.00    +0.000 A 
DOCKED: ATOM     12  C   UNL     1      19.262 -11.053  -0.708 -0.44 -0.00    +0.000 A 
DOCKED: ATOM     13  O   UNL     1      16.684 -12.993   0.996 -1.08 +0.00    +0.000 OA
DOCKED: ATOM     14  C   UNL     1      17.085 -10.891  -1.941 -0.12 -0.00    +0.000 C 
DOCKED: ATOM     15  O   UNL     1      16.433 -10.469  -2.936 -0.28 -0.00    +0.000 OA
DOCKED: ENDROOT
DOCKED: BRANCH   1  16
DOCKED: ATOM     16  C   UNL     1      15.022 -12.073  -1.091 -0.42 +0.00    +0.000 C 
DOCKED: BRANCH  16  17
DOCKED: ATOM     17  C   UNL     1      14.128 -11.030  -0.414 -0.34 +0.00    +0.000 C 
DOCKED: BRANCH  17  18
DOCKED: ATOM     18  C   UNL     1      14.953  -9.844   0.098 -0.28 +0.00    +0.000 C 
DOCKED: BRANCH  18  19
DOCKED: ATOM     19  C   UNL     1      15.207  -9.962   1.609 -0.32 +0.00    +0.000 C 
DOCKED: BRANCH  19  20
DOCKED: ATOM     20  C   UNL     1      16.484  -9.231   2.043 -0.13 +0.00    +0.000 C 
DOCKED: BRANCH  20  22
DOCKED: ATOM     21  O   UNL     1      17.041 -11.283   3.135 -0.50 +0.00    +0.000 OA
DOCKED: ATOM     22  C   UNL     1      17.437 -10.149   2.754 -0.49 +0.00    +0.000 C 
DOCKED: ATOM     23  N   UNL     1      18.794  -9.756   2.970 -0.50 -0.00    +0.000 N 
DOCKED: ATOM     24  O   UNL     1      19.657 -10.590   3.595 -0.79 -0.00    +0.000 OA
DOCKED: ATOM     25  H   UNL     1      19.104  -8.874   2.661 -0.52 -0.00    +0.000 HD
DOCKED: ENDBRANCH  20  22
DOCKED: ENDBRANCH  19  20
DOCKED: ENDBRANCH  18  19
DOCKED: ENDBRANCH  17  18
DOCKED: ENDBRANCH  16  17
DOCKED: ENDBRANCH   1  16
DOCKED: TORSDOF 6
DOCKED: TER
DOCKED: ENDMDL
________________________________________________________________________________


	BEGINNING GENETIC ALGORITHM DOCKING 31 of 100
Run: 31 Seed: 2056649620 565841933 [ Run 31 of 100 GA/GALS ]
Beginning LAMARCKIAN GENETIC ALGORITHM (LGA), with a maximum of 2500000 energy evaluations.

Final-Value: -12.978


	FINAL GENETIC ALGORITHM DOCKED STATE
	_______________________________________________


Detailed state:  trans 15.924 -10.657 -1.186 quatxyzw 0.081115 -0.017733 -0.996077 0.030608 center -0.023 0.069 -0.054 ntor 6 146.6400 -179.7745 96.6830 -35.0131 57.8914 -23.0967
State:	 15.924 -10.657  -1.186   0.081 -0.018 -0.997 176.492    146.64 -179.77   96.68  -35.01   57.89  -23.10

DOCKED: MODEL       31
DOCKED: USER    Run = 31
DOCKED: USER    DPF = ligand_dock.biased.dpf
DOCKED: USER  
DOCKED: USER    Estimated Free Energy of Binding    =   -8.93 kcal/mol  [=(1)+(2)+(3)-(4)]
DOCKED: USER    Estimated Inhibition Constant, Ki   =  285.88 nM (nanomolar)  [Temperature = 298.15 K]
DOCKED: USER    
DOCKED: USER    (1) Final Intermolecular Energy     =  -10.72 kcal/mol
DOCKED: USER        vdW + Hbond + desolv Energy     =  -10.72 kcal/mol
DOCKED: USER        Electrostatic Energy            =   +0.00 kcal/mol
DOCKED: USER    (2) Final Total Internal Energy     =   -2.26 kcal/mol
DOCKED: USER    (3) Torsional Free Energy           =   +1.79 kcal/mol
DOCKED: USER    (4) Unbound System's Energy  [=(2)] =   -2.26 kcal/mol
DOCKED: USER    
DOCKED: USER    
DOCKED: USER    NEWDPF move ligand.pdbqt
DOCKED: USER    NEWDPF about -0.023000 0.069000 -0.054000
DOCKED: USER    NEWDPF tran0 15.924262 -10.657424 -1.185898
DOCKED: USER    NEWDPF quaternion0 0.081115 -0.017733 -0.996077 0.030608
DOCKED: USER    NEWDPF axisangle0 0.081153 -0.017741 -0.996544 176.492030
DOCKED: USER    NEWDPF quat0 0.081153 -0.017741 -0.996544 176.492030
DOCKED: USER    NEWDPF dihe0 146.64 -179.77 96.68 -35.01 57.89 -23.10 
DOCKED: USER  keepresnum = 1 
DOCKED: USER  
DOCKED: REMARK  Name = 
DOCKED: REMARK  6 active torsions:
DOCKED: REMARK  status: ('A' for Active; 'I' for Inactive)
DOCKED: REMARK    1  A    between atoms: C_2  and  C_5
DOCKED: REMARK    2  A    between atoms: C_5  and  C_6
DOCKED: REMARK    3  A    between atoms: C_6  and  C_7
DOCKED: REMARK    4  A    between atoms: C_7  and  C_8
DOCKED: REMARK    5  A    between atoms: C_8  and  C_9
DOCKED: REMARK    6  A    between atoms: C_9  and  N_10
DOCKED: REMARK                            x       y       z     vdW  Elec       q    Type
DOCKED: REMARK                         _______ _______ _______ _____ _____    ______ ____
DOCKED: USER                              x       y       z     vdW  Elec       q    Type
DOCKED: USER                           _______ _______ _______ _____ _____    ______ ____
DOCKED: ROOT
DOCKED: ATOM      1  N   UNL     1      16.475 -11.393  -1.148 -0.28 -0.00    +0.000 N 
DOCKED: ATOM      2  C   UNL     1      17.407 -10.659  -1.964 -0.22 -0.00    +0.000 C 
DOCKED: ATOM      3  C   UNL     1      18.816 -10.514  -1.530 -0.32 -0.00    +0.000 A 
DOCKED: ATOM      4  C   UNL     1      19.743  -9.826  -2.332 -0.31 -0.00    +0.000 A 
DOCKED: ATOM      5  C   UNL     1      21.071  -9.689  -1.924 -0.53 -0.00    +0.000 A 
DOCKED: ATOM      6  C   UNL     1      21.495 -10.234  -0.712 -0.60 -0.00    +0.000 A 
DOCKED: ATOM      7  C   UNL     1      20.589 -10.924   0.106 -0.59 -0.00    +0.000 A 
DOCKED: ATOM      8  C   UNL     1      21.014 -11.469   1.325 -0.51 -0.00    +0.000 A 
DOCKED: ATOM      9  C   UNL     1      20.113 -12.153   2.142 -0.64 -0.00    +0.000 A 
DOCKED: ATOM     10  C   UNL     1      18.781 -12.301   1.750 -0.43 -0.00    +0.000 A 
DOCKED: ATOM     11  C   UNL     1      18.330 -11.764   0.531 -0.48 -0.00    +0.000 A 
DOCKED: ATOM     12  C   UNL     1      19.237 -11.069  -0.300 -0.47 -0.00    +0.000 A 
DOCKED: ATOM     13  O   UNL     1      17.025 -10.136  -3.047 -0.29 -0.00    +0.000 OA
DOCKED: ATOM     14  C   UNL     1      16.917 -11.920   0.117 -0.48 +0.00    +0.000 C 
DOCKED: ATOM     15  O   UNL     1      16.101 -12.514   0.876 -0.99 +0.00    +0.000 OA
DOCKED: ENDROOT
DOCKED: BRANCH   1  16
DOCKED: ATOM     16  C   UNL     1      15.066 -11.512  -1.551 -0.35 +0.00    +0.000 C 
DOCKED: BRANCH  16  17
DOCKED: ATOM     17  C   UNL     1      14.174 -10.706  -0.601 -0.31 +0.00    +0.000 C 
DOCKED: BRANCH  17  18
DOCKED: ATOM     18  C   UNL     1      13.117 -11.601   0.055 -0.40 +0.00    +0.000 C 
DOCKED: BRANCH  18  19
DOCKED: ATOM     19  C   UNL     1      12.831 -11.147   1.495 -0.39 +0.00    +0.000 C 
DOCKED: BRANCH  19  20
DOCKED: ATOM     20  C   UNL     1      13.893 -11.645   2.484 -0.42 +0.00    +0.000 C 
DOCKED: BRANCH  20  22
DOCKED: ATOM     21  O   UNL     1      14.185  -9.649   3.765 -0.38 +0.00    +0.000 OA
DOCKED: ATOM     22  C   UNL     1      14.722 -10.517   3.026 -0.43 +0.00    +0.000 C 
DOCKED: ATOM     23  N   UNL     1      16.120 -10.441   2.735 -0.40 +0.00    +0.000 N 
DOCKED: ATOM     24  O   UNL     1      16.870  -9.433   3.238 -0.50 +0.00    +0.000 OA
DOCKED: ATOM     25  H   UNL     1      16.539 -11.127   2.167 -0.00 +0.00    +0.000 HD
DOCKED: ENDBRANCH  20  22
DOCKED: ENDBRANCH  19  20
DOCKED: ENDBRANCH  18  19
DOCKED: ENDBRANCH  17  18
DOCKED: ENDBRANCH  16  17
DOCKED: ENDBRANCH   1  16
DOCKED: TORSDOF 6
DOCKED: TER
DOCKED: ENDMDL
________________________________________________________________________________


	BEGINNING GENETIC ALGORITHM DOCKING 32 of 100
Run: 32 Seed: 694723577 1289756246 [ Run 32 of 100 GA/GALS ]
Beginning LAMARCKIAN GENETIC ALGORITHM (LGA), with a maximum of 2500000 energy evaluations.

Final-Value: -13.055


	FINAL GENETIC ALGORITHM DOCKED STATE
	_______________________________________________


Detailed state:  trans 15.627 -10.874 -0.918 quatxyzw 0.018598 -0.063601 -0.997782 0.006350 center -0.023 0.069 -0.054 ntor 6 -180.0000 -170.3976 42.1440 -47.4764 86.3241 -0.2443
State:	 15.627 -10.874  -0.918   0.019 -0.064 -0.998 179.272   -180.00 -170.40   42.14  -47.48   86.32   -0.24

DOCKED: MODEL       32
DOCKED: USER    Run = 32
DOCKED: USER    DPF = ligand_dock.biased.dpf
DOCKED: USER  
DOCKED: USER    Estimated Free Energy of Binding    =   -8.82 kcal/mol  [=(1)+(2)+(3)-(4)]
DOCKED: USER    Estimated Inhibition Constant, Ki   =  344.37 nM (nanomolar)  [Temperature = 298.15 K]
DOCKED: USER    
DOCKED: USER    (1) Final Intermolecular Energy     =  -10.61 kcal/mol
DOCKED: USER        vdW + Hbond + desolv Energy     =  -10.61 kcal/mol
DOCKED: USER        Electrostatic Energy            =   +0.00 kcal/mol
DOCKED: USER    (2) Final Total Internal Energy     =   -2.45 kcal/mol
DOCKED: USER    (3) Torsional Free Energy           =   +1.79 kcal/mol
DOCKED: USER    (4) Unbound System's Energy  [=(2)] =   -2.45 kcal/mol
DOCKED: USER    
DOCKED: USER    
DOCKED: USER    NEWDPF move ligand.pdbqt
DOCKED: USER    NEWDPF about -0.023000 0.069000 -0.054000
DOCKED: USER    NEWDPF tran0 15.626514 -10.874105 -0.918303
DOCKED: USER    NEWDPF quaternion0 0.018598 -0.063601 -0.997782 0.006350
DOCKED: USER    NEWDPF axisangle0 0.018599 -0.063602 -0.997802 179.272291
DOCKED: USER    NEWDPF quat0 0.018599 -0.063602 -0.997802 179.272291
DOCKED: USER    NEWDPF dihe0 -180.00 -170.40 42.14 -47.48 86.32 -0.24 
DOCKED: USER  keepresnum = 1 
DOCKED: USER  
DOCKED: REMARK  Name = 
DOCKED: REMARK  6 active torsions:
DOCKED: REMARK  status: ('A' for Active; 'I' for Inactive)
DOCKED: REMARK    1  A    between atoms: C_2  and  C_5
DOCKED: REMARK    2  A    between atoms: C_5  and  C_6
DOCKED: REMARK    3  A    between atoms: C_6  and  C_7
DOCKED: REMARK    4  A    between atoms: C_7  and  C_8
DOCKED: REMARK    5  A    between atoms: C_8  and  C_9
DOCKED: REMARK    6  A    between atoms: C_9  and  N_10
DOCKED: REMARK                            x       y       z     vdW  Elec       q    Type
DOCKED: REMARK                         _______ _______ _______ _____ _____    ______ ____
DOCKED: USER                              x       y       z     vdW  Elec       q    Type
DOCKED: USER                           _______ _______ _______ _____ _____    ______ ____
DOCKED: ROOT
DOCKED: ATOM      1  N   UNL     1      16.209 -11.585  -0.888 -0.32 +0.00    +0.000 N 
DOCKED: ATOM      2  C   UNL     1      16.998 -10.900  -1.879 -0.13 -0.00    +0.000 C 
DOCKED: ATOM      3  C   UNL     1      18.442 -10.669  -1.647 -0.30 -0.00    +0.000 A 
DOCKED: ATOM      4  C   UNL     1      19.230 -10.029  -2.620 -0.28 -0.00    +0.000 A 
DOCKED: ATOM      5  C   UNL     1      20.591  -9.811  -2.401 -0.47 -0.00    +0.000 A 
DOCKED: ATOM      6  C   UNL     1      21.188 -10.226  -1.211 -0.58 -0.00    +0.000 A 
DOCKED: ATOM      7  C   UNL     1      20.424 -10.865  -0.224 -0.56 -0.00    +0.000 A 
DOCKED: ATOM      8  C   UNL     1      21.024 -11.280   0.973 -0.54 -0.00    +0.000 A 
DOCKED: ATOM      9  C   UNL     1      20.264 -11.913   1.956 -0.69 -0.00    +0.000 A 
DOCKED: ATOM     10  C   UNL     1      18.902 -12.141   1.756 -0.51 -0.00    +0.000 A 
DOCKED: ATOM     11  C   UNL     1      18.276 -11.735   0.563 -0.48 -0.00    +0.000 A 
DOCKED: ATOM     12  C   UNL     1      19.040 -11.092  -0.437 -0.45 -0.00    +0.000 A 
DOCKED: ATOM     13  O   UNL     1      16.459 -10.493  -2.945 -0.28 -0.00    +0.000 OA
DOCKED: ATOM     14  C   UNL     1      16.831 -11.976   0.352 -0.49 +0.00    +0.000 C 
DOCKED: ATOM     15  O   UNL     1      16.144 -12.523   1.259 -0.95 +0.00    +0.000 OA
DOCKED: ENDROOT
DOCKED: BRANCH   1  16
DOCKED: ATOM     16  C   UNL     1      14.768 -11.787  -1.092 -0.41 +0.00    +0.000 C 
DOCKED: BRANCH  16  17
DOCKED: ATOM     17  C   UNL     1      13.985 -10.581  -0.563 -0.29 +0.00    +0.000 C 
DOCKED: BRANCH  17  18
DOCKED: ATOM     18  C   UNL     1      13.528 -10.810   0.882 -0.33 +0.00    +0.000 C 
DOCKED: BRANCH  18  19
DOCKED: ATOM     19  C   UNL     1      13.837  -9.586   1.757 -0.24 +0.00    +0.000 C 
DOCKED: BRANCH  19  20
DOCKED: ATOM     20  C   UNL     1      14.462  -9.976   3.103 -0.38 +0.00    +0.000 C 
DOCKED: BRANCH  20  22
DOCKED: ATOM     21  O   UNL     1      15.930  -8.314   3.996 -0.46 +0.00    +0.000 OA
DOCKED: ATOM     22  C   UNL     1      15.815  -9.352   3.290 -0.43 +0.00    +0.000 C 
DOCKED: ATOM     23  N   UNL     1      16.973  -9.946   2.700 -0.43 +0.00    +0.000 N 
DOCKED: ATOM     24  O   UNL     1      18.195  -9.393   2.883 -0.59 -0.00    +0.000 OA
DOCKED: ATOM     25  H   UNL     1      16.882 -10.763   2.159 -0.00 +0.00    +0.000 HD
DOCKED: ENDBRANCH  20  22
DOCKED: ENDBRANCH  19  20
DOCKED: ENDBRANCH  18  19
DOCKED: ENDBRANCH  17  18
DOCKED: ENDBRANCH  16  17
DOCKED: ENDBRANCH   1  16
DOCKED: TORSDOF 6
DOCKED: TER
DOCKED: ENDMDL
________________________________________________________________________________


	BEGINNING GENETIC ALGORITHM DOCKING 33 of 100
Run: 33 Seed: 1346574809 560215246 [ Run 33 of 100 GA/GALS ]
Beginning LAMARCKIAN GENETIC ALGORITHM (LGA), with a maximum of 2500000 energy evaluations.

Final-Value: -13.181


	FINAL GENETIC ALGORITHM DOCKED STATE
	_______________________________________________


Detailed state:  trans 19.707 -10.261 -4.482 quatxyzw 0.115030 0.803498 0.525526 0.254914 center -0.023 0.069 -0.054 ntor 6 4.4758 -175.6850 175.9781 -53.3317 -139.4348 160.0790
State:	 19.707 -10.261  -4.482   0.119  0.831  0.543 150.463      4.48 -175.69  175.98  -53.33 -139.43  160.08

DOCKED: MODEL       33
DOCKED: USER    Run = 33
DOCKED: USER    DPF = ligand_dock.biased.dpf
DOCKED: USER  
DOCKED: USER    Estimated Free Energy of Binding    =  -10.42 kcal/mol  [=(1)+(2)+(3)-(4)]
DOCKED: USER    Estimated Inhibition Constant, Ki   =   23.07 nM (nanomolar)  [Temperature = 298.15 K]
DOCKED: USER    
DOCKED: USER    (1) Final Intermolecular Energy     =  -12.21 kcal/mol
DOCKED: USER        vdW + Hbond + desolv Energy     =  -12.21 kcal/mol
DOCKED: USER        Electrostatic Energy            =   +0.00 kcal/mol
DOCKED: USER    (2) Final Total Internal Energy     =   -0.97 kcal/mol
DOCKED: USER    (3) Torsional Free Energy           =   +1.79 kcal/mol
DOCKED: USER    (4) Unbound System's Energy  [=(2)] =   -0.97 kcal/mol
DOCKED: USER    
DOCKED: USER    
DOCKED: USER    NEWDPF move ligand.pdbqt
DOCKED: USER    NEWDPF about -0.023000 0.069000 -0.054000
DOCKED: USER    NEWDPF tran0 19.706868 -10.260516 -4.481628
DOCKED: USER    NEWDPF quaternion0 0.115030 0.803498 0.525526 0.254914
DOCKED: USER    NEWDPF axisangle0 0.118960 0.830950 0.543480 150.463007
DOCKED: USER    NEWDPF quat0 0.118960 0.830950 0.543480 150.463007
DOCKED: USER    NEWDPF dihe0 4.48 -175.69 175.98 -53.33 -139.43 160.08 
DOCKED: USER  keepresnum = 1 
DOCKED: USER  
DOCKED: REMARK  Name = 
DOCKED: REMARK  6 active torsions:
DOCKED: REMARK  status: ('A' for Active; 'I' for Inactive)
DOCKED: REMARK    1  A    between atoms: C_2  and  C_5
DOCKED: REMARK    2  A    between atoms: C_5  and  C_6
DOCKED: REMARK    3  A    between atoms: C_6  and  C_7
DOCKED: REMARK    4  A    between atoms: C_7  and  C_8
DOCKED: REMARK    5  A    between atoms: C_8  and  C_9
DOCKED: REMARK    6  A    between atoms: C_9  and  N_10
DOCKED: REMARK                            x       y       z     vdW  Elec       q    Type
DOCKED: REMARK                         _______ _______ _______ _____ _____    ______ ____
DOCKED: USER                              x       y       z     vdW  Elec       q    Type
DOCKED: USER                           _______ _______ _______ _____ _____    ______ ____
DOCKED: ROOT
DOCKED: ATOM      1  N   UNL     1      20.546  -9.990  -4.219 -0.35 -0.00    +0.000 N 
DOCKED: ATOM      2  C   UNL     1      21.069 -11.107  -4.962 -0.53 -0.00    +0.000 C 
DOCKED: ATOM      3  C   UNL     1      22.133 -10.892  -5.971 -0.41 -0.00    +0.000 A 
DOCKED: ATOM      4  C   UNL     1      22.674 -11.979  -6.680 -0.34 -0.00    +0.000 A 
DOCKED: ATOM      5  C   UNL     1      23.676 -11.777  -7.631 -0.45 -0.00    +0.000 A 
DOCKED: ATOM      6  C   UNL     1      24.152 -10.492  -7.890 -0.30 -0.00    +0.000 A 
DOCKED: ATOM      7  C   UNL     1      23.627  -9.392  -7.197 -0.23 -0.00    +0.000 A 
DOCKED: ATOM      8  C   UNL     1      24.105  -8.100  -7.459 -0.17 -0.00    +0.000 A 
DOCKED: ATOM      9  C   UNL     1      23.581  -7.005  -6.772 -0.13 -0.00    +0.000 A 
DOCKED: ATOM     10  C   UNL     1      22.579  -7.187  -5.817 -0.14 -0.00    +0.000 A 
DOCKED: ATOM     11  C   UNL     1      22.084  -8.472  -5.535 -0.21 -0.00    +0.000 A 
DOCKED: ATOM     12  C   UNL     1      22.610  -9.587  -6.228 -0.24 -0.00    +0.000 A 
DOCKED: ATOM     13  O   UNL     1      20.622 -12.269  -4.756 -0.62 -0.00    +0.000 OA
DOCKED: ATOM     14  C   UNL     1      21.022  -8.664  -4.522 -0.32 -0.00    +0.000 C 
DOCKED: ATOM     15  O   UNL     1      20.532  -7.665  -3.927 -0.29 -0.00    +0.000 OA
DOCKED: ENDROOT
DOCKED: BRANCH   1  16
DOCKED: ATOM     16  C   UNL     1      19.466 -10.186  -3.242 -0.40 -0.00    +0.000 C 
DOCKED: BRANCH  16  17
DOCKED: ATOM     17  C   UNL     1      20.002 -10.897  -1.996 -0.42 -0.00    +0.000 C 
DOCKED: BRANCH  17  18
DOCKED: ATOM     18  C   UNL     1      21.385 -10.362  -1.607 -0.62 -0.00    +0.000 C 
DOCKED: BRANCH  18  19
DOCKED: ATOM     19  C   UNL     1      21.410  -9.922  -0.136 -0.70 -0.00    +0.000 C 
DOCKED: BRANCH  19  20
DOCKED: ATOM     20  C   UNL     1      20.051 -10.111   0.552 -0.56 -0.00    +0.000 C 
DOCKED: BRANCH  20  22
DOCKED: ATOM     21  O   UNL     1      20.171 -12.352   1.376 -1.63 -0.00    +0.000 OA
DOCKED: ATOM     22  C   UNL     1      20.122 -11.124   1.658 -0.73 -0.00    +0.000 C 
DOCKED: ATOM     23  N   UNL     1      20.168 -10.703   3.023 -0.69 -0.00    +0.000 N 
DOCKED: ATOM     24  O   UNL     1      20.249 -11.616   4.019 -1.19 -0.00    +0.000 OA
DOCKED: ATOM     25  H   UNL     1      20.141  -9.743   3.240 -0.54 -0.00    +0.000 HD
DOCKED: ENDBRANCH  20  22
DOCKED: ENDBRANCH  19  20
DOCKED: ENDBRANCH  18  19
DOCKED: ENDBRANCH  17  18
DOCKED: ENDBRANCH  16  17
DOCKED: ENDBRANCH   1  16
DOCKED: TORSDOF 6
DOCKED: TER
DOCKED: ENDMDL
________________________________________________________________________________


	BEGINNING GENETIC ALGORITHM DOCKING 34 of 100
Run: 34 Seed: 1359037859 282390832 [ Run 34 of 100 GA/GALS ]
Beginning LAMARCKIAN GENETIC ALGORITHM (LGA), with a maximum of 2500000 energy evaluations.

Final-Value: -12.329


	FINAL GENETIC ALGORITHM DOCKED STATE
	_______________________________________________


Detailed state:  trans 15.265 -12.399 1.148 quatxyzw 0.383689 -0.557224 -0.089413 -0.730951 center -0.023 0.069 -0.054 ntor 6 -115.9761 -147.9651 169.2836 102.0165 140.4366 -165.1705
State:	 15.265 -12.399   1.148   0.562 -0.817 -0.131 -86.068   -115.98 -147.97  169.28  102.02  140.44 -165.17

DOCKED: MODEL       34
DOCKED: USER    Run = 34
DOCKED: USER    DPF = ligand_dock.biased.dpf
DOCKED: USER  
DOCKED: USER    Estimated Free Energy of Binding    =   -8.52 kcal/mol  [=(1)+(2)+(3)-(4)]
DOCKED: USER    Estimated Inhibition Constant, Ki   =  566.60 nM (nanomolar)  [Temperature = 298.15 K]
DOCKED: USER    
DOCKED: USER    (1) Final Intermolecular Energy     =  -10.31 kcal/mol
DOCKED: USER        vdW + Hbond + desolv Energy     =  -10.31 kcal/mol
DOCKED: USER        Electrostatic Energy            =   +0.00 kcal/mol
DOCKED: USER    (2) Final Total Internal Energy     =   -2.02 kcal/mol
DOCKED: USER    (3) Torsional Free Energy           =   +1.79 kcal/mol
DOCKED: USER    (4) Unbound System's Energy  [=(2)] =   -2.02 kcal/mol
DOCKED: USER    
DOCKED: USER    
DOCKED: USER    NEWDPF move ligand.pdbqt
DOCKED: USER    NEWDPF about -0.023000 0.069000 -0.054000
DOCKED: USER    NEWDPF tran0 15.264761 -12.398990 1.148237
DOCKED: USER    NEWDPF quaternion0 0.383689 -0.557224 -0.089413 -0.730951
DOCKED: USER    NEWDPF axisangle0 0.562240 -0.816529 -0.131022 -86.067599
DOCKED: USER    NEWDPF quat0 0.562240 -0.816529 -0.131022 -86.067599
DOCKED: USER    NEWDPF dihe0 -115.98 -147.97 169.28 102.02 140.44 -165.17 
DOCKED: USER  keepresnum = 1 
DOCKED: USER  
DOCKED: REMARK  Name = 
DOCKED: REMARK  6 active torsions:
DOCKED: REMARK  status: ('A' for Active; 'I' for Inactive)
DOCKED: REMARK    1  A    between atoms: C_2  and  C_5
DOCKED: REMARK    2  A    between atoms: C_5  and  C_6
DOCKED: REMARK    3  A    between atoms: C_6  and  C_7
DOCKED: REMARK    4  A    between atoms: C_7  and  C_8
DOCKED: REMARK    5  A    between atoms: C_8  and  C_9
DOCKED: REMARK    6  A    between atoms: C_9  and  N_10
DOCKED: REMARK                            x       y       z     vdW  Elec       q    Type
DOCKED: REMARK                         _______ _______ _______ _____ _____    ______ ____
DOCKED: USER                              x       y       z     vdW  Elec       q    Type
DOCKED: USER                           _______ _______ _______ _____ _____    ______ ____
DOCKED: ROOT
DOCKED: ATOM      1  N   UNL     1      14.914 -11.549   1.163 -0.38 +0.00    +0.000 N 
DOCKED: ATOM      2  C   UNL     1      15.703 -11.271  -0.009 -0.37 +0.00    +0.000 C 
DOCKED: ATOM      3  C   UNL     1      15.059 -10.710  -1.219 -0.27 -0.00    +0.000 A 
DOCKED: ATOM      4  C   UNL     1      15.824 -10.405  -2.359 -0.25 -0.00    +0.000 A 
DOCKED: ATOM      5  C   UNL     1      15.218  -9.877  -3.500 -0.21 -0.00    +0.000 A 
DOCKED: ATOM      6  C   UNL     1      13.843  -9.644  -3.523 -0.18 -0.00    +0.000 A 
DOCKED: ATOM      7  C   UNL     1      13.058  -9.941  -2.399 -0.21 -0.00    +0.000 A 
DOCKED: ATOM      8  C   UNL     1      11.676  -9.709  -2.423 -0.15 -0.00    +0.000 A 
DOCKED: ATOM      9  C   UNL     1      10.894 -10.007  -1.307 -0.15 -0.00    +0.000 A 
DOCKED: ATOM     10  C   UNL     1      11.482 -10.536  -0.157 -0.25 +0.00    +0.000 A 
DOCKED: ATOM     11  C   UNL     1      12.867 -10.776  -0.107 -0.28 +0.00    +0.000 A 
DOCKED: ATOM     12  C   UNL     1      13.665 -10.477  -1.234 -0.26 -0.00    +0.000 A 
DOCKED: ATOM     13  O   UNL     1      16.943 -11.507  -0.008 -0.41 +0.00    +0.000 OA
DOCKED: ATOM     14  C   UNL     1      13.490 -11.337   1.113 -0.41 +0.00    +0.000 C 
DOCKED: ATOM     15  O   UNL     1      12.771 -11.632   2.108 -0.46 +0.00    +0.000 OA
DOCKED: ENDROOT
DOCKED: BRANCH   1  16
DOCKED: ATOM     16  C   UNL     1      15.536 -12.140   2.356 -0.30 +0.00    +0.000 C 
DOCKED: BRANCH  16  17
DOCKED: ATOM     17  C   UNL     1      15.654 -11.091   3.466 -0.54 +0.00    +0.000 C 
DOCKED: BRANCH  17  18
DOCKED: ATOM     18  C   UNL     1      16.054  -9.726   2.896 -0.43 +0.00    +0.000 C 
DOCKED: BRANCH  18  19
DOCKED: ATOM     19  C   UNL     1      17.556  -9.683   2.576 -0.41 -0.00    +0.000 C 
DOCKED: BRANCH  19  20
DOCKED: ATOM     20  C   UNL     1      18.293 -10.933   3.076 -0.51 -0.00    +0.000 C 
DOCKED: BRANCH  20  22
DOCKED: ATOM     21  O   UNL     1      20.270 -12.156   2.521 -1.97 -0.00    +0.000 OA
DOCKED: ATOM     22  C   UNL     1      19.379 -11.355   2.129 -0.69 -0.00    +0.000 C 
DOCKED: ATOM     23  N   UNL     1      19.389 -10.879   0.782 -0.52 -0.00    +0.000 N 
DOCKED: ATOM     24  O   UNL     1      20.359 -11.273  -0.076 -0.68 -0.00    +0.000 OA
DOCKED: ATOM     25  H   UNL     1      18.686 -10.262   0.475 -0.01 -0.00    +0.000 HD
DOCKED: ENDBRANCH  20  22
DOCKED: ENDBRANCH  19  20
DOCKED: ENDBRANCH  18  19
DOCKED: ENDBRANCH  17  18
DOCKED: ENDBRANCH  16  17
DOCKED: ENDBRANCH   1  16
DOCKED: TORSDOF 6
DOCKED: TER
DOCKED: ENDMDL
________________________________________________________________________________


	BEGINNING GENETIC ALGORITHM DOCKING 35 of 100
Run: 35 Seed: 526731717 1290187751 [ Run 35 of 100 GA/GALS ]
Beginning LAMARCKIAN GENETIC ALGORITHM (LGA), with a maximum of 2500000 energy evaluations.

Final-Value: -12.789


	FINAL GENETIC ALGORITHM DOCKED STATE
	_______________________________________________


Detailed state:  trans 16.147 -12.139 -1.381 quatxyzw 0.111405 -0.969263 0.034835 0.216573 center -0.023 0.069 -0.054 ntor 6 179.5066 159.8152 -100.1787 37.1041 162.9614 174.7893
State:	 16.147 -12.139  -1.381   0.114 -0.993  0.036 154.984    179.51  159.82 -100.18   37.10  162.96  174.79

DOCKED: MODEL       35
DOCKED: USER    Run = 35
DOCKED: USER    DPF = ligand_dock.biased.dpf
DOCKED: USER  
DOCKED: USER    Estimated Free Energy of Binding    =   -8.82 kcal/mol  [=(1)+(2)+(3)-(4)]
DOCKED: USER    Estimated Inhibition Constant, Ki   =  343.44 nM (nanomolar)  [Temperature = 298.15 K]
DOCKED: USER    
DOCKED: USER    (1) Final Intermolecular Energy     =  -10.61 kcal/mol
DOCKED: USER        vdW + Hbond + desolv Energy     =  -10.61 kcal/mol
DOCKED: USER        Electrostatic Energy            =   +0.00 kcal/mol
DOCKED: USER    (2) Final Total Internal Energy     =   -2.18 kcal/mol
DOCKED: USER    (3) Torsional Free Energy           =   +1.79 kcal/mol
DOCKED: USER    (4) Unbound System's Energy  [=(2)] =   -2.18 kcal/mol
DOCKED: USER    
DOCKED: USER    
DOCKED: USER    NEWDPF move ligand.pdbqt
DOCKED: USER    NEWDPF about -0.023000 0.069000 -0.054000
DOCKED: USER    NEWDPF tran0 16.147288 -12.139352 -1.381207
DOCKED: USER    NEWDPF quaternion0 0.111405 -0.969263 0.034835 0.216573
DOCKED: USER    NEWDPF axisangle0 0.114113 -0.992827 0.035682 154.984332
DOCKED: USER    NEWDPF quat0 0.114113 -0.992827 0.035682 154.984332
DOCKED: USER    NEWDPF dihe0 179.51 159.82 -100.18 37.10 162.96 174.79 
DOCKED: USER  keepresnum = 1 
DOCKED: USER  
DOCKED: REMARK  Name = 
DOCKED: REMARK  6 active torsions:
DOCKED: REMARK  status: ('A' for Active; 'I' for Inactive)
DOCKED: REMARK    1  A    between atoms: C_2  and  C_5
DOCKED: REMARK    2  A    between atoms: C_5  and  C_6
DOCKED: REMARK    3  A    between atoms: C_6  and  C_7
DOCKED: REMARK    4  A    between atoms: C_7  and  C_8
DOCKED: REMARK    5  A    between atoms: C_8  and  C_9
DOCKED: REMARK    6  A    between atoms: C_9  and  N_10
DOCKED: REMARK                            x       y       z     vdW  Elec       q    Type
DOCKED: REMARK                         _______ _______ _______ _____ _____    ______ ____
DOCKED: USER                              x       y       z     vdW  Elec       q    Type
DOCKED: USER                           _______ _______ _______ _____ _____    ______ ____
DOCKED: ROOT
DOCKED: ATOM      1  N   UNL     1      16.493 -11.320  -1.146 -0.29 -0.00    +0.000 N 
DOCKED: ATOM      2  C   UNL     1      16.917 -11.926   0.090 -0.48 +0.00    +0.000 C 
DOCKED: ATOM      3  C   UNL     1      18.328 -11.810   0.526 -0.49 -0.00    +0.000 A 
DOCKED: ATOM      4  C   UNL     1      18.747 -12.369   1.746 -0.40 -0.00    +0.000 A 
DOCKED: ATOM      5  C   UNL     1      20.077 -12.261   2.157 -0.61 -0.00    +0.000 A 
DOCKED: ATOM      6  C   UNL     1      21.007 -11.595   1.360 -0.53 -0.00    +0.000 A 
DOCKED: ATOM      7  C   UNL     1      20.614 -11.029   0.139 -0.56 -0.00    +0.000 A 
DOCKED: ATOM      8  C   UNL     1      21.551 -10.361  -0.663 -0.59 -0.00    +0.000 A 
DOCKED: ATOM      9  C   UNL     1      21.161  -9.801  -1.879 -0.53 -0.00    +0.000 A 
DOCKED: ATOM     10  C   UNL     1      19.836  -9.899  -2.307 -0.36 -0.00    +0.000 A 
DOCKED: ATOM     11  C   UNL     1      18.877 -10.562  -1.521 -0.34 -0.00    +0.000 A 
DOCKED: ATOM     12  C   UNL     1      19.265 -11.133  -0.287 -0.47 -0.00    +0.000 A 
DOCKED: ATOM     13  O   UNL     1      16.088 -12.557   0.803 -1.00 +0.00    +0.000 OA
DOCKED: ATOM     14  C   UNL     1      17.472 -10.666  -1.975 -0.22 -0.00    +0.000 C 
DOCKED: ATOM     15  O   UNL     1      17.134 -10.183  -3.092 -0.29 -0.00    +0.000 OA
DOCKED: ENDROOT
DOCKED: BRANCH   1  16
DOCKED: ATOM     16  C   UNL     1      15.104 -11.460  -1.605 -0.34 +0.00    +0.000 C 
DOCKED: BRANCH  16  17
DOCKED: ATOM     17  C   UNL     1      14.234 -10.350  -1.007 -0.28 +0.00    +0.000 C 
DOCKED: BRANCH  17  18
DOCKED: ATOM     18  C   UNL     1      14.926  -9.692   0.192 -0.28 +0.00    +0.000 C 
DOCKED: BRANCH  18  19
DOCKED: ATOM     19  C   UNL     1      13.909  -9.339   1.288 -0.22 +0.00    +0.000 C 
DOCKED: BRANCH  19  20
DOCKED: ATOM     20  C   UNL     1      13.587 -10.538   2.191 -0.34 +0.00    +0.000 C 
DOCKED: BRANCH  20  22
DOCKED: ATOM     21  O   UNL     1      14.091 -10.155   4.496 -0.45 +0.00    +0.000 OA
DOCKED: ATOM     22  C   UNL     1      14.495 -10.595   3.386 -0.43 +0.00    +0.000 C 
DOCKED: ATOM     23  N   UNL     1      15.798 -11.173   3.278 -0.50 +0.00    +0.000 N 
DOCKED: ATOM     24  O   UNL     1      16.609 -11.240   4.359 -0.61 +0.00    +0.000 OA
DOCKED: ATOM     25  H   UNL     1      16.106 -11.526   2.412 -0.01 +0.00    +0.000 HD
DOCKED: ENDBRANCH  20  22
DOCKED: ENDBRANCH  19  20
DOCKED: ENDBRANCH  18  19
DOCKED: ENDBRANCH  17  18
DOCKED: ENDBRANCH  16  17
DOCKED: ENDBRANCH   1  16
DOCKED: TORSDOF 6
DOCKED: TER
DOCKED: ENDMDL
________________________________________________________________________________


	BEGINNING GENETIC ALGORITHM DOCKING 36 of 100
Run: 36 Seed: 2027011724 492814380 [ Run 36 of 100 GA/GALS ]
Beginning LAMARCKIAN GENETIC ALGORITHM (LGA), with a maximum of 2500000 energy evaluations.

Final-Value: -13.101


	FINAL GENETIC ALGORITHM DOCKED STATE
	_______________________________________________


Detailed state:  trans 18.804 -11.143 1.425 quatxyzw -0.976681 0.123460 0.112005 0.135302 center -0.023 0.069 -0.054 ntor 6 178.3686 153.5244 -173.0769 16.4441 -104.5388 -8.5161
State:	 18.804 -11.143   1.425  -0.986  0.125  0.113 164.448    178.37  153.52 -173.08   16.44 -104.54   -8.52

DOCKED: MODEL       36
DOCKED: USER    Run = 36
DOCKED: USER    DPF = ligand_dock.biased.dpf
DOCKED: USER  
DOCKED: USER    Estimated Free Energy of Binding    =   -8.90 kcal/mol  [=(1)+(2)+(3)-(4)]
DOCKED: USER    Estimated Inhibition Constant, Ki   =  299.73 nM (nanomolar)  [Temperature = 298.15 K]
DOCKED: USER    
DOCKED: USER    (1) Final Intermolecular Energy     =  -10.69 kcal/mol
DOCKED: USER        vdW + Hbond + desolv Energy     =  -10.69 kcal/mol
DOCKED: USER        Electrostatic Energy            =   +0.00 kcal/mol
DOCKED: USER    (2) Final Total Internal Energy     =   -2.41 kcal/mol
DOCKED: USER    (3) Torsional Free Energy           =   +1.79 kcal/mol
DOCKED: USER    (4) Unbound System's Energy  [=(2)] =   -2.41 kcal/mol
DOCKED: USER    
DOCKED: USER    
DOCKED: USER    NEWDPF move ligand.pdbqt
DOCKED: USER    NEWDPF about -0.023000 0.069000 -0.054000
DOCKED: USER    NEWDPF tran0 18.803648 -11.142540 1.424595
DOCKED: USER    NEWDPF quaternion0 -0.976681 0.123460 0.112005 0.135302
DOCKED: USER    NEWDPF axisangle0 -0.985746 0.124606 0.113045 164.447846
DOCKED: USER    NEWDPF quat0 -0.985746 0.124606 0.113045 164.447846
DOCKED: USER    NEWDPF dihe0 178.37 153.52 -173.08 16.44 -104.54 -8.52 
DOCKED: USER  keepresnum = 1 
DOCKED: USER  
DOCKED: REMARK  Name = 
DOCKED: REMARK  6 active torsions:
DOCKED: REMARK  status: ('A' for Active; 'I' for Inactive)
DOCKED: REMARK    1  A    between atoms: C_2  and  C_5
DOCKED: REMARK    2  A    between atoms: C_5  and  C_6
DOCKED: REMARK    3  A    between atoms: C_6  and  C_7
DOCKED: REMARK    4  A    between atoms: C_7  and  C_8
DOCKED: REMARK    5  A    between atoms: C_8  and  C_9
DOCKED: REMARK    6  A    between atoms: C_9  and  N_10
DOCKED: REMARK                            x       y       z     vdW  Elec       q    Type
DOCKED: REMARK                         _______ _______ _______ _____ _____    ______ ____
DOCKED: USER                              x       y       z     vdW  Elec       q    Type
DOCKED: USER                           _______ _______ _______ _____ _____    ______ ____
DOCKED: ROOT
DOCKED: ATOM      1  N   UNL     1      18.118 -11.616   1.815 -0.47 +0.00    +0.000 N 
DOCKED: ATOM      2  C   UNL     1      17.822 -10.433   2.581 -0.53 +0.00    +0.000 C 
DOCKED: ATOM      3  C   UNL     1      16.447  -9.883   2.591 -0.38 +0.00    +0.000 A 
DOCKED: ATOM      4  C   UNL     1      16.138  -8.747   3.359 -0.28 +0.00    +0.000 A 
DOCKED: ATOM      5  C   UNL     1      14.842  -8.227   3.369 -0.30 +0.00    +0.000 A 
DOCKED: ATOM      6  C   UNL     1      13.837  -8.829   2.613 -0.21 +0.00    +0.000 A 
DOCKED: ATOM      7  C   UNL     1      14.120  -9.962   1.837 -0.24 +0.00    +0.000 A 
DOCKED: ATOM      8  C   UNL     1      13.110 -10.566   1.076 -0.26 +0.00    +0.000 A 
DOCKED: ATOM      9  C   UNL     1      13.392 -11.691   0.301 -0.37 +0.00    +0.000 A 
DOCKED: ATOM     10  C   UNL     1      14.681 -12.226   0.279 -0.43 +0.00    +0.000 A 
DOCKED: ATOM     11  C   UNL     1      15.712 -11.640   1.035 -0.38 +0.00    +0.000 A 
DOCKED: ATOM     12  C   UNL     1      15.434 -10.499   1.822 -0.32 +0.00    +0.000 A 
DOCKED: ATOM     13  O   UNL     1      18.733  -9.864   3.243 -0.54 -0.00    +0.000 OA
DOCKED: ATOM     14  C   UNL     1      17.079 -12.207   1.011 -0.50 +0.00    +0.000 C 
DOCKED: ATOM     15  O   UNL     1      17.333 -13.207   0.284 -1.01 +0.00    +0.000 OA
DOCKED: ENDROOT
DOCKED: BRANCH   1  16
DOCKED: ATOM     16  C   UNL     1      19.487 -12.150   1.769 -0.72 -0.00    +0.000 C 
DOCKED: BRANCH  16  17
DOCKED: ATOM     17  C   UNL     1      20.211 -11.643   0.518 -0.57 -0.00    +0.000 C 
DOCKED: BRANCH  17  18
DOCKED: ATOM     18  C   UNL     1      20.630 -10.177   0.678 -0.65 -0.00    +0.000 C 
DOCKED: BRANCH  18  19
DOCKED: ATOM     19  C   UNL     1      20.970  -9.551  -0.683 -0.65 -0.00    +0.000 C 
DOCKED: BRANCH  19  20
DOCKED: ATOM     20  C   UNL     1      20.572 -10.457  -1.856 -0.56 -0.00    +0.000 C 
DOCKED: BRANCH  20  22
DOCKED: ATOM     21  O   UNL     1      18.838  -9.521  -3.209 -0.29 -0.00    +0.000 OA
DOCKED: ATOM     22  C   UNL     1      19.132 -10.271  -2.240 -0.35 -0.00    +0.000 C 
DOCKED: ATOM     23  N   UNL     1      18.100 -10.964  -1.535 -0.34 -0.00    +0.000 N 
DOCKED: ATOM     24  O   UNL     1      16.804 -10.810  -1.892 -0.31 -0.00    +0.000 OA
DOCKED: ATOM     25  H   UNL     1      18.333 -11.559  -0.785 -0.01 -0.00    +0.000 HD
DOCKED: ENDBRANCH  20  22
DOCKED: ENDBRANCH  19  20
DOCKED: ENDBRANCH  18  19
DOCKED: ENDBRANCH  17  18
DOCKED: ENDBRANCH  16  17
DOCKED: ENDBRANCH   1  16
DOCKED: TORSDOF 6
DOCKED: TER
DOCKED: ENDMDL
________________________________________________________________________________


	BEGINNING GENETIC ALGORITHM DOCKING 37 of 100
Run: 37 Seed: 1700648119 863466104 [ Run 37 of 100 GA/GALS ]
Beginning LAMARCKIAN GENETIC ALGORITHM (LGA), with a maximum of 2500000 energy evaluations.

Final-Value: -12.794


	FINAL GENETIC ALGORITHM DOCKED STATE
	_______________________________________________


Detailed state:  trans 16.269 -10.639 2.171 quatxyzw 0.767644 -0.441601 -0.027622 0.463626 center -0.023 0.069 -0.054 ntor 6 -179.8738 42.0833 -90.2075 -73.9205 36.4592 17.4553
State:	 16.269 -10.639   2.171   0.866 -0.498 -0.031 124.757   -179.87   42.08  -90.21  -73.92   36.46   17.46

DOCKED: MODEL       37
DOCKED: USER    Run = 37
DOCKED: USER    DPF = ligand_dock.biased.dpf
DOCKED: USER  
DOCKED: USER    Estimated Free Energy of Binding    =   -9.96 kcal/mol  [=(1)+(2)+(3)-(4)]
DOCKED: USER    Estimated Inhibition Constant, Ki   =   49.66 nM (nanomolar)  [Temperature = 298.15 K]
DOCKED: USER    
DOCKED: USER    (1) Final Intermolecular Energy     =  -11.75 kcal/mol
DOCKED: USER        vdW + Hbond + desolv Energy     =  -11.75 kcal/mol
DOCKED: USER        Electrostatic Energy            =   +0.00 kcal/mol
DOCKED: USER    (2) Final Total Internal Energy     =   -1.04 kcal/mol
DOCKED: USER    (3) Torsional Free Energy           =   +1.79 kcal/mol
DOCKED: USER    (4) Unbound System's Energy  [=(2)] =   -1.04 kcal/mol
DOCKED: USER    
DOCKED: USER    
DOCKED: USER    NEWDPF move ligand.pdbqt
DOCKED: USER    NEWDPF about -0.023000 0.069000 -0.054000
DOCKED: USER    NEWDPF tran0 16.269365 -10.638988 2.171491
DOCKED: USER    NEWDPF quaternion0 0.767644 -0.441601 -0.027622 0.463626
DOCKED: USER    NEWDPF axisangle0 0.866384 -0.498404 -0.031175 124.757390
DOCKED: USER    NEWDPF quat0 0.866384 -0.498404 -0.031175 124.757390
DOCKED: USER    NEWDPF dihe0 -179.87 42.08 -90.21 -73.92 36.46 17.46 
DOCKED: USER  keepresnum = 1 
DOCKED: USER  
DOCKED: REMARK  Name = 
DOCKED: REMARK  6 active torsions:
DOCKED: REMARK  status: ('A' for Active; 'I' for Inactive)
DOCKED: REMARK    1  A    between atoms: C_2  and  C_5
DOCKED: REMARK    2  A    between atoms: C_5  and  C_6
DOCKED: REMARK    3  A    between atoms: C_6  and  C_7
DOCKED: REMARK    4  A    between atoms: C_7  and  C_8
DOCKED: REMARK    5  A    between atoms: C_8  and  C_9
DOCKED: REMARK    6  A    between atoms: C_9  and  N_10
DOCKED: REMARK                            x       y       z     vdW  Elec       q    Type
DOCKED: REMARK                         _______ _______ _______ _____ _____    ______ ____
DOCKED: USER                              x       y       z     vdW  Elec       q    Type
DOCKED: USER                           _______ _______ _______ _____ _____    ______ ____
DOCKED: ROOT
DOCKED: ATOM      1  N   UNL     1      15.388 -10.439   2.003 -0.31 +0.00    +0.000 N 
DOCKED: ATOM      2  C   UNL     1      15.171 -10.488   3.426 -0.48 +0.00    +0.000 C 
DOCKED: ATOM      3  C   UNL     1      14.520  -9.349   4.116 -0.36 +0.00    +0.000 A 
DOCKED: ATOM      4  C   UNL     1      14.275  -9.397   5.499 -0.41 +0.00    +0.000 A 
DOCKED: ATOM      5  C   UNL     1      13.663  -8.325   6.149 -0.41 +0.00    +0.000 A 
DOCKED: ATOM      6  C   UNL     1      13.286  -7.190   5.433 -0.34 +0.00    +0.000 A 
DOCKED: ATOM      7  C   UNL     1      13.521  -7.117   4.052 -0.21 +0.00    +0.000 A 
DOCKED: ATOM      8  C   UNL     1      13.144  -5.974   3.332 -0.13 +0.00    +0.000 A 
DOCKED: ATOM      9  C   UNL     1      13.380  -5.900   1.960 -0.14 +0.00    +0.000 A 
DOCKED: ATOM     10  C   UNL     1      13.991  -6.962   1.291 -0.20 +0.00    +0.000 A 
DOCKED: ATOM     11  C   UNL     1      14.377  -8.120   1.991 -0.23 +0.00    +0.000 A 
DOCKED: ATOM     12  C   UNL     1      14.142  -8.202   3.382 -0.25 +0.00    +0.000 A 
DOCKED: ATOM     13  O   UNL     1      15.537 -11.498   4.088 -0.62 +0.00    +0.000 OA
DOCKED: ATOM     14  C   UNL     1      15.026  -9.246   1.281 -0.29 +0.00    +0.000 C 
DOCKED: ATOM     15  O   UNL     1      15.263  -9.158   0.045 -0.30 -0.00    +0.000 OA
DOCKED: ENDROOT
DOCKED: BRANCH   1  16
DOCKED: ATOM     16  C   UNL     1      16.065 -11.547   1.315 -0.44 +0.00    +0.000 C 
DOCKED: BRANCH  16  17
DOCKED: ATOM     17  C   UNL     1      17.548 -11.579   1.696 -0.47 +0.00    +0.000 C 
DOCKED: BRANCH  17  18
DOCKED: ATOM     18  C   UNL     1      18.416 -11.993   0.503 -0.57 -0.00    +0.000 C 
DOCKED: BRANCH  18  19
DOCKED: ATOM     19  C   UNL     1      19.182 -10.788  -0.064 -0.51 -0.00    +0.000 C 
DOCKED: BRANCH  19  20
DOCKED: ATOM     20  C   UNL     1      20.582 -10.647   0.551 -0.69 -0.00    +0.000 C 
DOCKED: BRANCH  20  22
DOCKED: ATOM     21  O   UNL     1      21.142 -12.395   2.081 -1.47 -0.00    +0.000 OA
DOCKED: ATOM     22  C   UNL     1      20.650 -11.245   1.926 -0.72 -0.00    +0.000 C 
DOCKED: ATOM     23  N   UNL     1      20.190 -10.507   3.060 -0.68 -0.00    +0.000 N 
DOCKED: ATOM     24  O   UNL     1      20.267 -11.039   4.301 -1.00 -0.00    +0.000 OA
DOCKED: ATOM     25  H   UNL     1      19.816  -9.604   2.938 -0.52 -0.00    +0.000 HD
DOCKED: ENDBRANCH  20  22
DOCKED: ENDBRANCH  19  20
DOCKED: ENDBRANCH  18  19
DOCKED: ENDBRANCH  17  18
DOCKED: ENDBRANCH  16  17
DOCKED: ENDBRANCH   1  16
DOCKED: TORSDOF 6
DOCKED: TER
DOCKED: ENDMDL
________________________________________________________________________________


	BEGINNING GENETIC ALGORITHM DOCKING 38 of 100
Run: 38 Seed: 1262220911 978509066 [ Run 38 of 100 GA/GALS ]
Beginning LAMARCKIAN GENETIC ALGORITHM (LGA), with a maximum of 2500000 energy evaluations.

Final-Value: -12.480


	FINAL GENETIC ALGORITHM DOCKED STATE
	_______________________________________________


Detailed state:  trans 19.244 -9.782 -2.286 quatxyzw 0.699218 -0.046963 -0.638316 0.318500 center -0.023 0.069 -0.054 ntor 6 -91.3331 -161.8773 74.6622 -151.0787 47.9553 173.7729
State:	 19.244  -9.782  -2.286   0.738 -0.050 -0.673 142.856    -91.33 -161.88   74.66 -151.08   47.96  173.77

DOCKED: MODEL       38
DOCKED: USER    Run = 38
DOCKED: USER    DPF = ligand_dock.biased.dpf
DOCKED: USER  
DOCKED: USER    Estimated Free Energy of Binding    =   -8.62 kcal/mol  [=(1)+(2)+(3)-(4)]
DOCKED: USER    Estimated Inhibition Constant, Ki   =  484.03 nM (nanomolar)  [Temperature = 298.15 K]
DOCKED: USER    
DOCKED: USER    (1) Final Intermolecular Energy     =  -10.41 kcal/mol
DOCKED: USER        vdW + Hbond + desolv Energy     =  -10.41 kcal/mol
DOCKED: USER        Electrostatic Energy            =   +0.00 kcal/mol
DOCKED: USER    (2) Final Total Internal Energy     =   -2.07 kcal/mol
DOCKED: USER    (3) Torsional Free Energy           =   +1.79 kcal/mol
DOCKED: USER    (4) Unbound System's Energy  [=(2)] =   -2.07 kcal/mol
DOCKED: USER    
DOCKED: USER    
DOCKED: USER    NEWDPF move ligand.pdbqt
DOCKED: USER    NEWDPF about -0.023000 0.069000 -0.054000
DOCKED: USER    NEWDPF tran0 19.244466 -9.781716 -2.286483
DOCKED: USER    NEWDPF quaternion0 0.699218 -0.046963 -0.638316 0.318500
DOCKED: USER    NEWDPF axisangle0 0.737632 -0.049543 -0.673383 142.855526
DOCKED: USER    NEWDPF quat0 0.737632 -0.049543 -0.673383 142.855526
DOCKED: USER    NEWDPF dihe0 -91.33 -161.88 74.66 -151.08 47.96 173.77 
DOCKED: USER  keepresnum = 1 
DOCKED: USER  
DOCKED: REMARK  Name = 
DOCKED: REMARK  6 active torsions:
DOCKED: REMARK  status: ('A' for Active; 'I' for Inactive)
DOCKED: REMARK    1  A    between atoms: C_2  and  C_5
DOCKED: REMARK    2  A    between atoms: C_5  and  C_6
DOCKED: REMARK    3  A    between atoms: C_6  and  C_7
DOCKED: REMARK    4  A    between atoms: C_7  and  C_8
DOCKED: REMARK    5  A    between atoms: C_8  and  C_9
DOCKED: REMARK    6  A    between atoms: C_9  and  N_10
DOCKED: REMARK                            x       y       z     vdW  Elec       q    Type
DOCKED: REMARK                         _______ _______ _______ _____ _____    ______ ____
DOCKED: USER                              x       y       z     vdW  Elec       q    Type
DOCKED: USER                           _______ _______ _______ _____ _____    ______ ____
DOCKED: ROOT
DOCKED: ATOM      1  N   UNL     1      18.877 -10.579  -2.013 -0.37 -0.00    +0.000 N 
DOCKED: ATOM      2  C   UNL     1      19.926 -10.652  -1.029 -0.53 -0.00    +0.000 C 
DOCKED: ATOM      3  C   UNL     1      19.589 -10.866   0.398 -0.53 -0.00    +0.000 A 
DOCKED: ATOM      4  C   UNL     1      20.606 -10.970   1.364 -0.63 -0.00    +0.000 A 
DOCKED: ATOM      5  C   UNL     1      20.289 -11.172   2.708 -0.64 -0.00    +0.000 A 
DOCKED: ATOM      6  C   UNL     1      18.958 -11.272   3.111 -0.53 -0.00    +0.000 A 
DOCKED: ATOM      7  C   UNL     1      17.926 -11.170   2.167 -0.44 +0.00    +0.000 A 
DOCKED: ATOM      8  C   UNL     1      16.588 -11.269   2.572 -0.38 +0.00    +0.000 A 
DOCKED: ATOM      9  C   UNL     1      15.561 -11.165   1.634 -0.37 +0.00    +0.000 A 
DOCKED: ATOM     10  C   UNL     1      15.857 -10.964   0.284 -0.31 +0.00    +0.000 A 
DOCKED: ATOM     11  C   UNL     1      17.191 -10.863  -0.147 -0.32 -0.00    +0.000 A 
DOCKED: ATOM     12  C   UNL     1      18.237 -10.966   0.797 -0.42 -0.00    +0.000 A 
DOCKED: ATOM     13  O   UNL     1      21.132 -10.531  -1.380 -0.65 -0.00    +0.000 OA
DOCKED: ATOM     14  C   UNL     1      17.505 -10.649  -1.579 -0.28 -0.00    +0.000 C 
DOCKED: ATOM     15  O   UNL     1      16.569 -10.525  -2.416 -0.30 -0.00    +0.000 OA
DOCKED: ENDROOT
DOCKED: BRANCH   1  16
DOCKED: ATOM     16  C   UNL     1      19.198 -10.330  -3.425 -0.39 -0.00    +0.000 C 
DOCKED: BRANCH  16  17
DOCKED: ATOM     17  C   UNL     1      19.516 -11.650  -4.136 -0.42 -0.00    +0.000 C 
DOCKED: BRANCH  17  18
DOCKED: ATOM     18  C   UNL     1      20.804 -11.537  -4.958 -0.53 -0.00    +0.000 C 
DOCKED: BRANCH  18  19
DOCKED: ATOM     19  C   UNL     1      21.766 -10.514  -4.335 -0.48 -0.00    +0.000 C 
DOCKED: BRANCH  19  20
DOCKED: ATOM     20  C   UNL     1      21.753  -9.173  -5.082 -0.33 -0.00    +0.000 C 
DOCKED: BRANCH  20  22
DOCKED: ATOM     21  O   UNL     1      21.372  -6.861  -4.612 -0.23 -0.00    +0.000 OA
DOCKED: ATOM     22  C   UNL     1      21.564  -8.016  -4.144 -0.31 -0.00    +0.000 C 
DOCKED: ATOM     23  N   UNL     1      21.568  -8.222  -2.730 -0.42 -0.00    +0.000 N 
DOCKED: ATOM     24  O   UNL     1      21.381  -7.182  -1.886 -0.56 -0.00    +0.000 OA
DOCKED: ATOM     25  H   UNL     1      21.707  -9.127  -2.368 -0.04 -0.00    +0.000 HD
DOCKED: ENDBRANCH  20  22
DOCKED: ENDBRANCH  19  20
DOCKED: ENDBRANCH  18  19
DOCKED: ENDBRANCH  17  18
DOCKED: ENDBRANCH  16  17
DOCKED: ENDBRANCH   1  16
DOCKED: TORSDOF 6
DOCKED: TER
DOCKED: ENDMDL
________________________________________________________________________________


	BEGINNING GENETIC ALGORITHM DOCKING 39 of 100
Run: 39 Seed: 134767138 1758934718 [ Run 39 of 100 GA/GALS ]
Beginning LAMARCKIAN GENETIC ALGORITHM (LGA), with a maximum of 2500000 energy evaluations.

Final-Value: -14.493


	FINAL GENETIC ALGORITHM DOCKED STATE
	_______________________________________________


Detailed state:  trans 17.174 -11.234 0.869 quatxyzw 0.944533 -0.144331 -0.255736 -0.147057 center -0.023 0.069 -0.054 ntor 6 -180.0000 -13.2843 -64.1254 137.0482 -57.6453 -26.9672
State:	 17.174 -11.234   0.869   0.955 -0.146 -0.259 -163.087   -180.00  -13.28  -64.13  137.05  -57.65  -26.97

DOCKED: MODEL       39
DOCKED: USER    Run = 39
DOCKED: USER    DPF = ligand_dock.biased.dpf
DOCKED: USER  
DOCKED: USER    Estimated Free Energy of Binding    =  -10.71 kcal/mol  [=(1)+(2)+(3)-(4)]
DOCKED: USER    Estimated Inhibition Constant, Ki   =   14.20 nM (nanomolar)  [Temperature = 298.15 K]
DOCKED: USER    
DOCKED: USER    (1) Final Intermolecular Energy     =  -12.50 kcal/mol
DOCKED: USER        vdW + Hbond + desolv Energy     =  -12.50 kcal/mol
DOCKED: USER        Electrostatic Energy            =   +0.00 kcal/mol
DOCKED: USER    (2) Final Total Internal Energy     =   -2.00 kcal/mol
DOCKED: USER    (3) Torsional Free Energy           =   +1.79 kcal/mol
DOCKED: USER    (4) Unbound System's Energy  [=(2)] =   -2.00 kcal/mol
DOCKED: USER    
DOCKED: USER    
DOCKED: USER    NEWDPF move ligand.pdbqt
DOCKED: USER    NEWDPF about -0.023000 0.069000 -0.054000
DOCKED: USER    NEWDPF tran0 17.173703 -11.234063 0.869309
DOCKED: USER    NEWDPF quaternion0 0.944533 -0.144331 -0.255736 -0.147057
DOCKED: USER    NEWDPF axisangle0 0.954914 -0.145917 -0.258547 -163.087120
DOCKED: USER    NEWDPF quat0 0.954914 -0.145917 -0.258547 -163.087120
DOCKED: USER    NEWDPF dihe0 -180.00 -13.28 -64.13 137.05 -57.65 -26.97 
DOCKED: USER  keepresnum = 1 
DOCKED: USER  
DOCKED: REMARK  Name = 
DOCKED: REMARK  6 active torsions:
DOCKED: REMARK  status: ('A' for Active; 'I' for Inactive)
DOCKED: REMARK    1  A    between atoms: C_2  and  C_5
DOCKED: REMARK    2  A    between atoms: C_5  and  C_6
DOCKED: REMARK    3  A    between atoms: C_6  and  C_7
DOCKED: REMARK    4  A    between atoms: C_7  and  C_8
DOCKED: REMARK    5  A    between atoms: C_8  and  C_9
DOCKED: REMARK    6  A    between atoms: C_9  and  N_10
DOCKED: REMARK                            x       y       z     vdW  Elec       q    Type
DOCKED: REMARK                         _______ _______ _______ _____ _____    ______ ____
DOCKED: USER                              x       y       z     vdW  Elec       q    Type
DOCKED: USER                           _______ _______ _______ _____ _____    ______ ____
DOCKED: ROOT
DOCKED: ATOM      1  N   UNL     1      16.589 -11.653   1.443 -0.41 +0.00    +0.000 N 
DOCKED: ATOM      2  C   UNL     1      16.621 -10.458   2.246 -0.45 +0.00    +0.000 C 
DOCKED: ATOM      3  C   UNL     1      15.356  -9.794   2.636 -0.34 +0.00    +0.000 A 
DOCKED: ATOM      4  C   UNL     1      15.372  -8.644   3.446 -0.34 +0.00    +0.000 A 
DOCKED: ATOM      5  C   UNL     1      14.181  -8.018   3.814 -0.27 +0.00    +0.000 A 
DOCKED: ATOM      6  C   UNL     1      12.956  -8.524   3.380 -0.18 +0.00    +0.000 A 
DOCKED: ATOM      7  C   UNL     1      12.913  -9.669   2.570 -0.21 +0.00    +0.000 A 
DOCKED: ATOM      8  C   UNL     1      11.682 -10.177   2.133 -0.14 +0.00    +0.000 A 
DOCKED: ATOM      9  C   UNL     1      11.638 -11.313   1.325 -0.36 +0.00    +0.000 A 
DOCKED: ATOM     10  C   UNL     1      12.820 -11.954   0.947 -0.36 +0.00    +0.000 A 
DOCKED: ATOM     11  C   UNL     1      14.067 -11.465   1.374 -0.39 +0.00    +0.000 A 
DOCKED: ATOM     12  C   UNL     1      14.119 -10.314   2.192 -0.29 +0.00    +0.000 A 
DOCKED: ATOM     13  O   UNL     1      17.726  -9.975   2.617 -0.54 -0.00    +0.000 OA
DOCKED: ATOM     14  C   UNL     1      15.320 -12.145   0.973 -0.48 +0.00    +0.000 C 
DOCKED: ATOM     15  O   UNL     1      15.273 -13.155   0.216 -0.96 +0.00    +0.000 OA
DOCKED: ENDROOT
DOCKED: BRANCH   1  16
DOCKED: ATOM     16  C   UNL     1      17.839 -12.299   1.020 -0.54 +0.00    +0.000 C 
DOCKED: BRANCH  16  17
DOCKED: ATOM     17  C   UNL     1      17.987 -12.221  -0.503 -0.47 -0.00    +0.000 C 
DOCKED: BRANCH  17  18
DOCKED: ATOM     18  C   UNL     1      19.287 -11.512  -0.897 -0.33 -0.00    +0.000 C 
DOCKED: BRANCH  18  19
DOCKED: ATOM     19  C   UNL     1      19.524 -10.273  -0.020 -0.42 -0.00    +0.000 C 
DOCKED: BRANCH  19  20
DOCKED: ATOM     20  C   UNL     1      20.826 -10.372   0.787 -0.64 -0.00    +0.000 C 
DOCKED: BRANCH  20  22
DOCKED: ATOM     21  O   UNL     1      21.021 -12.389   2.053 -1.53 -0.00    +0.000 OA
DOCKED: ATOM     22  C   UNL     1      20.648 -11.186   2.036 -0.71 -0.00    +0.000 C 
DOCKED: ATOM     23  N   UNL     1      20.089 -10.594   3.211 -0.69 -0.00    +0.000 N 
DOCKED: ATOM     24  O   UNL     1      19.944 -11.323   4.342 -0.96 -0.00    +0.000 OA
DOCKED: ATOM     25  H   UNL     1      19.809  -9.650   3.198 -0.49 -0.00    +0.000 HD
DOCKED: ENDBRANCH  20  22
DOCKED: ENDBRANCH  19  20
DOCKED: ENDBRANCH  18  19
DOCKED: ENDBRANCH  17  18
DOCKED: ENDBRANCH  16  17
DOCKED: ENDBRANCH   1  16
DOCKED: TORSDOF 6
DOCKED: TER
DOCKED: ENDMDL
________________________________________________________________________________


	BEGINNING GENETIC ALGORITHM DOCKING 40 of 100
Run: 40 Seed: 1846129506 1507371356 [ Run 40 of 100 GA/GALS ]
Beginning LAMARCKIAN GENETIC ALGORITHM (LGA), with a maximum of 2500000 energy evaluations.

Final-Value: -12.041


	FINAL GENETIC ALGORITHM DOCKED STATE
	_______________________________________________


Detailed state:  trans 18.705 -10.772 0.326 quatxyzw 0.911548 0.051301 -0.045343 0.405454 center -0.023 0.069 -0.054 ntor 6 31.6208 -98.4723 -101.2639 -175.2493 35.0314 19.5010
State:	 18.705 -10.772   0.326   0.997  0.056 -0.050 132.161     31.62  -98.47 -101.26 -175.25   35.03   19.50

DOCKED: MODEL       40
DOCKED: USER    Run = 40
DOCKED: USER    DPF = ligand_dock.biased.dpf
DOCKED: USER  
DOCKED: USER    Estimated Free Energy of Binding    =   -8.45 kcal/mol  [=(1)+(2)+(3)-(4)]
DOCKED: USER    Estimated Inhibition Constant, Ki   =  643.62 nM (nanomolar)  [Temperature = 298.15 K]
DOCKED: USER    
DOCKED: USER    (1) Final Intermolecular Energy     =  -10.24 kcal/mol
DOCKED: USER        vdW + Hbond + desolv Energy     =  -10.24 kcal/mol
DOCKED: USER        Electrostatic Energy            =   +0.00 kcal/mol
DOCKED: USER    (2) Final Total Internal Energy     =   -1.81 kcal/mol
DOCKED: USER    (3) Torsional Free Energy           =   +1.79 kcal/mol
DOCKED: USER    (4) Unbound System's Energy  [=(2)] =   -1.81 kcal/mol
DOCKED: USER    
DOCKED: USER    
DOCKED: USER    NEWDPF move ligand.pdbqt
DOCKED: USER    NEWDPF about -0.023000 0.069000 -0.054000
DOCKED: USER    NEWDPF tran0 18.705154 -10.771926 0.326174
DOCKED: USER    NEWDPF quaternion0 0.911548 0.051301 -0.045343 0.405454
DOCKED: USER    NEWDPF axisangle0 0.997191 0.056121 -0.049603 132.160805
DOCKED: USER    NEWDPF quat0 0.997191 0.056121 -0.049603 132.160805
DOCKED: USER    NEWDPF dihe0 31.62 -98.47 -101.26 -175.25 35.03 19.50 
DOCKED: USER  keepresnum = 1 
DOCKED: USER  
DOCKED: REMARK  Name = 
DOCKED: REMARK  6 active torsions:
DOCKED: REMARK  status: ('A' for Active; 'I' for Inactive)
DOCKED: REMARK    1  A    between atoms: C_2  and  C_5
DOCKED: REMARK    2  A    between atoms: C_5  and  C_6
DOCKED: REMARK    3  A    between atoms: C_6  and  C_7
DOCKED: REMARK    4  A    between atoms: C_7  and  C_8
DOCKED: REMARK    5  A    between atoms: C_8  and  C_9
DOCKED: REMARK    6  A    between atoms: C_9  and  N_10
DOCKED: REMARK                            x       y       z     vdW  Elec       q    Type
DOCKED: REMARK                         _______ _______ _______ _____ _____    ______ ____
DOCKED: USER                              x       y       z     vdW  Elec       q    Type
DOCKED: USER                           _______ _______ _______ _____ _____    ______ ____
DOCKED: ROOT
DOCKED: ATOM      1  N   UNL     1      18.169 -11.375  -0.116 -0.42 -0.00    +0.000 N 
DOCKED: ATOM      2  C   UNL     1      17.502 -11.606   1.138 -0.50 +0.00    +0.000 C 
DOCKED: ATOM      3  C   UNL     1      16.027 -11.496   1.224 -0.38 +0.00    +0.000 A 
DOCKED: ATOM      4  C   UNL     1      15.361 -11.750   2.436 -0.44 +0.00    +0.000 A 
DOCKED: ATOM      5  C   UNL     1      13.972 -11.645   2.517 -0.37 +0.00    +0.000 A 
DOCKED: ATOM      6  C   UNL     1      13.226 -11.286   1.395 -0.36 +0.00    +0.000 A 
DOCKED: ATOM      7  C   UNL     1      13.867 -11.026   0.175 -0.30 +0.00    +0.000 A 
DOCKED: ATOM      8  C   UNL     1      13.117 -10.663  -0.952 -0.27 +0.00    +0.000 A 
DOCKED: ATOM      9  C   UNL     1      13.754 -10.401  -2.165 -0.26 -0.00    +0.000 A 
DOCKED: ATOM     10  C   UNL     1      15.143 -10.501  -2.266 -0.26 -0.00    +0.000 A 
DOCKED: ATOM     11  C   UNL     1      15.918 -10.865  -1.150 -0.28 -0.00    +0.000 A 
DOCKED: ATOM     12  C   UNL     1      15.279 -11.131   0.082 -0.31 +0.00    +0.000 A 
DOCKED: ATOM     13  O   UNL     1      18.172 -11.901   2.166 -0.57 +0.00    +0.000 OA
DOCKED: ATOM     14  C   UNL     1      17.391 -10.970  -1.258 -0.32 -0.00    +0.000 C 
DOCKED: ATOM     15  O   UNL     1      17.962 -10.702  -2.352 -0.34 -0.00    +0.000 OA
DOCKED: ENDROOT
DOCKED: BRANCH   1  16
DOCKED: ATOM     16  C   UNL     1      19.635 -11.446  -0.204 -0.49 -0.00    +0.000 C 
DOCKED: BRANCH  16  17
DOCKED: ATOM     17  C   UNL     1      20.269 -10.287   0.572 -0.63 -0.00    +0.000 C 
DOCKED: BRANCH  17  18
DOCKED: ATOM     18  C   UNL     1      21.546  -9.794  -0.117 -0.66 -0.00    +0.000 C 
DOCKED: BRANCH  18  19
DOCKED: ATOM     19  C   UNL     1      21.762 -10.516  -1.456 -0.48 -0.00    +0.000 C 
DOCKED: BRANCH  19  20
DOCKED: ATOM     20  C   UNL     1      20.935  -9.896  -2.591 -0.55 -0.00    +0.000 C 
DOCKED: BRANCH  20  22
DOCKED: ATOM     21  O   UNL     1      21.982 -11.258  -4.253 -0.58 -0.00    +0.000 OA
DOCKED: ATOM     22  C   UNL     1      20.906 -10.780  -3.805 -0.51 -0.00    +0.000 C 
DOCKED: ATOM     23  N   UNL     1      19.664 -11.106  -4.432 -0.42 -0.00    +0.000 N 
DOCKED: ATOM     24  O   UNL     1      19.636 -11.916  -5.516 -0.52 -0.00    +0.000 OA
DOCKED: ATOM     25  H   UNL     1      18.823 -10.741  -4.073 -0.01 -0.00    +0.000 HD
DOCKED: ENDBRANCH  20  22
DOCKED: ENDBRANCH  19  20
DOCKED: ENDBRANCH  18  19
DOCKED: ENDBRANCH  17  18
DOCKED: ENDBRANCH  16  17
DOCKED: ENDBRANCH   1  16
DOCKED: TORSDOF 6
DOCKED: TER
DOCKED: ENDMDL
________________________________________________________________________________


	BEGINNING GENETIC ALGORITHM DOCKING 41 of 100
Run: 41 Seed: 631837571 1238363514 [ Run 41 of 100 GA/GALS ]
Beginning LAMARCKIAN GENETIC ALGORITHM (LGA), with a maximum of 2500000 energy evaluations.

Final-Value: -11.819


	FINAL GENETIC ALGORITHM DOCKED STATE
	_______________________________________________


Detailed state:  trans 19.469 -10.623 -4.661 quatxyzw 0.697313 0.195221 0.641258 0.253832 center -0.023 0.069 -0.054 ntor 6 136.1348 -87.4395 -9.1029 67.4581 41.3126 4.7562
State:	 19.469 -10.623  -4.661   0.721  0.202  0.663 150.591    136.13  -87.44   -9.10   67.46   41.31    4.76

DOCKED: MODEL       41
DOCKED: USER    Run = 41
DOCKED: USER    DPF = ligand_dock.biased.dpf
DOCKED: USER  
DOCKED: USER    Estimated Free Energy of Binding    =   -9.41 kcal/mol  [=(1)+(2)+(3)-(4)]
DOCKED: USER    Estimated Inhibition Constant, Ki   =  126.52 nM (nanomolar)  [Temperature = 298.15 K]
DOCKED: USER    
DOCKED: USER    (1) Final Intermolecular Energy     =  -11.20 kcal/mol
DOCKED: USER        vdW + Hbond + desolv Energy     =  -11.20 kcal/mol
DOCKED: USER        Electrostatic Energy            =   +0.00 kcal/mol
DOCKED: USER    (2) Final Total Internal Energy     =   -0.62 kcal/mol
DOCKED: USER    (3) Torsional Free Energy           =   +1.79 kcal/mol
DOCKED: USER    (4) Unbound System's Energy  [=(2)] =   -0.62 kcal/mol
DOCKED: USER    
DOCKED: USER    
DOCKED: USER    NEWDPF move ligand.pdbqt
DOCKED: USER    NEWDPF about -0.023000 0.069000 -0.054000
DOCKED: USER    NEWDPF tran0 19.469483 -10.622573 -4.660883
DOCKED: USER    NEWDPF quaternion0 0.697313 0.195221 0.641258 0.253832
DOCKED: USER    NEWDPF axisangle0 0.720925 0.201832 0.662972 150.591266
DOCKED: USER    NEWDPF quat0 0.720925 0.201832 0.662972 150.591266
DOCKED: USER    NEWDPF dihe0 136.13 -87.44 -9.10 67.46 41.31 4.76 
DOCKED: USER  keepresnum = 1 
DOCKED: USER  
DOCKED: REMARK  Name = 
DOCKED: REMARK  6 active torsions:
DOCKED: REMARK  status: ('A' for Active; 'I' for Inactive)
DOCKED: REMARK    1  A    between atoms: C_2  and  C_5
DOCKED: REMARK    2  A    between atoms: C_5  and  C_6
DOCKED: REMARK    3  A    between atoms: C_6  and  C_7
DOCKED: REMARK    4  A    between atoms: C_7  and  C_8
DOCKED: REMARK    5  A    between atoms: C_8  and  C_9
DOCKED: REMARK    6  A    between atoms: C_9  and  N_10
DOCKED: REMARK                            x       y       z     vdW  Elec       q    Type
DOCKED: REMARK                         _______ _______ _______ _____ _____    ______ ____
DOCKED: USER                              x       y       z     vdW  Elec       q    Type
DOCKED: USER                           _______ _______ _______ _____ _____    ______ ____
DOCKED: ROOT
DOCKED: ATOM      1  N   UNL     1      19.764 -11.196  -5.317 -0.42 -0.00    +0.000 N 
DOCKED: ATOM      2  C   UNL     1      18.465 -11.066  -5.925 -0.38 -0.00    +0.000 C 
DOCKED: ATOM      3  C   UNL     1      18.351 -10.688  -7.353 -0.28 -0.00    +0.000 A 
DOCKED: ATOM      4  C   UNL     1      17.090 -10.587  -7.967 -0.23 -0.00    +0.000 A 
DOCKED: ATOM      5  C   UNL     1      16.982 -10.231  -9.311 -0.13 -0.00    +0.000 A 
DOCKED: ATOM      6  C   UNL     1      18.125  -9.968 -10.064 -0.08 -0.00    +0.000 A 
DOCKED: ATOM      7  C   UNL     1      19.395 -10.060  -9.475 -0.07 -0.00    +0.000 A 
DOCKED: ATOM      8  C   UNL     1      20.544  -9.794 -10.231 -0.12 -0.00    +0.000 A 
DOCKED: ATOM      9  C   UNL     1      21.807  -9.882  -9.645 -0.12 -0.00    +0.000 A 
DOCKED: ATOM     10  C   UNL     1      21.936 -10.238  -8.301 -0.21 -0.00    +0.000 A 
DOCKED: ATOM     11  C   UNL     1      20.798 -10.511  -7.521 -0.25 -0.00    +0.000 A 
DOCKED: ATOM     12  C   UNL     1      19.515 -10.423  -8.109 -0.21 -0.00    +0.000 A 
DOCKED: ATOM     13  O   UNL     1      17.423 -11.272  -5.243 -0.32 -0.00    +0.000 OA
DOCKED: ATOM     14  C   UNL     1      20.935 -10.888  -6.096 -0.41 -0.00    +0.000 C 
DOCKED: ATOM     15  O   UNL     1      22.079 -10.936  -5.565 -0.51 -0.00    +0.000 OA
DOCKED: ENDROOT
DOCKED: BRANCH   1  16
DOCKED: ATOM     16  C   UNL     1      19.887 -11.536  -3.892 -0.41 -0.00    +0.000 C 
DOCKED: BRANCH  16  17
DOCKED: ATOM     17  C   UNL     1      19.736 -10.276  -3.033 -0.43 -0.00    +0.000 C 
DOCKED: BRANCH  17  18
DOCKED: ATOM     18  C   UNL     1      20.747 -10.268  -1.881 -0.58 -0.00    +0.000 C 
DOCKED: BRANCH  18  19
DOCKED: ATOM     19  C   UNL     1      20.038 -10.420  -0.527 -0.57 -0.00    +0.000 C 
DOCKED: BRANCH  19  20
DOCKED: ATOM     20  C   UNL     1      21.030 -10.562   0.636 -0.66 -0.00    +0.000 C 
DOCKED: BRANCH  20  22
DOCKED: ATOM     21  O   UNL     1      19.904 -12.407   1.657 -1.76 -0.00    +0.000 OA
DOCKED: ATOM     22  C   UNL     1      20.413 -11.264   1.811 -0.75 -0.00    +0.000 C 
DOCKED: ATOM     23  N   UNL     1      20.430 -10.659   3.106 -0.67 -0.00    +0.000 N 
DOCKED: ATOM     24  O   UNL     1      19.889 -11.299   4.169 -1.04 -0.00    +0.000 OA
DOCKED: ATOM     25  H   UNL     1      20.839  -9.771   3.226 -0.60 -0.00    +0.000 HD
DOCKED: ENDBRANCH  20  22
DOCKED: ENDBRANCH  19  20
DOCKED: ENDBRANCH  18  19
DOCKED: ENDBRANCH  17  18
DOCKED: ENDBRANCH  16  17
DOCKED: ENDBRANCH   1  16
DOCKED: TORSDOF 6
DOCKED: TER
DOCKED: ENDMDL
________________________________________________________________________________


	BEGINNING GENETIC ALGORITHM DOCKING 42 of 100
Run: 42 Seed: 36309377 1878639733 [ Run 42 of 100 GA/GALS ]
Beginning LAMARCKIAN GENETIC ALGORITHM (LGA), with a maximum of 2500000 energy evaluations.

Final-Value: -12.097


	FINAL GENETIC ALGORITHM DOCKED STATE
	_______________________________________________


Detailed state:  trans 15.922 -10.536 -0.941 quatxyzw -0.073964 0.067691 0.993738 -0.049320 center -0.023 0.069 -0.054 ntor 6 -172.7867 159.5462 27.5595 -180.0000 -75.6013 -118.6478
State:	 15.922 -10.536  -0.941  -0.074  0.068  0.995 -174.346   -172.79  159.55   27.56 -180.00  -75.60 -118.65

DOCKED: MODEL       42
DOCKED: USER    Run = 42
DOCKED: USER    DPF = ligand_dock.biased.dpf
DOCKED: USER  
DOCKED: USER    Estimated Free Energy of Binding    =   -8.84 kcal/mol  [=(1)+(2)+(3)-(4)]
DOCKED: USER    Estimated Inhibition Constant, Ki   =  333.21 nM (nanomolar)  [Temperature = 298.15 K]
DOCKED: USER    
DOCKED: USER    (1) Final Intermolecular Energy     =  -10.63 kcal/mol
DOCKED: USER        vdW + Hbond + desolv Energy     =  -10.63 kcal/mol
DOCKED: USER        Electrostatic Energy            =   +0.00 kcal/mol
DOCKED: USER    (2) Final Total Internal Energy     =   -1.47 kcal/mol
DOCKED: USER    (3) Torsional Free Energy           =   +1.79 kcal/mol
DOCKED: USER    (4) Unbound System's Energy  [=(2)] =   -1.47 kcal/mol
DOCKED: USER    
DOCKED: USER    
DOCKED: USER    NEWDPF move ligand.pdbqt
DOCKED: USER    NEWDPF about -0.023000 0.069000 -0.054000
DOCKED: USER    NEWDPF tran0 15.921874 -10.535793 -0.941049
DOCKED: USER    NEWDPF quaternion0 -0.073964 0.067691 0.993738 -0.049320
DOCKED: USER    NEWDPF axisangle0 -0.074055 0.067774 0.994949 -174.346047
DOCKED: USER    NEWDPF quat0 -0.074055 0.067774 0.994949 -174.346047
DOCKED: USER    NEWDPF dihe0 -172.79 159.55 27.56 -180.00 -75.60 -118.65 
DOCKED: USER  keepresnum = 1 
DOCKED: USER  
DOCKED: REMARK  Name = 
DOCKED: REMARK  6 active torsions:
DOCKED: REMARK  status: ('A' for Active; 'I' for Inactive)
DOCKED: REMARK    1  A    between atoms: C_2  and  C_5
DOCKED: REMARK    2  A    between atoms: C_5  and  C_6
DOCKED: REMARK    3  A    between atoms: C_6  and  C_7
DOCKED: REMARK    4  A    between atoms: C_7  and  C_8
DOCKED: REMARK    5  A    between atoms: C_8  and  C_9
DOCKED: REMARK    6  A    between atoms: C_9  and  N_10
DOCKED: REMARK                            x       y       z     vdW  Elec       q    Type
DOCKED: REMARK                         _______ _______ _______ _____ _____    ______ ____
DOCKED: USER                              x       y       z     vdW  Elec       q    Type
DOCKED: USER                           _______ _______ _______ _____ _____    ______ ____
DOCKED: ROOT
DOCKED: ATOM      1  N   UNL     1      16.439 -11.289  -0.841 -0.32 +0.00    +0.000 N 
DOCKED: ATOM      2  C   UNL     1      17.388 -10.680  -1.736 -0.25 -0.00    +0.000 C 
DOCKED: ATOM      3  C   UNL     1      18.810 -10.561  -1.338 -0.32 -0.00    +0.000 A 
DOCKED: ATOM      4  C   UNL     1      19.753  -9.996  -2.216 -0.35 -0.00    +0.000 A 
DOCKED: ATOM      5  C   UNL     1      21.092  -9.883  -1.841 -0.54 -0.00    +0.000 A 
DOCKED: ATOM      6  C   UNL     1      21.513 -10.328  -0.589 -0.61 -0.00    +0.000 A 
DOCKED: ATOM      7  C   UNL     1      20.593 -10.894   0.305 -0.61 -0.00    +0.000 A 
DOCKED: ATOM      8  C   UNL     1      21.016 -11.339   1.565 -0.42 -0.00    +0.000 A 
DOCKED: ATOM      9  C   UNL     1      20.100 -11.899   2.456 -0.67 -0.00    +0.000 A 
DOCKED: ATOM     10  C   UNL     1      18.756 -12.022   2.100 -0.38 -0.00    +0.000 A 
DOCKED: ATOM     11  C   UNL     1      18.307 -11.583   0.841 -0.48 -0.00    +0.000 A 
DOCKED: ATOM     12  C   UNL     1      19.229 -11.014  -0.067 -0.48 -0.00    +0.000 A 
DOCKED: ATOM     13  O   UNL     1      17.010 -10.246  -2.859 -0.29 -0.00    +0.000 OA
DOCKED: ATOM     14  C   UNL     1      16.881 -11.713   0.464 -0.47 +0.00    +0.000 C 
DOCKED: ATOM     15  O   UNL     1      16.053 -12.193   1.287 -0.78 +0.00    +0.000 OA
DOCKED: ENDROOT
DOCKED: BRANCH   1  16
DOCKED: ATOM     16  C   UNL     1      15.020 -11.380  -1.210 -0.37 +0.00    +0.000 C 
DOCKED: BRANCH  16  17
DOCKED: ATOM     17  C   UNL     1      14.361 -12.563  -0.493 -0.41 +0.00    +0.000 C 
DOCKED: BRANCH  17  18
DOCKED: ATOM     18  C   UNL     1      13.486 -12.084   0.671 -0.42 +0.00    +0.000 C 
DOCKED: BRANCH  18  19
DOCKED: ATOM     19  C   UNL     1      13.511 -10.553   0.784 -0.29 +0.00    +0.000 C 
DOCKED: BRANCH  19  20
DOCKED: ATOM     20  C   UNL     1      13.337 -10.073   2.232 -0.28 +0.00    +0.000 C 
DOCKED: BRANCH  20  22
DOCKED: ATOM     21  O   UNL     1      15.104  -8.758   3.159 -0.36 +0.00    +0.000 OA
DOCKED: ATOM     22  C   UNL     1      14.657  -9.913   2.929 -0.37 +0.00    +0.000 C 
DOCKED: ATOM     23  N   UNL     1      15.391 -11.062   3.360 -0.50 +0.00    +0.000 N 
DOCKED: ATOM     24  O   UNL     1      16.573 -10.917   4.003 -0.60 +0.00    +0.000 OA
DOCKED: ATOM     25  H   UNL     1      15.035 -11.963   3.189 -0.06 +0.00    +0.000 HD
DOCKED: ENDBRANCH  20  22
DOCKED: ENDBRANCH  19  20
DOCKED: ENDBRANCH  18  19
DOCKED: ENDBRANCH  17  18
DOCKED: ENDBRANCH  16  17
DOCKED: ENDBRANCH   1  16
DOCKED: TORSDOF 6
DOCKED: TER
DOCKED: ENDMDL
________________________________________________________________________________


	BEGINNING GENETIC ALGORITHM DOCKING 43 of 100
Run: 43 Seed: 317820954 266265791 [ Run 43 of 100 GA/GALS ]
Beginning LAMARCKIAN GENETIC ALGORITHM (LGA), with a maximum of 2500000 energy evaluations.

Final-Value: -13.378


	FINAL GENETIC ALGORITHM DOCKED STATE
	_______________________________________________


Detailed state:  trans 16.110 -12.557 -0.731 quatxyzw 0.219387 -0.974942 0.020267 0.030776 center -0.023 0.069 -0.054 ntor 6 122.3179 -174.4234 81.5056 -55.4126 65.8961 -179.7834
State:	 16.110 -12.557  -0.731   0.219 -0.975  0.020 176.473    122.32 -174.42   81.51  -55.41   65.90 -179.78

DOCKED: MODEL       43
DOCKED: USER    Run = 43
DOCKED: USER    DPF = ligand_dock.biased.dpf
DOCKED: USER  
DOCKED: USER    Estimated Free Energy of Binding    =   -9.12 kcal/mol  [=(1)+(2)+(3)-(4)]
DOCKED: USER    Estimated Inhibition Constant, Ki   =  204.79 nM (nanomolar)  [Temperature = 298.15 K]
DOCKED: USER    
DOCKED: USER    (1) Final Intermolecular Energy     =  -10.91 kcal/mol
DOCKED: USER        vdW + Hbond + desolv Energy     =  -10.91 kcal/mol
DOCKED: USER        Electrostatic Energy            =   +0.00 kcal/mol
DOCKED: USER    (2) Final Total Internal Energy     =   -2.46 kcal/mol
DOCKED: USER    (3) Torsional Free Energy           =   +1.79 kcal/mol
DOCKED: USER    (4) Unbound System's Energy  [=(2)] =   -2.46 kcal/mol
DOCKED: USER    
DOCKED: USER    
DOCKED: USER    NEWDPF move ligand.pdbqt
DOCKED: USER    NEWDPF about -0.023000 0.069000 -0.054000
DOCKED: USER    NEWDPF tran0 16.110086 -12.556599 -0.731311
DOCKED: USER    NEWDPF quaternion0 0.219387 -0.974942 0.020267 0.030776
DOCKED: USER    NEWDPF axisangle0 0.219491 -0.975404 0.020277 176.472789
DOCKED: USER    NEWDPF quat0 0.219491 -0.975404 0.020277 176.472789
DOCKED: USER    NEWDPF dihe0 122.32 -174.42 81.51 -55.41 65.90 -179.78 
DOCKED: USER  keepresnum = 1 
DOCKED: USER  
DOCKED: REMARK  Name = 
DOCKED: REMARK  6 active torsions:
DOCKED: REMARK  status: ('A' for Active; 'I' for Inactive)
DOCKED: REMARK    1  A    between atoms: C_2  and  C_5
DOCKED: REMARK    2  A    between atoms: C_5  and  C_6
DOCKED: REMARK    3  A    between atoms: C_6  and  C_7
DOCKED: REMARK    4  A    between atoms: C_7  and  C_8
DOCKED: REMARK    5  A    between atoms: C_8  and  C_9
DOCKED: REMARK    6  A    between atoms: C_9  and  N_10
DOCKED: REMARK                            x       y       z     vdW  Elec       q    Type
DOCKED: REMARK                         _______ _______ _______ _____ _____    ______ ____
DOCKED: USER                              x       y       z     vdW  Elec       q    Type
DOCKED: USER                           _______ _______ _______ _____ _____    ______ ____
DOCKED: ROOT
DOCKED: ATOM      1  N   UNL     1      16.339 -11.669  -0.657 -0.34 +0.00    +0.000 N 
DOCKED: ATOM      2  C   UNL     1      17.294 -12.064   0.345 -0.51 +0.00    +0.000 C 
DOCKED: ATOM      3  C   UNL     1      18.710 -11.647   0.225 -0.49 -0.00    +0.000 A 
DOCKED: ATOM      4  C   UNL     1      19.646 -11.999   1.213 -0.62 -0.00    +0.000 A 
DOCKED: ATOM      5  C   UNL     1      20.980 -11.607   1.100 -0.53 -0.00    +0.000 A 
DOCKED: ATOM      6  C   UNL     1      21.403 -10.859   0.001 -0.53 -0.00    +0.000 A 
DOCKED: ATOM      7  C   UNL     1      20.489 -10.496  -0.999 -0.54 -0.00    +0.000 A 
DOCKED: ATOM      8  C   UNL     1      20.915  -9.746  -2.104 -0.51 -0.00    +0.000 A 
DOCKED: ATOM      9  C   UNL     1      20.008  -9.387  -3.101 -0.33 -0.00    +0.000 A 
DOCKED: ATOM     10  C   UNL     1      18.669  -9.769  -3.005 -0.15 -0.00    +0.000 A 
DOCKED: ATOM     11  C   UNL     1      18.216 -10.521  -1.905 -0.27 -0.00    +0.000 A 
DOCKED: ATOM     12  C   UNL     1      19.130 -10.889  -0.892 -0.42 -0.00    +0.000 A 
DOCKED: ATOM     13  O   UNL     1      16.926 -12.767   1.327 -0.98 +0.00    +0.000 OA
DOCKED: ATOM     14  C   UNL     1      16.796 -10.927  -1.804 -0.13 -0.00    +0.000 C 
DOCKED: ATOM     15  O   UNL     1      15.988 -10.624  -2.725 -0.28 -0.00    +0.000 OA
DOCKED: ENDROOT
DOCKED: BRANCH   1  16
DOCKED: ATOM     16  C   UNL     1      14.939 -12.108  -0.566 -0.47 +0.00    +0.000 C 
DOCKED: BRANCH  16  17
DOCKED: ATOM     17  C   UNL     1      14.103 -11.059   0.174 -0.35 +0.00    +0.000 C 
DOCKED: BRANCH  17  18
DOCKED: ATOM     18  C   UNL     1      13.584 -11.608   1.508 -0.45 +0.00    +0.000 C 
DOCKED: BRANCH  18  19
DOCKED: ATOM     19  C   UNL     1      13.995 -10.696   2.674 -0.39 +0.00    +0.000 C 
DOCKED: BRANCH  19  20
DOCKED: ATOM     20  C   UNL     1      15.283 -11.172   3.360 -0.53 +0.00    +0.000 C 
DOCKED: BRANCH  20  22
DOCKED: ATOM     21  O   UNL     1      16.135  -8.939   3.384 -0.46 +0.00    +0.000 OA
DOCKED: ATOM     22  C   UNL     1      16.389 -10.164   3.231 -0.48 +0.00    +0.000 C 
DOCKED: ATOM     23  N   UNL     1      17.728 -10.589   2.969 -0.48 +0.00    +0.000 N 
DOCKED: ATOM     24  O   UNL     1      18.727  -9.682   2.870 -0.65 -0.00    +0.000 OA
DOCKED: ATOM     25  H   UNL     1      17.926 -11.548   2.862 -0.01 +0.00    +0.000 HD
DOCKED: ENDBRANCH  20  22
DOCKED: ENDBRANCH  19  20
DOCKED: ENDBRANCH  18  19
DOCKED: ENDBRANCH  17  18
DOCKED: ENDBRANCH  16  17
DOCKED: ENDBRANCH   1  16
DOCKED: TORSDOF 6
DOCKED: TER
DOCKED: ENDMDL
________________________________________________________________________________


	BEGINNING GENETIC ALGORITHM DOCKING 44 of 100
Run: 44 Seed: 229997730 904120008 [ Run 44 of 100 GA/GALS ]
Beginning LAMARCKIAN GENETIC ALGORITHM (LGA), with a maximum of 2500000 energy evaluations.

Final-Value: -12.820


	FINAL GENETIC ALGORITHM DOCKED STATE
	_______________________________________________


Detailed state:  trans 19.620 -9.786 -0.713 quatxyzw 0.750413 0.245063 0.605625 0.100218 center -0.023 0.069 -0.054 ntor 6 -178.8886 80.8430 -76.2943 176.7313 53.0783 179.8796
State:	 19.620  -9.786  -0.713   0.754  0.246  0.609 168.497   -178.89   80.84  -76.29  176.73   53.08  179.88

DOCKED: MODEL       44
DOCKED: USER    Run = 44
DOCKED: USER    DPF = ligand_dock.biased.dpf
DOCKED: USER  
DOCKED: USER    Estimated Free Energy of Binding    =   -8.98 kcal/mol  [=(1)+(2)+(3)-(4)]
DOCKED: USER    Estimated Inhibition Constant, Ki   =  262.64 nM (nanomolar)  [Temperature = 298.15 K]
DOCKED: USER    
DOCKED: USER    (1) Final Intermolecular Energy     =  -10.77 kcal/mol
DOCKED: USER        vdW + Hbond + desolv Energy     =  -10.77 kcal/mol
DOCKED: USER        Electrostatic Energy            =   +0.00 kcal/mol
DOCKED: USER    (2) Final Total Internal Energy     =   -2.05 kcal/mol
DOCKED: USER    (3) Torsional Free Energy           =   +1.79 kcal/mol
DOCKED: USER    (4) Unbound System's Energy  [=(2)] =   -2.05 kcal/mol
DOCKED: USER    
DOCKED: USER    
DOCKED: USER    NEWDPF move ligand.pdbqt
DOCKED: USER    NEWDPF about -0.023000 0.069000 -0.054000
DOCKED: USER    NEWDPF tran0 19.620123 -9.786271 -0.713489
DOCKED: USER    NEWDPF quaternion0 0.750413 0.245063 0.605625 0.100218
DOCKED: USER    NEWDPF axisangle0 0.754210 0.246303 0.608689 168.496553
DOCKED: USER    NEWDPF quat0 0.754210 0.246303 0.608689 168.496553
DOCKED: USER    NEWDPF dihe0 -178.89 80.84 -76.29 176.73 53.08 179.88 
DOCKED: USER  keepresnum = 1 
DOCKED: USER  
DOCKED: REMARK  Name = 
DOCKED: REMARK  6 active torsions:
DOCKED: REMARK  status: ('A' for Active; 'I' for Inactive)
DOCKED: REMARK    1  A    between atoms: C_2  and  C_5
DOCKED: REMARK    2  A    between atoms: C_5  and  C_6
DOCKED: REMARK    3  A    between atoms: C_6  and  C_7
DOCKED: REMARK    4  A    between atoms: C_7  and  C_8
DOCKED: REMARK    5  A    between atoms: C_8  and  C_9
DOCKED: REMARK    6  A    between atoms: C_9  and  N_10
DOCKED: REMARK                            x       y       z     vdW  Elec       q    Type
DOCKED: REMARK                         _______ _______ _______ _____ _____    ______ ____
DOCKED: USER                              x       y       z     vdW  Elec       q    Type
DOCKED: USER                           _______ _______ _______ _____ _____    ______ ____
DOCKED: ROOT
DOCKED: ATOM      1  N   UNL     1      19.806 -10.570  -1.157 -0.46 -0.00    +0.000 N 
DOCKED: ATOM      2  C   UNL     1      18.504 -10.464  -1.761 -0.29 -0.00    +0.000 C 
DOCKED: ATOM      3  C   UNL     1      18.361 -10.539  -3.234 -0.26 -0.00    +0.000 A 
DOCKED: ATOM      4  C   UNL     1      17.092 -10.467  -3.834 -0.12 -0.00    +0.000 A 
DOCKED: ATOM      5  C   UNL     1      16.957 -10.537  -5.221 -0.23 -0.00    +0.000 A 
DOCKED: ATOM      6  C   UNL     1      18.083 -10.678  -6.031 -0.29 -0.00    +0.000 A 
DOCKED: ATOM      7  C   UNL     1      19.361 -10.750  -5.457 -0.34 -0.00    +0.000 A 
DOCKED: ATOM      8  C   UNL     1      20.493 -10.889  -6.272 -0.32 -0.00    +0.000 A 
DOCKED: ATOM      9  C   UNL     1      21.764 -10.957  -5.702 -0.45 -0.00    +0.000 A 
DOCKED: ATOM     10  C   UNL     1      21.919 -10.890  -4.316 -0.32 -0.00    +0.000 A 
DOCKED: ATOM     11  C   UNL     1      20.799 -10.751  -3.477 -0.44 -0.00    +0.000 A 
DOCKED: ATOM     12  C   UNL     1      19.508 -10.681  -4.048 -0.37 -0.00    +0.000 A 
DOCKED: ATOM     13  O   UNL     1      17.482 -10.305  -1.037 -0.29 -0.00    +0.000 OA
DOCKED: ATOM     14  C   UNL     1      20.964 -10.679  -2.007 -0.49 -0.00    +0.000 C 
DOCKED: ATOM     15  O   UNL     1      22.120 -10.711  -1.501 -0.55 -0.00    +0.000 OA
DOCKED: ENDROOT
DOCKED: BRANCH   1  16
DOCKED: ATOM     16  C   UNL     1      19.963 -10.461   0.300 -0.60 -0.00    +0.000 C 
DOCKED: BRANCH  16  17
DOCKED: ATOM     17  C   UNL     1      19.904 -11.850   0.944 -0.68 -0.00    +0.000 C 
DOCKED: BRANCH  17  18
DOCKED: ATOM     18  C   UNL     1      18.860 -11.895   2.066 -0.55 -0.00    +0.000 C 
DOCKED: BRANCH  18  19
DOCKED: ATOM     19  C   UNL     1      18.220 -10.514   2.277 -0.55 -0.00    +0.000 C 
DOCKED: BRANCH  19  20
DOCKED: ATOM     20  C   UNL     1      16.780 -10.454   1.750 -0.42 +0.00    +0.000 C 
DOCKED: BRANCH  20  22
DOCKED: ATOM     21  O   UNL     1      15.475 -12.394   2.243 -0.64 +0.00    +0.000 OA
DOCKED: ATOM     22  C   UNL     1      16.247 -11.820   1.429 -0.46 +0.00    +0.000 C 
DOCKED: ATOM     23  N   UNL     1      16.583 -12.456   0.194 -0.48 +0.00    +0.000 N 
DOCKED: ATOM     24  O   UNL     1      16.088 -13.680  -0.103 -1.15 +0.00    +0.000 OA
DOCKED: ATOM     25  H   UNL     1      17.177 -12.001  -0.446 -0.01 +0.00    +0.000 HD
DOCKED: ENDBRANCH  20  22
DOCKED: ENDBRANCH  19  20
DOCKED: ENDBRANCH  18  19
DOCKED: ENDBRANCH  17  18
DOCKED: ENDBRANCH  16  17
DOCKED: ENDBRANCH   1  16
DOCKED: TORSDOF 6
DOCKED: TER
DOCKED: ENDMDL
________________________________________________________________________________


	BEGINNING GENETIC ALGORITHM DOCKING 45 of 100
Run: 45 Seed: 1006389519 1117048362 [ Run 45 of 100 GA/GALS ]
Beginning LAMARCKIAN GENETIC ALGORITHM (LGA), with a maximum of 2500000 energy evaluations.

Final-Value: -13.024


	FINAL GENETIC ALGORITHM DOCKED STATE
	_______________________________________________


Detailed state:  trans 15.931 -10.811 -1.208 quatxyzw -0.089734 0.002621 0.995933 -0.007696 center -0.023 0.069 -0.054 ntor 6 161.5173 135.0797 -68.6578 72.7066 131.9846 8.2409
State:	 15.931 -10.811  -1.208  -0.090  0.003  0.996 -179.118    161.52  135.08  -68.66   72.71  131.98    8.24

DOCKED: MODEL       45
DOCKED: USER    Run = 45
DOCKED: USER    DPF = ligand_dock.biased.dpf
DOCKED: USER  
DOCKED: USER    Estimated Free Energy of Binding    =   -8.92 kcal/mol  [=(1)+(2)+(3)-(4)]
DOCKED: USER    Estimated Inhibition Constant, Ki   =  291.28 nM (nanomolar)  [Temperature = 298.15 K]
DOCKED: USER    
DOCKED: USER    (1) Final Intermolecular Energy     =  -10.71 kcal/mol
DOCKED: USER        vdW + Hbond + desolv Energy     =  -10.71 kcal/mol
DOCKED: USER        Electrostatic Energy            =   +0.00 kcal/mol
DOCKED: USER    (2) Final Total Internal Energy     =   -2.32 kcal/mol
DOCKED: USER    (3) Torsional Free Energy           =   +1.79 kcal/mol
DOCKED: USER    (4) Unbound System's Energy  [=(2)] =   -2.32 kcal/mol
DOCKED: USER    
DOCKED: USER    
DOCKED: USER    NEWDPF move ligand.pdbqt
DOCKED: USER    NEWDPF about -0.023000 0.069000 -0.054000
DOCKED: USER    NEWDPF tran0 15.931346 -10.811176 -1.207625
DOCKED: USER    NEWDPF quaternion0 -0.089734 0.002621 0.995933 -0.007696
DOCKED: USER    NEWDPF axisangle0 -0.089736 0.002621 0.995962 -179.118098
DOCKED: USER    NEWDPF quat0 -0.089736 0.002621 0.995962 -179.118098
DOCKED: USER    NEWDPF dihe0 161.52 135.08 -68.66 72.71 131.98 8.24 
DOCKED: USER  keepresnum = 1 
DOCKED: USER  
DOCKED: REMARK  Name = 
DOCKED: REMARK  6 active torsions:
DOCKED: REMARK  status: ('A' for Active; 'I' for Inactive)
DOCKED: REMARK    1  A    between atoms: C_2  and  C_5
DOCKED: REMARK    2  A    between atoms: C_5  and  C_6
DOCKED: REMARK    3  A    between atoms: C_6  and  C_7
DOCKED: REMARK    4  A    between atoms: C_7  and  C_8
DOCKED: REMARK    5  A    between atoms: C_8  and  C_9
DOCKED: REMARK    6  A    between atoms: C_9  and  N_10
DOCKED: REMARK                            x       y       z     vdW  Elec       q    Type
DOCKED: REMARK                         _______ _______ _______ _____ _____    ______ ____
DOCKED: USER                              x       y       z     vdW  Elec       q    Type
DOCKED: USER                           _______ _______ _______ _____ _____    ______ ____
DOCKED: ROOT
DOCKED: ATOM      1  N   UNL     1      16.516 -11.520  -1.179 -0.26 -0.00    +0.000 N 
DOCKED: ATOM      2  C   UNL     1      17.425 -10.721  -1.958 -0.20 -0.00    +0.000 C 
DOCKED: ATOM      3  C   UNL     1      18.818 -10.520  -1.496 -0.32 -0.00    +0.000 A 
DOCKED: ATOM      4  C   UNL     1      19.724  -9.767  -2.264 -0.28 -0.00    +0.000 A 
DOCKED: ATOM      5  C   UNL     1      21.037  -9.577  -1.829 -0.53 -0.00    +0.000 A 
DOCKED: ATOM      6  C   UNL     1      21.466 -10.132  -0.624 -0.61 -0.00    +0.000 A 
DOCKED: ATOM      7  C   UNL     1      20.581 -10.886   0.161 -0.60 -0.00    +0.000 A 
DOCKED: ATOM      8  C   UNL     1      21.012 -11.443   1.373 -0.50 -0.00    +0.000 A 
DOCKED: ATOM      9  C   UNL     1      20.132 -12.190   2.155 -0.62 -0.00    +0.000 A 
DOCKED: ATOM     10  C   UNL     1      18.815 -12.392   1.737 -0.43 -0.00    +0.000 A 
DOCKED: ATOM     11  C   UNL     1      18.359 -11.845   0.524 -0.49 -0.00    +0.000 A 
DOCKED: ATOM     12  C   UNL     1      19.245 -11.086  -0.274 -0.47 -0.00    +0.000 A 
DOCKED: ATOM     13  O   UNL     1      17.036 -10.189  -3.035 -0.29 -0.00    +0.000 OA
DOCKED: ATOM     14  C   UNL     1      16.962 -12.059   0.081 -0.49 +0.00    +0.000 C 
DOCKED: ATOM     15  O   UNL     1      16.163 -12.710   0.809 -1.07 +0.00    +0.000 OA
DOCKED: ENDROOT
DOCKED: BRANCH   1  16
DOCKED: ATOM     16  C   UNL     1      15.122 -11.696  -1.610 -0.32 +0.00    +0.000 C 
DOCKED: BRANCH  16  17
DOCKED: ATOM     17  C   UNL     1      14.294 -10.462  -1.240 -0.29 -0.00    +0.000 C 
DOCKED: BRANCH  17  18
DOCKED: ATOM     18  C   UNL     1      14.536 -10.051   0.217 -0.27 +0.00    +0.000 C 
DOCKED: BRANCH  18  19
DOCKED: ATOM     19  C   UNL     1      13.323 -10.396   1.094 -0.28 +0.00    +0.000 C 
DOCKED: BRANCH  19  20
DOCKED: ATOM     20  C   UNL     1      13.648 -11.471   2.140 -0.43 +0.00    +0.000 C 
DOCKED: BRANCH  20  22
DOCKED: ATOM     21  O   UNL     1      14.223 -10.269   4.124 -0.45 +0.00    +0.000 OA
DOCKED: ATOM     22  C   UNL     1      14.629 -10.974   3.162 -0.46 +0.00    +0.000 C 
DOCKED: ATOM     23  N   UNL     1      16.012 -11.324   3.067 -0.48 +0.00    +0.000 N 
DOCKED: ATOM     24  O   UNL     1      16.894 -10.891   3.998 -0.56 +0.00    +0.000 OA
DOCKED: ATOM     25  H   UNL     1      16.325 -11.885   2.321 -0.02 +0.00    +0.000 HD
DOCKED: ENDBRANCH  20  22
DOCKED: ENDBRANCH  19  20
DOCKED: ENDBRANCH  18  19
DOCKED: ENDBRANCH  17  18
DOCKED: ENDBRANCH  16  17
DOCKED: ENDBRANCH   1  16
DOCKED: TORSDOF 6
DOCKED: TER
DOCKED: ENDMDL
________________________________________________________________________________


	BEGINNING GENETIC ALGORITHM DOCKING 46 of 100
Run: 46 Seed: 670050346 2132913478 [ Run 46 of 100 GA/GALS ]
Beginning LAMARCKIAN GENETIC ALGORITHM (LGA), with a maximum of 2500000 energy evaluations.

Final-Value: -12.890


	FINAL GENETIC ALGORITHM DOCKED STATE
	_______________________________________________


Detailed state:  trans 15.072 -11.272 0.862 quatxyzw -0.534968 0.070500 -0.830255 -0.139700 center -0.023 0.069 -0.054 ntor 6 -112.0987 -146.4654 128.5395 77.0775 -147.8296 -16.3780
State:	 15.072 -11.272   0.862  -0.540  0.071 -0.838 -163.939   -112.10 -146.47  128.54   77.08 -147.83  -16.38

DOCKED: MODEL       46
DOCKED: USER    Run = 46
DOCKED: USER    DPF = ligand_dock.biased.dpf
DOCKED: USER  
DOCKED: USER    Estimated Free Energy of Binding    =   -8.72 kcal/mol  [=(1)+(2)+(3)-(4)]
DOCKED: USER    Estimated Inhibition Constant, Ki   =  408.44 nM (nanomolar)  [Temperature = 298.15 K]
DOCKED: USER    
DOCKED: USER    (1) Final Intermolecular Energy     =  -10.51 kcal/mol
DOCKED: USER        vdW + Hbond + desolv Energy     =  -10.51 kcal/mol
DOCKED: USER        Electrostatic Energy            =   +0.00 kcal/mol
DOCKED: USER    (2) Final Total Internal Energy     =   -2.38 kcal/mol
DOCKED: USER    (3) Torsional Free Energy           =   +1.79 kcal/mol
DOCKED: USER    (4) Unbound System's Energy  [=(2)] =   -2.38 kcal/mol
DOCKED: USER    
DOCKED: USER    
DOCKED: USER    NEWDPF move ligand.pdbqt
DOCKED: USER    NEWDPF about -0.023000 0.069000 -0.054000
DOCKED: USER    NEWDPF tran0 15.071790 -11.271740 0.862433
DOCKED: USER    NEWDPF quaternion0 -0.534968 0.070500 -0.830255 -0.139700
DOCKED: USER    NEWDPF axisangle0 -0.540266 0.071198 -0.838477 -163.939021
DOCKED: USER    NEWDPF quat0 -0.540266 0.071198 -0.838477 -163.939021
DOCKED: USER    NEWDPF dihe0 -112.10 -146.47 128.54 77.08 -147.83 -16.38 
DOCKED: USER  keepresnum = 1 
DOCKED: USER  
DOCKED: REMARK  Name = 
DOCKED: REMARK  6 active torsions:
DOCKED: REMARK  status: ('A' for Active; 'I' for Inactive)
DOCKED: REMARK    1  A    between atoms: C_2  and  C_5
DOCKED: REMARK    2  A    between atoms: C_5  and  C_6
DOCKED: REMARK    3  A    between atoms: C_6  and  C_7
DOCKED: REMARK    4  A    between atoms: C_7  and  C_8
DOCKED: REMARK    5  A    between atoms: C_8  and  C_9
DOCKED: REMARK    6  A    between atoms: C_9  and  N_10
DOCKED: REMARK                            x       y       z     vdW  Elec       q    Type
DOCKED: REMARK                         _______ _______ _______ _____ _____    ______ ____
DOCKED: USER                              x       y       z     vdW  Elec       q    Type
DOCKED: USER                           _______ _______ _______ _____ _____    ______ ____
DOCKED: ROOT
DOCKED: ATOM      1  N   UNL     1      15.337 -11.758   0.129 -0.37 +0.00    +0.000 N 
DOCKED: ATOM      2  C   UNL     1      14.659 -10.783  -0.685 -0.32 +0.00    +0.000 C 
DOCKED: ATOM      3  C   UNL     1      15.376 -10.120  -1.799 -0.25 -0.00    +0.000 A 
DOCKED: ATOM      4  C   UNL     1      14.716  -9.189  -2.620 -0.19 -0.00    +0.000 A 
DOCKED: ATOM      5  C   UNL     1      15.391  -8.564  -3.669 -0.16 -0.00    +0.000 A 
DOCKED: ATOM      6  C   UNL     1      16.732  -8.856  -3.916 -0.14 -0.00    +0.000 A 
DOCKED: ATOM      7  C   UNL     1      17.414  -9.780  -3.111 -0.16 -0.00    +0.000 A 
DOCKED: ATOM      8  C   UNL     1      18.762 -10.071  -3.358 -0.29 -0.00    +0.000 A 
DOCKED: ATOM      9  C   UNL     1      19.441 -10.988  -2.555 -0.36 -0.00    +0.000 A 
DOCKED: ATOM     10  C   UNL     1      18.783 -11.624  -1.501 -0.22 -0.00    +0.000 A 
DOCKED: ATOM     11  C   UNL     1      17.430 -11.350  -1.234 -0.17 -0.00    +0.000 A 
DOCKED: ATOM     12  C   UNL     1      16.736 -10.421  -2.042 -0.21 -0.00    +0.000 A 
DOCKED: ATOM     13  O   UNL     1      13.454 -10.490  -0.449 -0.26 +0.00    +0.000 OA
DOCKED: ATOM     14  C   UNL     1      16.732 -12.024  -0.115 -0.48 +0.00    +0.000 C 
DOCKED: ATOM     15  O   UNL     1      17.362 -12.829   0.625 -0.98 +0.00    +0.000 OA
DOCKED: ENDROOT
DOCKED: BRANCH   1  16
DOCKED: ATOM     16  C   UNL     1      14.646 -12.395   1.259 -0.45 +0.00    +0.000 C 
DOCKED: BRANCH  16  17
DOCKED: ATOM     17  C   UNL     1      15.129 -11.791   2.582 -0.51 +0.00    +0.000 C 
DOCKED: BRANCH  17  18
DOCKED: ATOM     18  C   UNL     1      15.502 -10.315   2.412 -0.41 +0.00    +0.000 C 
DOCKED: BRANCH  18  19
DOCKED: ATOM     19  C   UNL     1      17.026 -10.137   2.343 -0.46 +0.00    +0.000 C 
DOCKED: BRANCH  19  20
DOCKED: ATOM     20  C   UNL     1      17.750 -10.890   3.467 -0.28 +0.00    +0.000 C 
DOCKED: BRANCH  20  22
DOCKED: ATOM     21  O   UNL     1      19.892 -11.877   3.859 -1.27 -0.00    +0.000 OA
DOCKED: ATOM     22  C   UNL     1      19.071 -11.439   3.009 -0.59 -0.00    +0.000 C 
DOCKED: ATOM     23  N   UNL     1      19.386 -11.497   1.616 -0.58 -0.00    +0.000 N 
DOCKED: ATOM     24  O   UNL     1      20.569 -12.008   1.202 -1.39 -0.00    +0.000 OA
DOCKED: ATOM     25  H   UNL     1      18.738 -11.166   0.953 -0.00 -0.00    +0.000 HD
DOCKED: ENDBRANCH  20  22
DOCKED: ENDBRANCH  19  20
DOCKED: ENDBRANCH  18  19
DOCKED: ENDBRANCH  17  18
DOCKED: ENDBRANCH  16  17
DOCKED: ENDBRANCH   1  16
DOCKED: TORSDOF 6
DOCKED: TER
DOCKED: ENDMDL
________________________________________________________________________________


	BEGINNING GENETIC ALGORITHM DOCKING 47 of 100
Run: 47 Seed: 1089156834 880966798 [ Run 47 of 100 GA/GALS ]
Beginning LAMARCKIAN GENETIC ALGORITHM (LGA), with a maximum of 2500000 energy evaluations.

Final-Value: -12.575


	FINAL GENETIC ALGORITHM DOCKED STATE
	_______________________________________________


Detailed state:  trans 20.236 -10.424 -5.130 quatxyzw 0.563843 0.095603 0.820227 0.013011 center -0.023 0.069 -0.054 ntor 6 128.3558 -87.7002 17.1360 79.7842 71.4886 -6.6011
State:	 20.236 -10.424  -5.130   0.564  0.096  0.820 178.509    128.36  -87.70   17.14   79.78   71.49   -6.60

DOCKED: MODEL       47
DOCKED: USER    Run = 47
DOCKED: USER    DPF = ligand_dock.biased.dpf
DOCKED: USER  
DOCKED: USER    Estimated Free Energy of Binding    =  -10.12 kcal/mol  [=(1)+(2)+(3)-(4)]
DOCKED: USER    Estimated Inhibition Constant, Ki   =   38.44 nM (nanomolar)  [Temperature = 298.15 K]
DOCKED: USER    
DOCKED: USER    (1) Final Intermolecular Energy     =  -11.91 kcal/mol
DOCKED: USER        vdW + Hbond + desolv Energy     =  -11.91 kcal/mol
DOCKED: USER        Electrostatic Energy            =   +0.00 kcal/mol
DOCKED: USER    (2) Final Total Internal Energy     =   -0.67 kcal/mol
DOCKED: USER    (3) Torsional Free Energy           =   +1.79 kcal/mol
DOCKED: USER    (4) Unbound System's Energy  [=(2)] =   -0.67 kcal/mol
DOCKED: USER    
DOCKED: USER    
DOCKED: USER    NEWDPF move ligand.pdbqt
DOCKED: USER    NEWDPF about -0.023000 0.069000 -0.054000
DOCKED: USER    NEWDPF tran0 20.236032 -10.424277 -5.129899
DOCKED: USER    NEWDPF quaternion0 0.563843 0.095603 0.820227 0.013011
DOCKED: USER    NEWDPF axisangle0 0.563890 0.095611 0.820296 178.509037
DOCKED: USER    NEWDPF quat0 0.563890 0.095611 0.820296 178.509037
DOCKED: USER    NEWDPF dihe0 128.36 -87.70 17.14 79.78 71.49 -6.60 
DOCKED: USER  keepresnum = 1 
DOCKED: USER  
DOCKED: REMARK  Name = 
DOCKED: REMARK  6 active torsions:
DOCKED: REMARK  status: ('A' for Active; 'I' for Inactive)
DOCKED: REMARK    1  A    between atoms: C_2  and  C_5
DOCKED: REMARK    2  A    between atoms: C_5  and  C_6
DOCKED: REMARK    3  A    between atoms: C_6  and  C_7
DOCKED: REMARK    4  A    between atoms: C_7  and  C_8
DOCKED: REMARK    5  A    between atoms: C_8  and  C_9
DOCKED: REMARK    6  A    between atoms: C_9  and  N_10
DOCKED: REMARK                            x       y       z     vdW  Elec       q    Type
DOCKED: REMARK                         _______ _______ _______ _____ _____    ______ ____
DOCKED: USER                              x       y       z     vdW  Elec       q    Type
DOCKED: USER                           _______ _______ _______ _____ _____    ______ ____
DOCKED: ROOT
DOCKED: ATOM      1  N   UNL     1      20.467 -11.176  -5.607 -0.42 -0.00    +0.000 N 
DOCKED: ATOM      2  C   UNL     1      19.779 -10.597  -6.731 -0.32 -0.00    +0.000 C 
DOCKED: ATOM      3  C   UNL     1      20.469 -10.470  -8.036 -0.23 -0.00    +0.000 A 
DOCKED: ATOM      4  C   UNL     1      19.799  -9.935  -9.150 -0.14 -0.00    +0.000 A 
DOCKED: ATOM      5  C   UNL     1      20.449  -9.815 -10.379 -0.11 -0.00    +0.000 A 
DOCKED: ATOM      6  C   UNL     1      21.774 -10.224 -10.517 -0.11 -0.00    +0.000 A 
DOCKED: ATOM      7  C   UNL     1      22.466 -10.760  -9.421 -0.19 -0.00    +0.000 A 
DOCKED: ATOM      8  C   UNL     1      23.799 -11.169  -9.560 -0.20 -0.00    +0.000 A 
DOCKED: ATOM      9  C   UNL     1      24.488 -11.699  -8.469 -0.40 -0.00    +0.000 A 
DOCKED: ATOM     10  C   UNL     1      23.855 -11.828  -7.231 -0.40 -0.00    +0.000 A 
DOCKED: ATOM     11  C   UNL     1      22.518 -11.426  -7.067 -0.38 -0.00    +0.000 A 
DOCKED: ATOM     12  C   UNL     1      21.813 -10.887  -8.167 -0.26 -0.00    +0.000 A 
DOCKED: ATOM     13  O   UNL     1      18.589 -10.196  -6.607 -0.24 -0.00    +0.000 OA
DOCKED: ATOM     14  C   UNL     1      21.847 -11.562  -5.754 -0.52 -0.00    +0.000 C 
DOCKED: ATOM     15  O   UNL     1      22.487 -12.014  -4.764 -0.50 -0.00    +0.000 OA
DOCKED: ENDROOT
DOCKED: BRANCH   1  16
DOCKED: ATOM     16  C   UNL     1      19.804 -11.274  -4.298 -0.50 -0.00    +0.000 C 
DOCKED: BRANCH  16  17
DOCKED: ATOM     17  C   UNL     1      20.158 -10.060  -3.434 -0.44 -0.00    +0.000 C 
DOCKED: BRANCH  17  18
DOCKED: ATOM     18  C   UNL     1      21.101 -10.453  -2.290 -0.57 -0.00    +0.000 C 
DOCKED: BRANCH  18  19
DOCKED: ATOM     19  C   UNL     1      20.327 -10.624  -0.975 -0.57 -0.00    +0.000 C 
DOCKED: BRANCH  19  20
DOCKED: ATOM     20  C   UNL     1      21.239 -10.521   0.255 -0.66 -0.00    +0.000 C 
DOCKED: BRANCH  20  22
DOCKED: ATOM     21  O   UNL     1      20.203 -12.395   1.316 -1.58 -0.00    +0.000 OA
DOCKED: ATOM     22  C   UNL     1      20.653 -11.225   1.445 -0.73 -0.00    +0.000 C 
DOCKED: ATOM     23  N   UNL     1      20.633 -10.589   2.724 -0.62 -0.00    +0.000 N 
DOCKED: ATOM     24  O   UNL     1      20.119 -11.230   3.800 -1.22 -0.00    +0.000 OA
DOCKED: ATOM     25  H   UNL     1      20.995  -9.679   2.825 -0.60 -0.00    +0.000 HD
DOCKED: ENDBRANCH  20  22
DOCKED: ENDBRANCH  19  20
DOCKED: ENDBRANCH  18  19
DOCKED: ENDBRANCH  17  18
DOCKED: ENDBRANCH  16  17
DOCKED: ENDBRANCH   1  16
DOCKED: TORSDOF 6
DOCKED: TER
DOCKED: ENDMDL
________________________________________________________________________________


	BEGINNING GENETIC ALGORITHM DOCKING 48 of 100
Run: 48 Seed: 1795440547 1350099537 [ Run 48 of 100 GA/GALS ]
Beginning LAMARCKIAN GENETIC ALGORITHM (LGA), with a maximum of 2500000 energy evaluations.

Final-Value: -12.645


	FINAL GENETIC ALGORITHM DOCKED STATE
	_______________________________________________


Detailed state:  trans 15.227 -11.921 2.406 quatxyzw -0.170043 0.947007 -0.245524 0.118246 center -0.023 0.069 -0.054 ntor 6 124.7521 -127.7791 -75.2918 -2.7325 -138.9857 146.6548
State:	 15.227 -11.921   2.406  -0.171  0.954 -0.247 166.418    124.75 -127.78  -75.29   -2.73 -138.99  146.65

DOCKED: MODEL       48
DOCKED: USER    Run = 48
DOCKED: USER    DPF = ligand_dock.biased.dpf
DOCKED: USER  
DOCKED: USER    Estimated Free Energy of Binding    =   -9.96 kcal/mol  [=(1)+(2)+(3)-(4)]
DOCKED: USER    Estimated Inhibition Constant, Ki   =   49.83 nM (nanomolar)  [Temperature = 298.15 K]
DOCKED: USER    
DOCKED: USER    (1) Final Intermolecular Energy     =  -11.75 kcal/mol
DOCKED: USER        vdW + Hbond + desolv Energy     =  -11.75 kcal/mol
DOCKED: USER        Electrostatic Energy            =   +0.00 kcal/mol
DOCKED: USER    (2) Final Total Internal Energy     =   -0.89 kcal/mol
DOCKED: USER    (3) Torsional Free Energy           =   +1.79 kcal/mol
DOCKED: USER    (4) Unbound System's Energy  [=(2)] =   -0.89 kcal/mol
DOCKED: USER    
DOCKED: USER    
DOCKED: USER    NEWDPF move ligand.pdbqt
DOCKED: USER    NEWDPF about -0.023000 0.069000 -0.054000
DOCKED: USER    NEWDPF tran0 15.227023 -11.921137 2.406345
DOCKED: USER    NEWDPF quaternion0 -0.170043 0.947007 -0.245524 0.118246
DOCKED: USER    NEWDPF axisangle0 -0.171244 0.953697 -0.247258 166.418251
DOCKED: USER    NEWDPF quat0 -0.171244 0.953697 -0.247258 166.418251
DOCKED: USER    NEWDPF dihe0 124.75 -127.78 -75.29 -2.73 -138.99 146.65 
DOCKED: USER  keepresnum = 1 
DOCKED: USER  
DOCKED: REMARK  Name = 
DOCKED: REMARK  6 active torsions:
DOCKED: REMARK  status: ('A' for Active; 'I' for Inactive)
DOCKED: REMARK    1  A    between atoms: C_2  and  C_5
DOCKED: REMARK    2  A    between atoms: C_5  and  C_6
DOCKED: REMARK    3  A    between atoms: C_6  and  C_7
DOCKED: REMARK    4  A    between atoms: C_7  and  C_8
DOCKED: REMARK    5  A    between atoms: C_8  and  C_9
DOCKED: REMARK    6  A    between atoms: C_9  and  N_10
DOCKED: REMARK                            x       y       z     vdW  Elec       q    Type
DOCKED: REMARK                         _______ _______ _______ _____ _____    ______ ____
DOCKED: USER                              x       y       z     vdW  Elec       q    Type
DOCKED: USER                           _______ _______ _______ _____ _____    ______ ____
DOCKED: ROOT
DOCKED: ATOM      1  N   UNL     1      15.513 -11.149   1.996 -0.38 +0.00    +0.000 N 
DOCKED: ATOM      2  C   UNL     1      16.632 -11.157   2.902 -0.43 +0.00    +0.000 C 
DOCKED: ATOM      3  C   UNL     1      18.013 -11.061   2.373 -0.45 +0.00    +0.000 A 
DOCKED: ATOM      4  C   UNL     1      19.113 -11.036   3.249 -0.55 -0.00    +0.000 A 
DOCKED: ATOM      5  C   UNL     1      20.414 -10.946   2.751 -0.59 -0.00    +0.000 A 
DOCKED: ATOM      6  C   UNL     1      20.639 -10.879   1.377 -0.62 -0.00    +0.000 A 
DOCKED: ATOM      7  C   UNL     1      19.559 -10.903   0.483 -0.53 -0.00    +0.000 A 
DOCKED: ATOM      8  C   UNL     1      19.785 -10.838  -0.899 -0.46 -0.00    +0.000 A 
DOCKED: ATOM      9  C   UNL     1      18.711 -10.865  -1.789 -0.36 -0.00    +0.000 A 
DOCKED: ATOM     10  C   UNL     1      17.403 -10.955  -1.311 -0.26 -0.00    +0.000 A 
DOCKED: ATOM     11  C   UNL     1      17.149 -11.020   0.071 -0.34 -0.00    +0.000 A 
DOCKED: ATOM     12  C   UNL     1      18.232 -10.994   0.979 -0.43 -0.00    +0.000 A 
DOCKED: ATOM     13  O   UNL     1      16.439 -11.249   4.146 -0.62 +0.00    +0.000 OA
DOCKED: ATOM     14  C   UNL     1      15.761 -11.115   0.578 -0.37 +0.00    +0.000 C 
DOCKED: ATOM     15  O   UNL     1      14.797 -11.170  -0.235 -0.32 +0.00    +0.000 OA
DOCKED: ENDROOT
DOCKED: BRANCH   1  16
DOCKED: ATOM     16  C   UNL     1      14.141 -11.281   2.507 -0.45 +0.00    +0.000 C 
DOCKED: BRANCH  16  17
DOCKED: ATOM     17  C   UNL     1      13.830 -10.145   3.487 -0.35 +0.00    +0.000 C 
DOCKED: BRANCH  17  18
DOCKED: ATOM     18  C   UNL     1      14.396  -8.812   2.986 -0.31 +0.00    +0.000 C 
DOCKED: BRANCH  18  19
DOCKED: ATOM     19  C   UNL     1      14.031  -7.666   3.941 -0.30 +0.00    +0.000 C 
DOCKED: BRANCH  19  20
DOCKED: ATOM     20  C   UNL     1      15.240  -7.170   4.745 -0.44 +0.00    +0.000 C 
DOCKED: BRANCH  20  22
DOCKED: ATOM     21  O   UNL     1      13.884  -5.606   5.939 -1.04 +0.00    +0.000 OA
DOCKED: ATOM     22  C   UNL     1      14.984  -5.827   5.366 -0.45 +0.00    +0.000 C 
DOCKED: ATOM     23  N   UNL     1      15.991  -4.813   5.338 -0.45 -0.00    +0.000 N 
DOCKED: ATOM     24  O   UNL     1      15.767  -3.609   5.912 -0.64 +0.00    +0.000 OA
DOCKED: ATOM     25  H   UNL     1      16.854  -4.992   4.899 -0.60 -0.00    +0.000 HD
DOCKED: ENDBRANCH  20  22
DOCKED: ENDBRANCH  19  20
DOCKED: ENDBRANCH  18  19
DOCKED: ENDBRANCH  17  18
DOCKED: ENDBRANCH  16  17
DOCKED: ENDBRANCH   1  16
DOCKED: TORSDOF 6
DOCKED: TER
DOCKED: ENDMDL
________________________________________________________________________________


	BEGINNING GENETIC ALGORITHM DOCKING 49 of 100
Run: 49 Seed: 1007406590 2146620510 [ Run 49 of 100 GA/GALS ]
Beginning LAMARCKIAN GENETIC ALGORITHM (LGA), with a maximum of 2500000 energy evaluations.

Final-Value: -12.824


	FINAL GENETIC ALGORITHM DOCKED STATE
	_______________________________________________


Detailed state:  trans 13.861 -11.805 0.463 quatxyzw -0.215953 0.025228 0.757219 0.615911 center -0.023 0.069 -0.054 ntor 6 166.9191 -90.0810 -39.7836 -95.2236 171.3465 174.9809
State:	 13.861 -11.805   0.463  -0.274  0.032  0.961 103.964    166.92  -90.08  -39.78  -95.22  171.35  174.98

DOCKED: MODEL       49
DOCKED: USER    Run = 49
DOCKED: USER    DPF = ligand_dock.biased.dpf
DOCKED: USER  
DOCKED: USER    Estimated Free Energy of Binding    =   -9.86 kcal/mol  [=(1)+(2)+(3)-(4)]
DOCKED: USER    Estimated Inhibition Constant, Ki   =   59.43 nM (nanomolar)  [Temperature = 298.15 K]
DOCKED: USER    
DOCKED: USER    (1) Final Intermolecular Energy     =  -11.65 kcal/mol
DOCKED: USER        vdW + Hbond + desolv Energy     =  -11.65 kcal/mol
DOCKED: USER        Electrostatic Energy            =   +0.00 kcal/mol
DOCKED: USER    (2) Final Total Internal Energy     =   -1.18 kcal/mol
DOCKED: USER    (3) Torsional Free Energy           =   +1.79 kcal/mol
DOCKED: USER    (4) Unbound System's Energy  [=(2)] =   -1.18 kcal/mol
DOCKED: USER    
DOCKED: USER    
DOCKED: USER    NEWDPF move ligand.pdbqt
DOCKED: USER    NEWDPF about -0.023000 0.069000 -0.054000
DOCKED: USER    NEWDPF tran0 13.860815 -11.805353 0.462549
DOCKED: USER    NEWDPF quaternion0 -0.215953 0.025228 0.757219 0.615911
DOCKED: USER    NEWDPF axisangle0 -0.274116 0.032023 0.961163 103.963655
DOCKED: USER    NEWDPF quat0 -0.274116 0.032023 0.961163 103.963655
DOCKED: USER    NEWDPF dihe0 166.92 -90.08 -39.78 -95.22 171.35 174.98 
DOCKED: USER  keepresnum = 1 
DOCKED: USER  
DOCKED: REMARK  Name = 
DOCKED: REMARK  6 active torsions:
DOCKED: REMARK  status: ('A' for Active; 'I' for Inactive)
DOCKED: REMARK    1  A    between atoms: C_2  and  C_5
DOCKED: REMARK    2  A    between atoms: C_5  and  C_6
DOCKED: REMARK    3  A    between atoms: C_6  and  C_7
DOCKED: REMARK    4  A    between atoms: C_7  and  C_8
DOCKED: REMARK    5  A    between atoms: C_8  and  C_9
DOCKED: REMARK    6  A    between atoms: C_9  and  N_10
DOCKED: REMARK                            x       y       z     vdW  Elec       q    Type
DOCKED: REMARK                         _______ _______ _______ _____ _____    ______ ____
DOCKED: USER                              x       y       z     vdW  Elec       q    Type
DOCKED: USER                           _______ _______ _______ _____ _____    ______ ____
DOCKED: ROOT
DOCKED: ATOM      1  N   UNL     1      14.623 -11.397   0.777 -0.34 +0.00    +0.000 N 
DOCKED: ATOM      2  C   UNL     1      14.310 -10.289  -0.088 -0.27 +0.00    +0.000 C 
DOCKED: ATOM      3  C   UNL     1      14.247  -8.915   0.461 -0.21 +0.00    +0.000 A 
DOCKED: ATOM      4  C   UNL     1      13.974  -7.822  -0.379 -0.20 -0.00    +0.000 A 
DOCKED: ATOM      5  C   UNL     1      13.914  -6.527   0.138 -0.18 -0.00    +0.000 A 
DOCKED: ATOM      6  C   UNL     1      14.123  -6.302   1.498 -0.19 -0.00    +0.000 A 
DOCKED: ATOM      7  C   UNL     1      14.396  -7.376   2.358 -0.23 +0.00    +0.000 A 
DOCKED: ATOM      8  C   UNL     1      14.605  -7.150   3.725 -0.30 +0.00    +0.000 A 
DOCKED: ATOM      9  C   UNL     1      14.873  -8.218   4.581 -0.30 +0.00    +0.000 A 
DOCKED: ATOM     10  C   UNL     1      14.938  -9.520   4.082 -0.38 +0.00    +0.000 A 
DOCKED: ATOM     11  C   UNL     1      14.734  -9.773   2.714 -0.31 +0.00    +0.000 A 
DOCKED: ATOM     12  C   UNL     1      14.461  -8.696   1.841 -0.23 +0.00    +0.000 A 
DOCKED: ATOM     13  O   UNL     1      14.089 -10.488  -1.315 -0.27 -0.00    +0.000 OA
DOCKED: ATOM     14  C   UNL     1      14.802 -11.155   2.186 -0.45 +0.00    +0.000 C 
DOCKED: ATOM     15  O   UNL     1      15.015 -12.120   2.972 -0.60 +0.00    +0.000 OA
DOCKED: ENDROOT
DOCKED: BRANCH   1  16
DOCKED: ATOM     16  C   UNL     1      14.652 -12.769   0.249 -0.49 +0.00    +0.000 C 
DOCKED: BRANCH  16  17
DOCKED: ATOM     17  C   UNL     1      16.042 -13.091  -0.309 -0.52 +0.00    +0.000 C 
DOCKED: BRANCH  17  18
DOCKED: ATOM     18  C   UNL     1      16.923 -11.838  -0.355 -0.44 +0.00    +0.000 C 
DOCKED: BRANCH  18  19
DOCKED: ATOM     19  C   UNL     1      17.613 -11.602   0.997 -0.51 +0.00    +0.000 C 
DOCKED: BRANCH  19  20
DOCKED: ATOM     20  C   UNL     1      19.037 -11.053   0.836 -0.57 -0.00    +0.000 C 
DOCKED: BRANCH  20  22
DOCKED: ATOM     21  O   UNL     1      20.491 -12.393   2.178 -1.86 -0.00    +0.000 OA
DOCKED: ATOM     22  C   UNL     1      19.872 -11.302   2.058 -0.73 -0.00    +0.000 C 
DOCKED: ATOM     23  N   UNL     1      19.994 -10.297   3.068 -0.61 -0.00    +0.000 N 
DOCKED: ATOM     24  O   UNL     1      20.760 -10.515   4.162 -0.93 -0.00    +0.000 OA
DOCKED: ATOM     25  H   UNL     1      19.519  -9.441   2.967 -0.54 -0.00    +0.000 HD
DOCKED: ENDBRANCH  20  22
DOCKED: ENDBRANCH  19  20
DOCKED: ENDBRANCH  18  19
DOCKED: ENDBRANCH  17  18
DOCKED: ENDBRANCH  16  17
DOCKED: ENDBRANCH   1  16
DOCKED: TORSDOF 6
DOCKED: TER
DOCKED: ENDMDL
________________________________________________________________________________


	BEGINNING GENETIC ALGORITHM DOCKING 50 of 100
Run: 50 Seed: 212942062 489365430 [ Run 50 of 100 GA/GALS ]
Beginning LAMARCKIAN GENETIC ALGORITHM (LGA), with a maximum of 2500000 energy evaluations.

Final-Value: -12.214


	FINAL GENETIC ALGORITHM DOCKED STATE
	_______________________________________________


Detailed state:  trans 20.857 -9.897 -1.754 quatxyzw -0.821201 -0.018219 0.482294 -0.304448 center -0.023 0.069 -0.054 ntor 6 175.3185 -160.5624 104.6108 -75.1626 1.6171 -30.3358
State:	 20.857  -9.897  -1.754  -0.862 -0.019  0.506 -144.550    175.32 -160.56  104.61  -75.16    1.62  -30.34

DOCKED: MODEL       50
DOCKED: USER    Run = 50
DOCKED: USER    DPF = ligand_dock.biased.dpf
DOCKED: USER  
DOCKED: USER    Estimated Free Energy of Binding    =   -8.66 kcal/mol  [=(1)+(2)+(3)-(4)]
DOCKED: USER    Estimated Inhibition Constant, Ki   =  447.23 nM (nanomolar)  [Temperature = 298.15 K]
DOCKED: USER    
DOCKED: USER    (1) Final Intermolecular Energy     =  -10.45 kcal/mol
DOCKED: USER        vdW + Hbond + desolv Energy     =  -10.45 kcal/mol
DOCKED: USER        Electrostatic Energy            =   +0.00 kcal/mol
DOCKED: USER    (2) Final Total Internal Energy     =   -1.76 kcal/mol
DOCKED: USER    (3) Torsional Free Energy           =   +1.79 kcal/mol
DOCKED: USER    (4) Unbound System's Energy  [=(2)] =   -1.76 kcal/mol
DOCKED: USER    
DOCKED: USER    
DOCKED: USER    NEWDPF move ligand.pdbqt
DOCKED: USER    NEWDPF about -0.023000 0.069000 -0.054000
DOCKED: USER    NEWDPF tran0 20.856978 -9.896541 -1.753539
DOCKED: USER    NEWDPF quaternion0 -0.821201 -0.018219 0.482294 -0.304448
DOCKED: USER    NEWDPF axisangle0 -0.862128 -0.019127 0.506330 -144.550028
DOCKED: USER    NEWDPF quat0 -0.862128 -0.019127 0.506330 -144.550028
DOCKED: USER    NEWDPF dihe0 175.32 -160.56 104.61 -75.16 1.62 -30.34 
DOCKED: USER  keepresnum = 1 
DOCKED: USER  
DOCKED: REMARK  Name = 
DOCKED: REMARK  6 active torsions:
DOCKED: REMARK  status: ('A' for Active; 'I' for Inactive)
DOCKED: REMARK    1  A    between atoms: C_2  and  C_5
DOCKED: REMARK    2  A    between atoms: C_5  and  C_6
DOCKED: REMARK    3  A    between atoms: C_6  and  C_7
DOCKED: REMARK    4  A    between atoms: C_7  and  C_8
DOCKED: REMARK    5  A    between atoms: C_8  and  C_9
DOCKED: REMARK    6  A    between atoms: C_9  and  N_10
DOCKED: REMARK                            x       y       z     vdW  Elec       q    Type
DOCKED: REMARK                         _______ _______ _______ _____ _____    ______ ____
DOCKED: USER                              x       y       z     vdW  Elec       q    Type
DOCKED: USER                           _______ _______ _______ _____ _____    ______ ____
DOCKED: ROOT
DOCKED: ATOM      1  N   UNL     1      20.422 -10.697  -1.626 -0.49 -0.00    +0.000 N 
DOCKED: ATOM      2  C   UNL     1      20.983 -10.718  -0.300 -0.66 -0.00    +0.000 C 
DOCKED: ATOM      3  C   UNL     1      20.100 -10.907   0.875 -0.60 -0.00    +0.000 A 
DOCKED: ATOM      4  C   UNL     1      20.639 -10.961   2.172 -0.58 -0.00    +0.000 A 
DOCKED: ATOM      5  C   UNL     1      19.808 -11.139   3.279 -0.64 -0.00    +0.000 A 
DOCKED: ATOM      6  C   UNL     1      18.429 -11.265   3.111 -0.37 +0.00    +0.000 A 
DOCKED: ATOM      7  C   UNL     1      17.867 -11.213   1.827 -0.44 +0.00    +0.000 A 
DOCKED: ATOM      8  C   UNL     1      16.481 -11.338   1.659 -0.39 +0.00    +0.000 A 
DOCKED: ATOM      9  C   UNL     1      15.921 -11.284   0.383 -0.34 +0.00    +0.000 A 
DOCKED: ATOM     10  C   UNL     1      16.736 -11.107  -0.737 -0.31 -0.00    +0.000 A 
DOCKED: ATOM     11  C   UNL     1      18.129 -10.981  -0.595 -0.37 -0.00    +0.000 A 
DOCKED: ATOM     12  C   UNL     1      18.704 -11.034   0.696 -0.46 -0.00    +0.000 A 
DOCKED: ATOM     13  O   UNL     1      22.226 -10.573  -0.136 -0.66 -0.00    +0.000 OA
DOCKED: ATOM     14  C   UNL     1      18.993 -10.793  -1.782 -0.43 -0.00    +0.000 C 
DOCKED: ATOM     15  O   UNL     1      18.475 -10.714  -2.931 -0.36 -0.00    +0.000 OA
DOCKED: ENDROOT
DOCKED: BRANCH   1  16
DOCKED: ATOM     16  C   UNL     1      21.284 -10.473  -2.795 -0.55 -0.00    +0.000 C 
DOCKED: BRANCH  16  17
DOCKED: ATOM     17  C   UNL     1      20.870  -9.188  -3.520 -0.43 -0.00    +0.000 C 
DOCKED: BRANCH  17  18
DOCKED: ATOM     18  C   UNL     1      21.732  -8.955  -4.766 -0.33 -0.00    +0.000 C 
DOCKED: BRANCH  18  19
DOCKED: ATOM     19  C   UNL     1      20.946  -9.277  -6.045 -0.24 -0.00    +0.000 C 
DOCKED: BRANCH  19  20
DOCKED: ATOM     20  C   UNL     1      20.733 -10.785  -6.234 -0.37 -0.00    +0.000 C 
DOCKED: BRANCH  20  22
DOCKED: ATOM     21  O   UNL     1      18.929 -11.236  -7.735 -0.35 -0.00    +0.000 OA
DOCKED: ATOM     22  C   UNL     1      19.299 -11.111  -6.537 -0.32 -0.00    +0.000 C 
DOCKED: ATOM     23  N   UNL     1      18.363 -11.314  -5.476 -0.37 -0.00    +0.000 N 
DOCKED: ATOM     24  O   UNL     1      17.075 -11.625  -5.749 -0.37 -0.00    +0.000 OA
DOCKED: ATOM     25  H   UNL     1      18.657 -11.227  -4.540 -0.02 -0.00    +0.000 HD
DOCKED: ENDBRANCH  20  22
DOCKED: ENDBRANCH  19  20
DOCKED: ENDBRANCH  18  19
DOCKED: ENDBRANCH  17  18
DOCKED: ENDBRANCH  16  17
DOCKED: ENDBRANCH   1  16
DOCKED: TORSDOF 6
DOCKED: TER
DOCKED: ENDMDL
________________________________________________________________________________


	BEGINNING GENETIC ALGORITHM DOCKING 51 of 100
Run: 51 Seed: 2085326797 74622137 [ Run 51 of 100 GA/GALS ]
Beginning LAMARCKIAN GENETIC ALGORITHM (LGA), with a maximum of 2500000 energy evaluations.

Final-Value: -12.168


	FINAL GENETIC ALGORITHM DOCKED STATE
	_______________________________________________


Detailed state:  trans 20.674 -11.322 -4.030 quatxyzw -0.332247 0.363740 0.017549 0.870056 center -0.023 0.069 -0.054 ntor 6 -117.5162 -119.6217 -21.0528 167.2855 -65.4938 -174.2051
State:	 20.674 -11.322  -4.030  -0.674  0.738  0.036 59.070   -117.52 -119.62  -21.05  167.29  -65.49 -174.21

DOCKED: MODEL       51
DOCKED: USER    Run = 51
DOCKED: USER    DPF = ligand_dock.biased.dpf
DOCKED: USER  
DOCKED: USER    Estimated Free Energy of Binding    =   -8.89 kcal/mol  [=(1)+(2)+(3)-(4)]
DOCKED: USER    Estimated Inhibition Constant, Ki   =  304.46 nM (nanomolar)  [Temperature = 298.15 K]
DOCKED: USER    
DOCKED: USER    (1) Final Intermolecular Energy     =  -10.68 kcal/mol
DOCKED: USER        vdW + Hbond + desolv Energy     =  -10.68 kcal/mol
DOCKED: USER        Electrostatic Energy            =   +0.00 kcal/mol
DOCKED: USER    (2) Final Total Internal Energy     =   -1.49 kcal/mol
DOCKED: USER    (3) Torsional Free Energy           =   +1.79 kcal/mol
DOCKED: USER    (4) Unbound System's Energy  [=(2)] =   -1.49 kcal/mol
DOCKED: USER    
DOCKED: USER    
DOCKED: USER    NEWDPF move ligand.pdbqt
DOCKED: USER    NEWDPF about -0.023000 0.069000 -0.054000
DOCKED: USER    NEWDPF tran0 20.673740 -11.321577 -4.030440
DOCKED: USER    NEWDPF quaternion0 -0.332247 0.363740 0.017549 0.870056
DOCKED: USER    NEWDPF axisangle0 -0.673993 0.737880 0.035600 59.069780
DOCKED: USER    NEWDPF quat0 -0.673993 0.737880 0.035600 59.069780
DOCKED: USER    NEWDPF dihe0 -117.52 -119.62 -21.05 167.29 -65.49 -174.21 
DOCKED: USER  keepresnum = 1 
DOCKED: USER  
DOCKED: REMARK  Name = 
DOCKED: REMARK  6 active torsions:
DOCKED: REMARK  status: ('A' for Active; 'I' for Inactive)
DOCKED: REMARK    1  A    between atoms: C_2  and  C_5
DOCKED: REMARK    2  A    between atoms: C_5  and  C_6
DOCKED: REMARK    3  A    between atoms: C_6  and  C_7
DOCKED: REMARK    4  A    between atoms: C_7  and  C_8
DOCKED: REMARK    5  A    between atoms: C_8  and  C_9
DOCKED: REMARK    6  A    between atoms: C_9  and  N_10
DOCKED: REMARK                            x       y       z     vdW  Elec       q    Type
DOCKED: REMARK                         _______ _______ _______ _____ _____    ______ ____
DOCKED: USER                              x       y       z     vdW  Elec       q    Type
DOCKED: USER                           _______ _______ _______ _____ _____    ______ ____
DOCKED: ROOT
DOCKED: ATOM      1  N   UNL     1      20.144 -10.570  -4.026 -0.39 -0.00    +0.000 N 
DOCKED: ATOM      2  C   UNL     1      20.366 -10.481  -5.446 -0.39 -0.00    +0.000 C 
DOCKED: ATOM      3  C   UNL     1      19.214 -10.376  -6.370 -0.27 -0.00    +0.000 A 
DOCKED: ATOM      4  C   UNL     1      19.418 -10.257  -7.756 -0.23 -0.00    +0.000 A 
DOCKED: ATOM      5  C   UNL     1      18.333 -10.158  -8.628 -0.18 -0.00    +0.000 A 
DOCKED: ATOM      6  C   UNL     1      17.029 -10.177  -8.134 -0.17 -0.00    +0.000 A 
DOCKED: ATOM      7  C   UNL     1      16.799 -10.295  -6.756 -0.20 -0.00    +0.000 A 
DOCKED: ATOM      8  C   UNL     1      15.488 -10.316  -6.259 -0.17 -0.00    +0.000 A 
DOCKED: ATOM      9  C   UNL     1      15.258 -10.437  -4.889 -0.21 -0.00    +0.000 A 
DOCKED: ATOM     10  C   UNL     1      16.330 -10.536  -4.001 -0.15 -0.00    +0.000 A 
DOCKED: ATOM     11  C   UNL     1      17.655 -10.517  -4.474 -0.22 -0.00    +0.000 A 
DOCKED: ATOM     12  C   UNL     1      17.896 -10.395  -5.861 -0.25 -0.00    +0.000 A 
DOCKED: ATOM     13  O   UNL     1      21.542 -10.495  -5.904 -0.39 -0.00    +0.000 OA
DOCKED: ATOM     14  C   UNL     1      18.792 -10.623  -3.532 -0.35 -0.00    +0.000 C 
DOCKED: ATOM     15  O   UNL     1      18.574 -10.763  -2.296 -0.39 -0.00    +0.000 OA
DOCKED: ENDROOT
DOCKED: BRANCH   1  16
DOCKED: ATOM     16  C   UNL     1      21.278 -10.711  -3.102 -0.48 -0.00    +0.000 C 
DOCKED: BRANCH  16  17
DOCKED: ATOM     17  C   UNL     1      21.649  -9.350  -2.506 -0.36 -0.00    +0.000 C 
DOCKED: BRANCH  17  18
DOCKED: ATOM     18  C   UNL     1      21.389  -9.318  -0.996 -0.62 -0.00    +0.000 C 
DOCKED: BRANCH  18  19
DOCKED: ATOM     19  C   UNL     1      20.555 -10.531  -0.557 -0.64 -0.00    +0.000 C 
DOCKED: BRANCH  19  20
DOCKED: ATOM     20  C   UNL     1      20.641 -10.779   0.955 -0.71 -0.00    +0.000 C 
DOCKED: BRANCH  20  22
DOCKED: ATOM     21  O   UNL     1      19.835 -12.398   2.518 -1.68 -0.00    +0.000 OA
DOCKED: ATOM     22  C   UNL     1      19.672 -11.836   1.402 -0.72 -0.00    +0.000 C 
DOCKED: ATOM     23  N   UNL     1      18.552 -12.183   0.585 -0.53 -0.00    +0.000 N 
DOCKED: ATOM     24  O   UNL     1      17.670 -13.123   0.995 -0.98 +0.00    +0.000 OA
DOCKED: ATOM     25  H   UNL     1      18.420 -11.734  -0.281 -0.02 -0.00    +0.000 HD
DOCKED: ENDBRANCH  20  22
DOCKED: ENDBRANCH  19  20
DOCKED: ENDBRANCH  18  19
DOCKED: ENDBRANCH  17  18
DOCKED: ENDBRANCH  16  17
DOCKED: ENDBRANCH   1  16
DOCKED: TORSDOF 6
DOCKED: TER
DOCKED: ENDMDL
________________________________________________________________________________


	BEGINNING GENETIC ALGORITHM DOCKING 52 of 100
Run: 52 Seed: 14042240 765559646 [ Run 52 of 100 GA/GALS ]
Beginning LAMARCKIAN GENETIC ALGORITHM (LGA), with a maximum of 2500000 energy evaluations.

Final-Value: -13.401


	FINAL GENETIC ALGORITHM DOCKED STATE
	_______________________________________________


Detailed state:  trans 19.122 -12.642 1.213 quatxyzw 0.072155 -0.031579 -0.161447 -0.983733 center -0.023 0.069 -0.054 ntor 6 36.2788 -8.7720 90.4128 -70.1000 68.3690 -155.0575
State:	 19.122 -12.642   1.213   0.402 -0.176 -0.899 -20.697     36.28   -8.77   90.41  -70.10   68.37 -155.06

DOCKED: MODEL       52
DOCKED: USER    Run = 52
DOCKED: USER    DPF = ligand_dock.biased.dpf
DOCKED: USER  
DOCKED: USER    Estimated Free Energy of Binding    =   -9.56 kcal/mol  [=(1)+(2)+(3)-(4)]
DOCKED: USER    Estimated Inhibition Constant, Ki   =   98.28 nM (nanomolar)  [Temperature = 298.15 K]
DOCKED: USER    
DOCKED: USER    (1) Final Intermolecular Energy     =  -11.35 kcal/mol
DOCKED: USER        vdW + Hbond + desolv Energy     =  -11.35 kcal/mol
DOCKED: USER        Electrostatic Energy            =   +0.00 kcal/mol
DOCKED: USER    (2) Final Total Internal Energy     =   -2.05 kcal/mol
DOCKED: USER    (3) Torsional Free Energy           =   +1.79 kcal/mol
DOCKED: USER    (4) Unbound System's Energy  [=(2)] =   -2.05 kcal/mol
DOCKED: USER    
DOCKED: USER    
DOCKED: USER    NEWDPF move ligand.pdbqt
DOCKED: USER    NEWDPF about -0.023000 0.069000 -0.054000
DOCKED: USER    NEWDPF tran0 19.122126 -12.641710 1.213418
DOCKED: USER    NEWDPF quaternion0 0.072155 -0.031579 -0.161447 -0.983733
DOCKED: USER    NEWDPF axisangle0 0.401675 -0.175795 -0.898751 -20.697027
DOCKED: USER    NEWDPF quat0 0.401675 -0.175795 -0.898751 -20.697027
DOCKED: USER    NEWDPF dihe0 36.28 -8.77 90.41 -70.10 68.37 -155.06 
DOCKED: USER  keepresnum = 1 
DOCKED: USER  
DOCKED: REMARK  Name = 
DOCKED: REMARK  6 active torsions:
DOCKED: REMARK  status: ('A' for Active; 'I' for Inactive)
DOCKED: REMARK    1  A    between atoms: C_2  and  C_5
DOCKED: REMARK    2  A    between atoms: C_5  and  C_6
DOCKED: REMARK    3  A    between atoms: C_6  and  C_7
DOCKED: REMARK    4  A    between atoms: C_7  and  C_8
DOCKED: REMARK    5  A    between atoms: C_8  and  C_9
DOCKED: REMARK    6  A    between atoms: C_9  and  N_10
DOCKED: REMARK                            x       y       z     vdW  Elec       q    Type
DOCKED: REMARK                         _______ _______ _______ _____ _____    ______ ____
DOCKED: USER                              x       y       z     vdW  Elec       q    Type
DOCKED: USER                           _______ _______ _______ _____ _____    ______ ____
DOCKED: ROOT
DOCKED: ATOM      1  N   UNL     1      18.789 -11.784   1.217 -0.53 -0.00    +0.000 N 
DOCKED: ATOM      2  C   UNL     1      17.910 -12.189   0.151 -0.54 -0.00    +0.000 C 
DOCKED: ATOM      3  C   UNL     1      16.451 -11.956   0.266 -0.42 +0.00    +0.000 A 
DOCKED: ATOM      4  C   UNL     1      15.585 -12.319  -0.781 -0.36 +0.00    +0.000 A 
DOCKED: ATOM      5  C   UNL     1      14.211 -12.100  -0.673 -0.38 +0.00    +0.000 A 
DOCKED: ATOM      6  C   UNL     1      13.679 -11.519   0.477 -0.36 +0.00    +0.000 A 
DOCKED: ATOM      7  C   UNL     1      14.521 -11.150   1.536 -0.36 +0.00    +0.000 A 
DOCKED: ATOM      8  C   UNL     1      13.986 -10.568   2.693 -0.33 +0.00    +0.000 A 
DOCKED: ATOM      9  C   UNL     1      14.823 -10.204   3.748 -0.40 +0.00    +0.000 A 
DOCKED: ATOM     10  C   UNL     1      16.200 -10.414   3.659 -0.43 +0.00    +0.000 A 
DOCKED: ATOM     11  C   UNL     1      16.762 -10.995   2.508 -0.41 +0.00    +0.000 A 
DOCKED: ATOM     12  C   UNL     1      15.920 -11.367   1.436 -0.37 +0.00    +0.000 A 
DOCKED: ATOM     13  O   UNL     1      18.379 -12.744  -0.880 -0.48 -0.00    +0.000 OA
DOCKED: ATOM     14  C   UNL     1      18.223 -11.218   2.414 -0.53 +0.00    +0.000 C 
DOCKED: ATOM     15  O   UNL     1      18.969 -10.913   3.385 -0.70 -0.00    +0.000 OA
DOCKED: ENDROOT
DOCKED: BRANCH   1  16
DOCKED: ATOM     16  C   UNL     1      20.233 -12.043   1.129 -0.65 -0.00    +0.000 C 
DOCKED: BRANCH  16  17
DOCKED: ATOM     17  C   UNL     1      21.008 -10.722   1.121 -0.53 -0.00    +0.000 C 
DOCKED: BRANCH  17  18
DOCKED: ATOM     18  C   UNL     1      21.669 -10.477  -0.240 -0.65 -0.00    +0.000 C 
DOCKED: BRANCH  18  19
DOCKED: ATOM     19  C   UNL     1      20.987  -9.317  -0.981 -0.63 -0.00    +0.000 C 
DOCKED: BRANCH  19  20
DOCKED: ATOM     20  C   UNL     1      19.771  -9.780  -1.795 -0.29 -0.00    +0.000 C 
DOCKED: BRANCH  20  22
DOCKED: ATOM     21  O   UNL     1      21.092  -9.940  -3.781 -0.47 -0.00    +0.000 OA
DOCKED: ATOM     22  C   UNL     1      20.181 -10.450  -3.075 -0.48 -0.00    +0.000 C 
DOCKED: ATOM     23  N   UNL     1      19.567 -11.676  -3.478 -0.37 -0.00    +0.000 N 
DOCKED: ATOM     24  O   UNL     1      19.948 -12.288  -4.623 -0.71 -0.00    +0.000 OA
DOCKED: ATOM     25  H   UNL     1      18.863 -12.078  -2.919 +0.02 -0.00    +0.000 HD
DOCKED: ENDBRANCH  20  22
DOCKED: ENDBRANCH  19  20
DOCKED: ENDBRANCH  18  19
DOCKED: ENDBRANCH  17  18
DOCKED: ENDBRANCH  16  17
DOCKED: ENDBRANCH   1  16
DOCKED: TORSDOF 6
DOCKED: TER
DOCKED: ENDMDL
________________________________________________________________________________


	BEGINNING GENETIC ALGORITHM DOCKING 53 of 100
Run: 53 Seed: 15763444 438038034 [ Run 53 of 100 GA/GALS ]
Beginning LAMARCKIAN GENETIC ALGORITHM (LGA), with a maximum of 2500000 energy evaluations.

Final-Value: -13.686


	FINAL GENETIC ALGORITHM DOCKED STATE
	_______________________________________________


Detailed state:  trans 16.497 -11.512 0.744 quatxyzw 0.918287 -0.232530 -0.318946 -0.030854 center -0.023 0.069 -0.054 ntor 6 153.4623 68.9198 -58.6588 38.2424 -51.7481 10.1634
State:	 16.497 -11.512   0.744   0.919 -0.233 -0.319 -176.464    153.46   68.92  -58.66   38.24  -51.75   10.16

DOCKED: MODEL       53
DOCKED: USER    Run = 53
DOCKED: USER    DPF = ligand_dock.biased.dpf
DOCKED: USER  
DOCKED: USER    Estimated Free Energy of Binding    =  -10.08 kcal/mol  [=(1)+(2)+(3)-(4)]
DOCKED: USER    Estimated Inhibition Constant, Ki   =   41.09 nM (nanomolar)  [Temperature = 298.15 K]
DOCKED: USER    
DOCKED: USER    (1) Final Intermolecular Energy     =  -11.87 kcal/mol
DOCKED: USER        vdW + Hbond + desolv Energy     =  -11.87 kcal/mol
DOCKED: USER        Electrostatic Energy            =   +0.00 kcal/mol
DOCKED: USER    (2) Final Total Internal Energy     =   -1.82 kcal/mol
DOCKED: USER    (3) Torsional Free Energy           =   +1.79 kcal/mol
DOCKED: USER    (4) Unbound System's Energy  [=(2)] =   -1.82 kcal/mol
DOCKED: USER    
DOCKED: USER    
DOCKED: USER    NEWDPF move ligand.pdbqt
DOCKED: USER    NEWDPF about -0.023000 0.069000 -0.054000
DOCKED: USER    NEWDPF tran0 16.497344 -11.512195 0.744045
DOCKED: USER    NEWDPF quaternion0 0.918287 -0.232530 -0.318946 -0.030854
DOCKED: USER    NEWDPF axisangle0 0.918725 -0.232641 -0.319098 -176.463781
DOCKED: USER    NEWDPF quat0 0.918725 -0.232641 -0.319098 -176.463781
DOCKED: USER    NEWDPF dihe0 153.46 68.92 -58.66 38.24 -51.75 10.16 
DOCKED: USER  keepresnum = 1 
DOCKED: USER  
DOCKED: REMARK  Name = 
DOCKED: REMARK  6 active torsions:
DOCKED: REMARK  status: ('A' for Active; 'I' for Inactive)
DOCKED: REMARK    1  A    between atoms: C_2  and  C_5
DOCKED: REMARK    2  A    between atoms: C_5  and  C_6
DOCKED: REMARK    3  A    between atoms: C_6  and  C_7
DOCKED: REMARK    4  A    between atoms: C_7  and  C_8
DOCKED: REMARK    5  A    between atoms: C_8  and  C_9
DOCKED: REMARK    6  A    between atoms: C_9  and  N_10
DOCKED: REMARK                            x       y       z     vdW  Elec       q    Type
DOCKED: REMARK                         _______ _______ _______ _____ _____    ______ ____
DOCKED: USER                              x       y       z     vdW  Elec       q    Type
DOCKED: USER                           _______ _______ _______ _____ _____    ______ ____
DOCKED: ROOT
DOCKED: ATOM      1  N   UNL     1      15.854 -11.879   1.290 -0.42 +0.00    +0.000 N 
DOCKED: ATOM      2  C   UNL     1      16.230 -10.904   2.281 -0.46 +0.00    +0.000 C 
DOCKED: ATOM      3  C   UNL     1      15.197 -10.041   2.900 -0.36 +0.00    +0.000 A 
DOCKED: ATOM      4  C   UNL     1      15.547  -9.107   3.891 -0.31 +0.00    +0.000 A 
DOCKED: ATOM      5  C   UNL     1      14.575  -8.293   4.474 -0.35 +0.00    +0.000 A 
DOCKED: ATOM      6  C   UNL     1      13.242  -8.395   4.078 -0.24 +0.00    +0.000 A 
DOCKED: ATOM      7  C   UNL     1      12.867  -9.318   3.090 -0.20 +0.00    +0.000 A 
DOCKED: ATOM      8  C   UNL     1      11.528  -9.419   2.691 -0.11 +0.00    +0.000 A 
DOCKED: ATOM      9  C   UNL     1      11.155 -10.334   1.707 -0.20 +0.00    +0.000 A 
DOCKED: ATOM     10  C   UNL     1      12.113 -11.158   1.112 -0.35 +0.00    +0.000 A 
DOCKED: ATOM     11  C   UNL     1      13.464 -11.076   1.496 -0.34 +0.00    +0.000 A 
DOCKED: ATOM     12  C   UNL     1      13.848 -10.151   2.493 -0.28 +0.00    +0.000 A 
DOCKED: ATOM     13  O   UNL     1      17.439 -10.783   2.623 -0.51 +0.00    +0.000 OA
DOCKED: ATOM     14  C   UNL     1      14.479 -11.949   0.865 -0.47 +0.00    +0.000 C 
DOCKED: ATOM     15  O   UNL     1      14.139 -12.753  -0.047 -0.54 +0.00    +0.000 OA
DOCKED: ENDROOT
DOCKED: BRANCH   1  16
DOCKED: ATOM     16  C   UNL     1      16.875 -12.715   0.643 -0.48 +0.00    +0.000 C 
DOCKED: BRANCH  16  17
DOCKED: ATOM     17  C   UNL     1      17.620 -11.910  -0.426 -0.46 -0.00    +0.000 C 
DOCKED: BRANCH  17  18
DOCKED: ATOM     18  C   UNL     1      19.137 -12.002  -0.229 -0.43 -0.00    +0.000 C 
DOCKED: BRANCH  18  19
DOCKED: ATOM     19  C   UNL     1      19.812 -10.654  -0.527 -0.56 -0.00    +0.000 C 
DOCKED: BRANCH  19  20
DOCKED: ATOM     20  C   UNL     1      20.659 -10.154   0.651 -0.65 -0.00    +0.000 C 
DOCKED: BRANCH  20  22
DOCKED: ATOM     21  O   UNL     1      21.257 -12.200   1.733 -1.33 -0.00    +0.000 OA
DOCKED: ATOM     22  C   UNL     1      20.626 -11.112   1.807 -0.72 -0.00    +0.000 C 
DOCKED: ATOM     23  N   UNL     1      19.911 -10.782   3.000 -0.67 -0.00    +0.000 N 
DOCKED: ATOM     24  O   UNL     1      19.895 -11.637   4.048 -1.20 -0.00    +0.000 OA
DOCKED: ATOM     25  H   UNL     1      19.428  -9.926   3.060 -0.21 -0.00    +0.000 HD
DOCKED: ENDBRANCH  20  22
DOCKED: ENDBRANCH  19  20
DOCKED: ENDBRANCH  18  19
DOCKED: ENDBRANCH  17  18
DOCKED: ENDBRANCH  16  17
DOCKED: ENDBRANCH   1  16
DOCKED: TORSDOF 6
DOCKED: TER
DOCKED: ENDMDL
________________________________________________________________________________


	BEGINNING GENETIC ALGORITHM DOCKING 54 of 100
Run: 54 Seed: 1811137198 606802852 [ Run 54 of 100 GA/GALS ]
Beginning LAMARCKIAN GENETIC ALGORITHM (LGA), with a maximum of 2500000 energy evaluations.

Final-Value: -12.805


	FINAL GENETIC ALGORITHM DOCKED STATE
	_______________________________________________


Detailed state:  trans 19.679 -9.772 -0.427 quatxyzw -0.768056 -0.240750 -0.583831 -0.106158 center -0.023 0.069 -0.054 ntor 6 -136.1764 23.0642 -47.1058 -157.4211 48.9561 168.6405
State:	 19.679  -9.772  -0.427  -0.772 -0.242 -0.587 -167.812   -136.18   23.06  -47.11 -157.42   48.96  168.64

DOCKED: MODEL       54
DOCKED: USER    Run = 54
DOCKED: USER    DPF = ligand_dock.biased.dpf
DOCKED: USER  
DOCKED: USER    Estimated Free Energy of Binding    =   -9.02 kcal/mol  [=(1)+(2)+(3)-(4)]
DOCKED: USER    Estimated Inhibition Constant, Ki   =  243.99 nM (nanomolar)  [Temperature = 298.15 K]
DOCKED: USER    
DOCKED: USER    (1) Final Intermolecular Energy     =  -10.81 kcal/mol
DOCKED: USER        vdW + Hbond + desolv Energy     =  -10.81 kcal/mol
DOCKED: USER        Electrostatic Energy            =   +0.00 kcal/mol
DOCKED: USER    (2) Final Total Internal Energy     =   -1.99 kcal/mol
DOCKED: USER    (3) Torsional Free Energy           =   +1.79 kcal/mol
DOCKED: USER    (4) Unbound System's Energy  [=(2)] =   -1.99 kcal/mol
DOCKED: USER    
DOCKED: USER    
DOCKED: USER    NEWDPF move ligand.pdbqt
DOCKED: USER    NEWDPF about -0.023000 0.069000 -0.054000
DOCKED: USER    NEWDPF tran0 19.678956 -9.772322 -0.427082
DOCKED: USER    NEWDPF quaternion0 -0.768056 -0.240750 -0.583831 -0.106158
DOCKED: USER    NEWDPF axisangle0 -0.772421 -0.242118 -0.587149 -167.812183
DOCKED: USER    NEWDPF quat0 -0.772421 -0.242118 -0.587149 -167.812183
DOCKED: USER    NEWDPF dihe0 -136.18 23.06 -47.11 -157.42 48.96 168.64 
DOCKED: USER  keepresnum = 1 
DOCKED: USER  
DOCKED: REMARK  Name = 
DOCKED: REMARK  6 active torsions:
DOCKED: REMARK  status: ('A' for Active; 'I' for Inactive)
DOCKED: REMARK    1  A    between atoms: C_2  and  C_5
DOCKED: REMARK    2  A    between atoms: C_5  and  C_6
DOCKED: REMARK    3  A    between atoms: C_6  and  C_7
DOCKED: REMARK    4  A    between atoms: C_7  and  C_8
DOCKED: REMARK    5  A    between atoms: C_8  and  C_9
DOCKED: REMARK    6  A    between atoms: C_9  and  N_10
DOCKED: REMARK                            x       y       z     vdW  Elec       q    Type
DOCKED: REMARK                         _______ _______ _______ _____ _____    ______ ____
DOCKED: USER                              x       y       z     vdW  Elec       q    Type
DOCKED: USER                           _______ _______ _______ _____ _____    ______ ____
DOCKED: ROOT
DOCKED: ATOM      1  N   UNL     1      19.837 -10.557  -0.881 -0.48 -0.00    +0.000 N 
DOCKED: ATOM      2  C   UNL     1      18.501 -10.446  -1.408 -0.23 -0.00    +0.000 C 
DOCKED: ATOM      3  C   UNL     1      18.274 -10.520  -2.870 -0.26 -0.00    +0.000 A 
DOCKED: ATOM      4  C   UNL     1      16.972 -10.444  -3.396 -0.11 -0.00    +0.000 A 
DOCKED: ATOM      5  C   UNL     1      16.757 -10.514  -4.773 -0.21 -0.00    +0.000 A 
DOCKED: ATOM      6  C   UNL     1      17.834 -10.658  -5.647 -0.28 -0.00    +0.000 A 
DOCKED: ATOM      7  C   UNL     1      19.143 -10.735  -5.148 -0.34 -0.00    +0.000 A 
DOCKED: ATOM      8  C   UNL     1      20.225 -10.878  -6.026 -0.34 -0.00    +0.000 A 
DOCKED: ATOM      9  C   UNL     1      21.527 -10.950  -5.531 -0.45 -0.00    +0.000 A 
DOCKED: ATOM     10  C   UNL     1      21.762 -10.884  -4.156 -0.43 -0.00    +0.000 A 
DOCKED: ATOM     11  C   UNL     1      20.693 -10.742  -3.254 -0.43 -0.00    +0.000 A 
DOCKED: ATOM     12  C   UNL     1      19.371 -10.666  -3.749 -0.37 -0.00    +0.000 A 
DOCKED: ATOM     13  O   UNL     1      17.524 -10.284  -0.627 -0.28 -0.00    +0.000 OA
DOCKED: ATOM     14  C   UNL     1      20.943 -10.670  -1.796 -0.51 -0.00    +0.000 C 
DOCKED: ATOM     15  O   UNL     1      22.126 -10.706  -1.358 -0.59 -0.00    +0.000 OA
DOCKED: ENDROOT
DOCKED: BRANCH   1  16
DOCKED: ATOM     16  C   UNL     1      20.077 -10.448   0.565 -0.63 -0.00    +0.000 C 
DOCKED: BRANCH  16  17
DOCKED: ATOM     17  C   UNL     1      19.777 -11.784   1.253 -0.71 -0.00    +0.000 C 
DOCKED: BRANCH  17  18
DOCKED: ATOM     18  C   UNL     1      18.879 -11.584   2.479 -0.57 -0.00    +0.000 C 
DOCKED: BRANCH  18  19
DOCKED: ATOM     19  C   UNL     1      18.083 -10.275   2.369 -0.53 -0.00    +0.000 C 
DOCKED: BRANCH  19  20
DOCKED: ATOM     20  C   UNL     1      16.613 -10.452   2.775 -0.48 +0.00    +0.000 C 
DOCKED: BRANCH  20  22
DOCKED: ATOM     21  O   UNL     1      15.177 -12.362   2.819 -0.59 +0.00    +0.000 OA
DOCKED: ATOM     22  C   UNL     1      16.010 -11.682   2.161 -0.45 +0.00    +0.000 C 
DOCKED: ATOM     23  N   UNL     1      16.350 -12.066   0.827 -0.44 +0.00    +0.000 N 
DOCKED: ATOM     24  O   UNL     1      15.793 -13.166   0.268 -1.12 +0.00    +0.000 OA
DOCKED: ATOM     25  H   UNL     1      16.992 -11.527   0.311 +0.00 +0.00    +0.000 HD
DOCKED: ENDBRANCH  20  22
DOCKED: ENDBRANCH  19  20
DOCKED: ENDBRANCH  18  19
DOCKED: ENDBRANCH  17  18
DOCKED: ENDBRANCH  16  17
DOCKED: ENDBRANCH   1  16
DOCKED: TORSDOF 6
DOCKED: TER
DOCKED: ENDMDL
________________________________________________________________________________


	BEGINNING GENETIC ALGORITHM DOCKING 55 of 100
Run: 55 Seed: 1632098755 1416822085 [ Run 55 of 100 GA/GALS ]
Beginning LAMARCKIAN GENETIC ALGORITHM (LGA), with a maximum of 2500000 energy evaluations.

Final-Value: -13.352


	FINAL GENETIC ALGORITHM DOCKED STATE
	_______________________________________________


Detailed state:  trans 15.731 -12.422 1.701 quatxyzw -0.124876 0.155101 -0.332486 -0.921847 center -0.023 0.069 -0.054 ntor 6 145.0485 31.3284 -52.8853 52.6267 -29.7652 180.0000
State:	 15.731 -12.422   1.701  -0.322  0.400 -0.858 -45.605    145.05   31.33  -52.89   52.63  -29.77  180.00

DOCKED: MODEL       55
DOCKED: USER    Run = 55
DOCKED: USER    DPF = ligand_dock.biased.dpf
DOCKED: USER  
DOCKED: USER    Estimated Free Energy of Binding    =  -10.51 kcal/mol  [=(1)+(2)+(3)-(4)]
DOCKED: USER    Estimated Inhibition Constant, Ki   =   19.81 nM (nanomolar)  [Temperature = 298.15 K]
DOCKED: USER    
DOCKED: USER    (1) Final Intermolecular Energy     =  -12.30 kcal/mol
DOCKED: USER        vdW + Hbond + desolv Energy     =  -12.30 kcal/mol
DOCKED: USER        Electrostatic Energy            =   +0.00 kcal/mol
DOCKED: USER    (2) Final Total Internal Energy     =   -1.05 kcal/mol
DOCKED: USER    (3) Torsional Free Energy           =   +1.79 kcal/mol
DOCKED: USER    (4) Unbound System's Energy  [=(2)] =   -1.05 kcal/mol
DOCKED: USER    
DOCKED: USER    
DOCKED: USER    NEWDPF move ligand.pdbqt
DOCKED: USER    NEWDPF about -0.023000 0.069000 -0.054000
DOCKED: USER    NEWDPF tran0 15.730510 -12.421608 1.701293
DOCKED: USER    NEWDPF quaternion0 -0.124876 0.155101 -0.332486 -0.921847
DOCKED: USER    NEWDPF axisangle0 -0.322217 0.400206 -0.857911 -45.604656
DOCKED: USER    NEWDPF quat0 -0.322217 0.400206 -0.857911 -45.604656
DOCKED: USER    NEWDPF dihe0 145.05 31.33 -52.89 52.63 -29.77 180.00 
DOCKED: USER  keepresnum = 1 
DOCKED: USER  
DOCKED: REMARK  Name = 
DOCKED: REMARK  6 active torsions:
DOCKED: REMARK  status: ('A' for Active; 'I' for Inactive)
DOCKED: REMARK    1  A    between atoms: C_2  and  C_5
DOCKED: REMARK    2  A    between atoms: C_5  and  C_6
DOCKED: REMARK    3  A    between atoms: C_6  and  C_7
DOCKED: REMARK    4  A    between atoms: C_7  and  C_8
DOCKED: REMARK    5  A    between atoms: C_8  and  C_9
DOCKED: REMARK    6  A    between atoms: C_9  and  N_10
DOCKED: REMARK                            x       y       z     vdW  Elec       q    Type
DOCKED: REMARK                         _______ _______ _______ _____ _____    ______ ____
DOCKED: USER                              x       y       z     vdW  Elec       q    Type
DOCKED: USER                           _______ _______ _______ _____ _____    ______ ____
DOCKED: ROOT
DOCKED: ATOM      1  N   UNL     1      15.671 -11.523   1.513 -0.39 +0.00    +0.000 N 
DOCKED: ATOM      2  C   UNL     1      14.318 -11.767   1.086 -0.46 +0.00    +0.000 C 
DOCKED: ATOM      3  C   UNL     1      13.207 -10.961   1.644 -0.32 +0.00    +0.000 A 
DOCKED: ATOM      4  C   UNL     1      11.886 -11.169   1.212 -0.35 +0.00    +0.000 A 
DOCKED: ATOM      5  C   UNL     1      10.839 -10.410   1.738 -0.20 +0.00    +0.000 A 
DOCKED: ATOM      6  C   UNL     1      11.093  -9.435   2.702 -0.08 +0.00    +0.000 A 
DOCKED: ATOM      7  C   UNL     1      12.402  -9.210   3.151 -0.16 +0.00    +0.000 A 
DOCKED: ATOM      8  C   UNL     1      12.656  -8.231   4.122 -0.21 +0.00    +0.000 A 
DOCKED: ATOM      9  C   UNL     1      13.958  -8.009   4.571 -0.32 +0.00    +0.000 A 
DOCKED: ATOM     10  C   UNL     1      15.018  -8.757   4.056 -0.34 +0.00    +0.000 A 
DOCKED: ATOM     11  C   UNL     1      14.789  -9.744   3.081 -0.33 +0.00    +0.000 A 
DOCKED: ATOM     12  C   UNL     1      13.473  -9.975   2.621 -0.25 +0.00    +0.000 A 
DOCKED: ATOM     13  O   UNL     1      14.075 -12.669   0.236 -0.54 +0.00    +0.000 OA
DOCKED: ATOM     14  C   UNL     1      15.914 -10.538   2.535 -0.45 +0.00    +0.000 C 
DOCKED: ATOM     15  O   UNL     1      17.085 -10.351   2.969 -0.51 +0.00    +0.000 OA
DOCKED: ENDROOT
DOCKED: BRANCH   1  16
DOCKED: ATOM     16  C   UNL     1      16.775 -12.342   0.992 -0.49 +0.00    +0.000 C 
DOCKED: BRANCH  16  17
DOCKED: ATOM     17  C   UNL     1      17.388 -11.677  -0.244 -0.46 -0.00    +0.000 C 
DOCKED: BRANCH  17  18
DOCKED: ATOM     18  C   UNL     1      18.877 -12.019  -0.374 -0.46 -0.00    +0.000 C 
DOCKED: BRANCH  18  19
DOCKED: ATOM     19  C   UNL     1      19.723 -10.745  -0.514 -0.55 -0.00    +0.000 C 
DOCKED: BRANCH  19  20
DOCKED: ATOM     20  C   UNL     1      20.910 -10.724   0.459 -0.69 -0.00    +0.000 C 
DOCKED: BRANCH  20  22
DOCKED: ATOM     21  O   UNL     1      20.250 -12.544   1.861 -1.69 -0.00    +0.000 OA
DOCKED: ATOM     22  C   UNL     1      20.551 -11.322   1.789 -0.75 -0.00    +0.000 C 
DOCKED: ATOM     23  N   UNL     1      20.579 -10.522   2.973 -0.64 -0.00    +0.000 N 
DOCKED: ATOM     24  O   UNL     1      20.272 -11.065   4.174 -1.07 -0.00    +0.000 OA
DOCKED: ATOM     25  H   UNL     1      20.825  -9.571   2.915 -0.59 -0.00    +0.000 HD
DOCKED: ENDBRANCH  20  22
DOCKED: ENDBRANCH  19  20
DOCKED: ENDBRANCH  18  19
DOCKED: ENDBRANCH  17  18
DOCKED: ENDBRANCH  16  17
DOCKED: ENDBRANCH   1  16
DOCKED: TORSDOF 6
DOCKED: TER
DOCKED: ENDMDL
________________________________________________________________________________


	BEGINNING GENETIC ALGORITHM DOCKING 56 of 100
Run: 56 Seed: 2023060154 2119963981 [ Run 56 of 100 GA/GALS ]
Beginning LAMARCKIAN GENETIC ALGORITHM (LGA), with a maximum of 2500000 energy evaluations.

Final-Value: -12.909


	FINAL GENETIC ALGORITHM DOCKED STATE
	_______________________________________________


Detailed state:  trans 17.374 -11.955 -1.756 quatxyzw 0.460551 0.044717 -0.241014 -0.853115 center -0.023 0.069 -0.054 ntor 6 -44.2177 156.7222 161.7441 78.7272 -2.0697 151.6649
State:	 17.374 -11.955  -1.756   0.883  0.086 -0.462 -62.896    -44.22  156.72  161.74   78.73   -2.07  151.66

DOCKED: MODEL       56
DOCKED: USER    Run = 56
DOCKED: USER    DPF = ligand_dock.biased.dpf
DOCKED: USER  
DOCKED: USER    Estimated Free Energy of Binding    =   -9.73 kcal/mol  [=(1)+(2)+(3)-(4)]
DOCKED: USER    Estimated Inhibition Constant, Ki   =   73.27 nM (nanomolar)  [Temperature = 298.15 K]
DOCKED: USER    
DOCKED: USER    (1) Final Intermolecular Energy     =  -11.52 kcal/mol
DOCKED: USER        vdW + Hbond + desolv Energy     =  -11.52 kcal/mol
DOCKED: USER        Electrostatic Energy            =   +0.00 kcal/mol
DOCKED: USER    (2) Final Total Internal Energy     =   -1.39 kcal/mol
DOCKED: USER    (3) Torsional Free Energy           =   +1.79 kcal/mol
DOCKED: USER    (4) Unbound System's Energy  [=(2)] =   -1.39 kcal/mol
DOCKED: USER    
DOCKED: USER    
DOCKED: USER    NEWDPF move ligand.pdbqt
DOCKED: USER    NEWDPF about -0.023000 0.069000 -0.054000
DOCKED: USER    NEWDPF tran0 17.374290 -11.955037 -1.755647
DOCKED: USER    NEWDPF quaternion0 0.460551 0.044717 -0.241014 -0.853115
DOCKED: USER    NEWDPF axisangle0 0.882751 0.085710 -0.461958 -62.895788
DOCKED: USER    NEWDPF quat0 0.882751 0.085710 -0.461958 -62.895788
DOCKED: USER    NEWDPF dihe0 -44.22 156.72 161.74 78.73 -2.07 151.66 
DOCKED: USER  keepresnum = 1 
DOCKED: USER  
DOCKED: REMARK  Name = 
DOCKED: REMARK  6 active torsions:
DOCKED: REMARK  status: ('A' for Active; 'I' for Inactive)
DOCKED: REMARK    1  A    between atoms: C_2  and  C_5
DOCKED: REMARK    2  A    between atoms: C_5  and  C_6
DOCKED: REMARK    3  A    between atoms: C_6  and  C_7
DOCKED: REMARK    4  A    between atoms: C_7  and  C_8
DOCKED: REMARK    5  A    between atoms: C_8  and  C_9
DOCKED: REMARK    6  A    between atoms: C_9  and  N_10
DOCKED: REMARK                            x       y       z     vdW  Elec       q    Type
DOCKED: REMARK                         _______ _______ _______ _____ _____    ______ ____
DOCKED: USER                              x       y       z     vdW  Elec       q    Type
DOCKED: USER                           _______ _______ _______ _____ _____    ______ ____
DOCKED: ROOT
DOCKED: ATOM      1  N   UNL     1      17.183 -11.349  -1.091 -0.30 -0.00    +0.000 N 
DOCKED: ATOM      2  C   UNL     1      16.294 -10.704  -2.022 -0.23 -0.00    +0.000 C 
DOCKED: ATOM      3  C   UNL     1      14.888 -10.436  -1.640 -0.26 -0.00    +0.000 A 
DOCKED: ATOM      4  C   UNL     1      14.019  -9.779  -2.528 -0.21 -0.00    +0.000 A 
DOCKED: ATOM      5  C   UNL     1      12.694  -9.527  -2.169 -0.19 -0.00    +0.000 A 
DOCKED: ATOM      6  C   UNL     1      12.215  -9.926  -0.922 -0.20 -0.00    +0.000 A 
DOCKED: ATOM      7  C   UNL     1      13.062 -10.584  -0.018 -0.25 +0.00    +0.000 A 
DOCKED: ATOM      8  C   UNL     1      12.579 -10.987   1.235 -0.33 +0.00    +0.000 A 
DOCKED: ATOM      9  C   UNL     1      13.420 -11.645   2.133 -0.36 +0.00    +0.000 A 
DOCKED: ATOM     10  C   UNL     1      14.748 -11.905   1.792 -0.43 +0.00    +0.000 A 
DOCKED: ATOM     11  C   UNL     1      15.257 -11.510   0.542 -0.36 +0.00    +0.000 A 
DOCKED: ATOM     12  C   UNL     1      14.411 -10.844  -0.374 -0.28 +0.00    +0.000 A 
DOCKED: ATOM     13  O   UNL     1      16.711 -10.367  -3.165 -0.27 -0.00    +0.000 OA
DOCKED: ATOM     14  C   UNL     1      16.666 -11.788   0.180 -0.46 +0.00    +0.000 C 
DOCKED: ATOM     15  O   UNL     1      17.411 -12.410   0.986 -0.77 +0.00    +0.000 OA
DOCKED: ENDROOT
DOCKED: BRANCH   1  16
DOCKED: ATOM     16  C   UNL     1      18.569 -11.652  -1.473 -0.21 -0.00    +0.000 C 
DOCKED: BRANCH  16  17
DOCKED: ATOM     17  C   UNL     1      19.342 -10.355  -1.733 -0.39 -0.00    +0.000 C 
DOCKED: BRANCH  17  18
DOCKED: ATOM     18  C   UNL     1      20.806 -10.645  -2.082 -0.50 -0.00    +0.000 C 
DOCKED: BRANCH  18  19
DOCKED: ATOM     19  C   UNL     1      21.717 -10.410  -0.867 -0.60 -0.00    +0.000 C 
DOCKED: BRANCH  19  20
DOCKED: ATOM     20  C   UNL     1      21.017  -9.610   0.240 -0.58 -0.00    +0.000 C 
DOCKED: BRANCH  20  22
DOCKED: ATOM     21  O   UNL     1      19.042 -10.312   1.388 -0.60 -0.00    +0.000 OA
DOCKED: ATOM     22  C   UNL     1      20.271 -10.505   1.187 -0.66 -0.00    +0.000 C 
DOCKED: ATOM     23  N   UNL     1      20.938 -11.592   1.832 -0.69 -0.00    +0.000 N 
DOCKED: ATOM     24  O   UNL     1      20.262 -12.409   2.672 -1.86 -0.00    +0.000 OA
DOCKED: ATOM     25  H   UNL     1      21.896 -11.748   1.664 -0.52 -0.00    +0.000 HD
DOCKED: ENDBRANCH  20  22
DOCKED: ENDBRANCH  19  20
DOCKED: ENDBRANCH  18  19
DOCKED: ENDBRANCH  17  18
DOCKED: ENDBRANCH  16  17
DOCKED: ENDBRANCH   1  16
DOCKED: TORSDOF 6
DOCKED: TER
DOCKED: ENDMDL
________________________________________________________________________________


	BEGINNING GENETIC ALGORITHM DOCKING 57 of 100
Run: 57 Seed: 2026392088 10705991 [ Run 57 of 100 GA/GALS ]
Beginning LAMARCKIAN GENETIC ALGORITHM (LGA), with a maximum of 2500000 energy evaluations.

Final-Value: -12.178


	FINAL GENETIC ALGORITHM DOCKED STATE
	_______________________________________________


Detailed state:  trans 14.790 -12.591 1.637 quatxyzw 0.301159 -0.628965 -0.121304 -0.706393 center -0.023 0.069 -0.054 ntor 6 -65.9840 -180.0000 105.7146 88.4692 -173.8660 170.3975
State:	 14.790 -12.591   1.637   0.425 -0.889 -0.171 -90.116    -65.98 -180.00  105.71   88.47 -173.87  170.40

DOCKED: MODEL       57
DOCKED: USER    Run = 57
DOCKED: USER    DPF = ligand_dock.biased.dpf
DOCKED: USER  
DOCKED: USER    Estimated Free Energy of Binding    =   -8.51 kcal/mol  [=(1)+(2)+(3)-(4)]
DOCKED: USER    Estimated Inhibition Constant, Ki   =  578.26 nM (nanomolar)  [Temperature = 298.15 K]
DOCKED: USER    
DOCKED: USER    (1) Final Intermolecular Energy     =  -10.30 kcal/mol
DOCKED: USER        vdW + Hbond + desolv Energy     =  -10.30 kcal/mol
DOCKED: USER        Electrostatic Energy            =   +0.00 kcal/mol
DOCKED: USER    (2) Final Total Internal Energy     =   -1.88 kcal/mol
DOCKED: USER    (3) Torsional Free Energy           =   +1.79 kcal/mol
DOCKED: USER    (4) Unbound System's Energy  [=(2)] =   -1.88 kcal/mol
DOCKED: USER    
DOCKED: USER    
DOCKED: USER    NEWDPF move ligand.pdbqt
DOCKED: USER    NEWDPF about -0.023000 0.069000 -0.054000
DOCKED: USER    NEWDPF tran0 14.790020 -12.591330 1.636981
DOCKED: USER    NEWDPF quaternion0 0.301159 -0.628965 -0.121304 -0.706393
DOCKED: USER    NEWDPF axisangle0 0.425474 -0.888595 -0.171378 -90.115638
DOCKED: USER    NEWDPF quat0 0.425474 -0.888595 -0.171378 -90.115638
DOCKED: USER    NEWDPF dihe0 -65.98 -180.00 105.71 88.47 -173.87 170.40 
DOCKED: USER  keepresnum = 1 
DOCKED: USER  
DOCKED: REMARK  Name = 
DOCKED: REMARK  6 active torsions:
DOCKED: REMARK  status: ('A' for Active; 'I' for Inactive)
DOCKED: REMARK    1  A    between atoms: C_2  and  C_5
DOCKED: REMARK    2  A    between atoms: C_5  and  C_6
DOCKED: REMARK    3  A    between atoms: C_6  and  C_7
DOCKED: REMARK    4  A    between atoms: C_7  and  C_8
DOCKED: REMARK    5  A    between atoms: C_8  and  C_9
DOCKED: REMARK    6  A    between atoms: C_9  and  N_10
DOCKED: REMARK                            x       y       z     vdW  Elec       q    Type
DOCKED: REMARK                         _______ _______ _______ _____ _____    ______ ____
DOCKED: USER                              x       y       z     vdW  Elec       q    Type
DOCKED: USER                           _______ _______ _______ _____ _____    ______ ____
DOCKED: ROOT
DOCKED: ATOM      1  N   UNL     1      14.617 -11.692   1.557 -0.43 +0.00    +0.000 N 
DOCKED: ATOM      2  C   UNL     1      15.541 -11.675   0.454 -0.43 +0.00    +0.000 C 
DOCKED: ATOM      3  C   UNL     1      15.128 -11.109  -0.851 -0.30 +0.00    +0.000 A 
DOCKED: ATOM      4  C   UNL     1      16.032 -11.059  -1.927 -0.07 -0.00    +0.000 A 
DOCKED: ATOM      5  C   UNL     1      15.642 -10.525  -3.156 -0.22 -0.00    +0.000 A 
DOCKED: ATOM      6  C   UNL     1      14.349 -10.035  -3.333 -0.22 -0.00    +0.000 A 
DOCKED: ATOM      7  C   UNL     1      13.429 -10.074  -2.276 -0.23 -0.00    +0.000 A 
DOCKED: ATOM      8  C   UNL     1      12.128  -9.583  -2.454 -0.17 -0.00    +0.000 A 
DOCKED: ATOM      9  C   UNL     1      11.211  -9.626  -1.404 -0.17 -0.00    +0.000 A 
DOCKED: ATOM     10  C   UNL     1      11.582 -10.155  -0.167 -0.21 +0.00    +0.000 A 
DOCKED: ATOM     11  C   UNL     1      12.881 -10.652   0.038 -0.26 +0.00    +0.000 A 
DOCKED: ATOM     12  C   UNL     1      13.815 -10.614  -1.022 -0.27 +0.00    +0.000 A 
DOCKED: ATOM     13  O   UNL     1      16.704 -12.145   0.596 -0.67 +0.00    +0.000 OA
DOCKED: ATOM     14  C   UNL     1      13.273 -11.214   1.351 -0.40 +0.00    +0.000 C 
DOCKED: ATOM     15  O   UNL     1      12.429 -11.277   2.287 -0.32 +0.00    +0.000 OA
DOCKED: ENDROOT
DOCKED: BRANCH   1  16
DOCKED: ATOM     16  C   UNL     1      15.005 -12.285   2.845 -0.30 +0.00    +0.000 C 
DOCKED: BRANCH  16  17
DOCKED: ATOM     17  C   UNL     1      15.800 -11.272   3.676 -0.53 +0.00    +0.000 C 
DOCKED: BRANCH  17  18
DOCKED: ATOM     18  C   UNL     1      15.830  -9.900   2.993 -0.44 +0.00    +0.000 C 
DOCKED: BRANCH  18  19
DOCKED: ATOM     19  C   UNL     1      17.056  -9.769   2.078 -0.36 +0.00    +0.000 C 
DOCKED: BRANCH  19  20
DOCKED: ATOM     20  C   UNL     1      18.365  -9.650   2.871 -0.40 -0.00    +0.000 C 
DOCKED: BRANCH  20  22
DOCKED: ATOM     21  O   UNL     1      19.944 -11.257   3.669 -1.22 -0.00    +0.000 OA
DOCKED: ATOM     22  C   UNL     1      19.228 -10.868   2.708 -0.68 -0.00    +0.000 C 
DOCKED: ATOM     23  N   UNL     1      19.216 -11.604   1.483 -0.57 -0.00    +0.000 N 
DOCKED: ATOM     24  O   UNL     1      19.981 -12.711   1.342 -1.44 -0.00    +0.000 OA
DOCKED: ATOM     25  H   UNL     1      18.647 -11.305   0.737 -0.00 -0.00    +0.000 HD
DOCKED: ENDBRANCH  20  22
DOCKED: ENDBRANCH  19  20
DOCKED: ENDBRANCH  18  19
DOCKED: ENDBRANCH  17  18
DOCKED: ENDBRANCH  16  17
DOCKED: ENDBRANCH   1  16
DOCKED: TORSDOF 6
DOCKED: TER
DOCKED: ENDMDL
________________________________________________________________________________


	BEGINNING GENETIC ALGORITHM DOCKING 58 of 100
Run: 58 Seed: 1710821639 591751543 [ Run 58 of 100 GA/GALS ]
Beginning LAMARCKIAN GENETIC ALGORITHM (LGA), with a maximum of 2500000 energy evaluations.

Final-Value: -13.322


	FINAL GENETIC ALGORITHM DOCKED STATE
	_______________________________________________


Detailed state:  trans 19.543 -12.016 1.459 quatxyzw -0.032443 -0.014504 -0.067365 -0.997095 center -0.023 0.069 -0.054 ntor 6 171.7674 -164.5560 66.2473 -52.0221 67.6043 -178.2302
State:	 19.543 -12.016   1.459  -0.426 -0.190 -0.884 -8.736    171.77 -164.56   66.25  -52.02   67.60 -178.23

DOCKED: MODEL       58
DOCKED: USER    Run = 58
DOCKED: USER    DPF = ligand_dock.biased.dpf
DOCKED: USER  
DOCKED: USER    Estimated Free Energy of Binding    =   -9.16 kcal/mol  [=(1)+(2)+(3)-(4)]
DOCKED: USER    Estimated Inhibition Constant, Ki   =  193.01 nM (nanomolar)  [Temperature = 298.15 K]
DOCKED: USER    
DOCKED: USER    (1) Final Intermolecular Energy     =  -10.95 kcal/mol
DOCKED: USER        vdW + Hbond + desolv Energy     =  -10.95 kcal/mol
DOCKED: USER        Electrostatic Energy            =   +0.00 kcal/mol
DOCKED: USER    (2) Final Total Internal Energy     =   -2.37 kcal/mol
DOCKED: USER    (3) Torsional Free Energy           =   +1.79 kcal/mol
DOCKED: USER    (4) Unbound System's Energy  [=(2)] =   -2.37 kcal/mol
DOCKED: USER    
DOCKED: USER    
DOCKED: USER    NEWDPF move ligand.pdbqt
DOCKED: USER    NEWDPF about -0.023000 0.069000 -0.054000
DOCKED: USER    NEWDPF tran0 19.542706 -12.016243 1.459004
DOCKED: USER    NEWDPF quaternion0 -0.032443 -0.014504 -0.067365 -0.997095
DOCKED: USER    NEWDPF axisangle0 -0.425959 -0.190433 -0.884474 -8.736149
DOCKED: USER    NEWDPF quat0 -0.425959 -0.190433 -0.884474 -8.736149
DOCKED: USER    NEWDPF dihe0 171.77 -164.56 66.25 -52.02 67.60 -178.23 
DOCKED: USER  keepresnum = 1 
DOCKED: USER  
DOCKED: REMARK  Name = 
DOCKED: REMARK  6 active torsions:
DOCKED: REMARK  status: ('A' for Active; 'I' for Inactive)
DOCKED: REMARK    1  A    between atoms: C_2  and  C_5
DOCKED: REMARK    2  A    between atoms: C_5  and  C_6
DOCKED: REMARK    3  A    between atoms: C_6  and  C_7
DOCKED: REMARK    4  A    between atoms: C_7  and  C_8
DOCKED: REMARK    5  A    between atoms: C_8  and  C_9
DOCKED: REMARK    6  A    between atoms: C_9  and  N_10
DOCKED: REMARK                            x       y       z     vdW  Elec       q    Type
DOCKED: REMARK                         _______ _______ _______ _____ _____    ______ ____
DOCKED: USER                              x       y       z     vdW  Elec       q    Type
DOCKED: USER                           _______ _______ _______ _____ _____    ______ ____
DOCKED: ROOT
DOCKED: ATOM      1  N   UNL     1      19.054 -11.251   1.315 -0.51 -0.00    +0.000 N 
DOCKED: ATOM      2  C   UNL     1      18.230 -12.021   0.419 -0.56 -0.00    +0.000 C 
DOCKED: ATOM      3  C   UNL     1      16.759 -12.032   0.592 -0.43 +0.00    +0.000 A 
DOCKED: ATOM      4  C   UNL     1      15.941 -12.755  -0.295 -0.47 +0.00    +0.000 A 
DOCKED: ATOM      5  C   UNL     1      14.555 -12.767  -0.132 -0.42 +0.00    +0.000 A 
DOCKED: ATOM      6  C   UNL     1      13.963 -12.060   0.914 -0.40 +0.00    +0.000 A 
DOCKED: ATOM      7  C   UNL     1      14.757 -11.332   1.812 -0.40 +0.00    +0.000 A 
DOCKED: ATOM      8  C   UNL     1      14.162 -10.624   2.865 -0.35 +0.00    +0.000 A 
DOCKED: ATOM      9  C   UNL     1      14.951  -9.902   3.760 -0.39 +0.00    +0.000 A 
DOCKED: ATOM     10  C   UNL     1      16.339  -9.878   3.614 -0.32 +0.00    +0.000 A 
DOCKED: ATOM     11  C   UNL     1      16.960 -10.579   2.566 -0.42 +0.00    +0.000 A 
DOCKED: ATOM     12  C   UNL     1      16.167 -11.313   1.655 -0.38 +0.00    +0.000 A 
DOCKED: ATOM     13  O   UNL     1      18.760 -12.689  -0.511 -0.45 -0.00    +0.000 OA
DOCKED: ATOM     14  C   UNL     1      18.433 -10.554   2.412 -0.57 -0.00    +0.000 C 
DOCKED: ATOM     15  O   UNL     1      19.142  -9.924   3.244 -0.63 -0.00    +0.000 OA
DOCKED: ENDROOT
DOCKED: BRANCH   1  16
DOCKED: ATOM     16  C   UNL     1      20.517 -11.261   1.175 -0.74 -0.00    +0.000 C 
DOCKED: BRANCH  16  17
DOCKED: ATOM     17  C   UNL     1      20.975 -10.079   0.315 -0.68 -0.00    +0.000 C 
DOCKED: BRANCH  17  18
DOCKED: ATOM     18  C   UNL     1      21.551 -10.559  -1.022 -0.61 -0.00    +0.000 C 
DOCKED: BRANCH  18  19
DOCKED: ATOM     19  C   UNL     1      20.889  -9.828  -2.199 -0.57 -0.00    +0.000 C 
DOCKED: BRANCH  19  20
DOCKED: ATOM     20  C   UNL     1      19.988 -10.755  -3.028 -0.47 -0.00    +0.000 C 
DOCKED: BRANCH  20  22
DOCKED: ATOM     21  O   UNL     1      18.337  -9.469  -4.181 -0.25 -0.00    +0.000 OA
DOCKED: ATOM     22  C   UNL     1      18.605 -10.193  -3.185 -0.33 -0.00    +0.000 C 
DOCKED: ATOM     23  N   UNL     1      17.586 -10.502  -2.232 -0.29 -0.00    +0.000 N 
DOCKED: ATOM     24  O   UNL     1      16.335 -10.009  -2.383 -0.29 -0.00    +0.000 OA
DOCKED: ATOM     25  H   UNL     1      17.795 -11.077  -1.461 -0.01 -0.00    +0.000 HD
DOCKED: ENDBRANCH  20  22
DOCKED: ENDBRANCH  19  20
DOCKED: ENDBRANCH  18  19
DOCKED: ENDBRANCH  17  18
DOCKED: ENDBRANCH  16  17
DOCKED: ENDBRANCH   1  16
DOCKED: TORSDOF 6
DOCKED: TER
DOCKED: ENDMDL
________________________________________________________________________________


	BEGINNING GENETIC ALGORITHM DOCKING 59 of 100
Run: 59 Seed: 1494192570 280429303 [ Run 59 of 100 GA/GALS ]
Beginning LAMARCKIAN GENETIC ALGORITHM (LGA), with a maximum of 2500000 energy evaluations.

Final-Value: -13.505


	FINAL GENETIC ALGORITHM DOCKED STATE
	_______________________________________________


Detailed state:  trans 16.167 -13.133 1.151 quatxyzw -0.061324 0.144803 -0.376730 -0.912878 center -0.023 0.069 -0.054 ntor 6 -145.9825 -33.5439 163.2919 -70.5931 -154.3246 -175.0538
State:	 16.167 -13.133   1.151  -0.150  0.355 -0.923 -48.188   -145.98  -33.54  163.29  -70.59 -154.32 -175.05

DOCKED: MODEL       59
DOCKED: USER    Run = 59
DOCKED: USER    DPF = ligand_dock.biased.dpf
DOCKED: USER  
DOCKED: USER    Estimated Free Energy of Binding    =  -10.30 kcal/mol  [=(1)+(2)+(3)-(4)]
DOCKED: USER    Estimated Inhibition Constant, Ki   =   28.06 nM (nanomolar)  [Temperature = 298.15 K]
DOCKED: USER    
DOCKED: USER    (1) Final Intermolecular Energy     =  -12.09 kcal/mol
DOCKED: USER        vdW + Hbond + desolv Energy     =  -12.09 kcal/mol
DOCKED: USER        Electrostatic Energy            =   +0.00 kcal/mol
DOCKED: USER    (2) Final Total Internal Energy     =   -1.41 kcal/mol
DOCKED: USER    (3) Torsional Free Energy           =   +1.79 kcal/mol
DOCKED: USER    (4) Unbound System's Energy  [=(2)] =   -1.41 kcal/mol
DOCKED: USER    
DOCKED: USER    
DOCKED: USER    NEWDPF move ligand.pdbqt
DOCKED: USER    NEWDPF about -0.023000 0.069000 -0.054000
DOCKED: USER    NEWDPF tran0 16.167449 -13.132566 1.151413
DOCKED: USER    NEWDPF quaternion0 -0.061324 0.144803 -0.376730 -0.912878
DOCKED: USER    NEWDPF axisangle0 -0.150219 0.354708 -0.922831 -48.187725
DOCKED: USER    NEWDPF quat0 -0.150219 0.354708 -0.922831 -48.187725
DOCKED: USER    NEWDPF dihe0 -145.98 -33.54 163.29 -70.59 -154.32 -175.05 
DOCKED: USER  keepresnum = 1 
DOCKED: USER  
DOCKED: REMARK  Name = 
DOCKED: REMARK  6 active torsions:
DOCKED: REMARK  status: ('A' for Active; 'I' for Inactive)
DOCKED: REMARK    1  A    between atoms: C_2  and  C_5
DOCKED: REMARK    2  A    between atoms: C_5  and  C_6
DOCKED: REMARK    3  A    between atoms: C_6  and  C_7
DOCKED: REMARK    4  A    between atoms: C_7  and  C_8
DOCKED: REMARK    5  A    between atoms: C_8  and  C_9
DOCKED: REMARK    6  A    between atoms: C_9  and  N_10
DOCKED: REMARK                            x       y       z     vdW  Elec       q    Type
DOCKED: REMARK                         _______ _______ _______ _____ _____    ______ ____
DOCKED: USER                              x       y       z     vdW  Elec       q    Type
DOCKED: USER                           _______ _______ _______ _____ _____    ______ ____
DOCKED: ROOT
DOCKED: ATOM      1  N   UNL     1      16.213 -12.220   1.049 -0.45 +0.00    +0.000 N 
DOCKED: ATOM      2  C   UNL     1      14.878 -12.277   0.513 -0.50 +0.00    +0.000 C 
DOCKED: ATOM      3  C   UNL     1      13.816 -11.410   1.075 -0.37 +0.00    +0.000 A 
DOCKED: ATOM      4  C   UNL     1      12.516 -11.434   0.540 -0.36 +0.00    +0.000 A 
DOCKED: ATOM      5  C   UNL     1      11.516 -10.618   1.070 -0.27 +0.00    +0.000 A 
DOCKED: ATOM      6  C   UNL     1      11.794  -9.767   2.139 -0.17 +0.00    +0.000 A 
DOCKED: ATOM      7  C   UNL     1      13.082  -9.725   2.691 -0.22 +0.00    +0.000 A 
DOCKED: ATOM      8  C   UNL     1      13.361  -8.872   3.767 -0.25 +0.00    +0.000 A 
DOCKED: ATOM      9  C   UNL     1      14.642  -8.832   4.319 -0.36 +0.00    +0.000 A 
DOCKED: ATOM     10  C   UNL     1      15.656  -9.640   3.802 -0.36 +0.00    +0.000 A 
DOCKED: ATOM     11  C   UNL     1      15.402 -10.505   2.722 -0.39 +0.00    +0.000 A 
DOCKED: ATOM     12  C   UNL     1      14.107 -10.551   2.159 -0.31 +0.00    +0.000 A 
DOCKED: ATOM     13  O   UNL     1      14.609 -13.067  -0.434 -0.62 +0.00    +0.000 OA
DOCKED: ATOM     14  C   UNL     1      16.478 -11.362   2.176 -0.44 +0.00    +0.000 C 
DOCKED: ATOM     15  O   UNL     1      17.626 -11.343   2.700 -0.49 +0.00    +0.000 OA
DOCKED: ENDROOT
DOCKED: BRANCH   1  16
DOCKED: ATOM     16  C   UNL     1      17.264 -13.102   0.523 -0.30 +0.00    +0.000 C 
DOCKED: BRANCH  16  17
DOCKED: ATOM     17  C   UNL     1      18.110 -12.356  -0.515 -0.45 -0.00    +0.000 C 
DOCKED: BRANCH  17  18
DOCKED: ATOM     18  C   UNL     1      18.076 -10.843  -0.271 -0.40 -0.00    +0.000 C 
DOCKED: BRANCH  18  19
DOCKED: ATOM     19  C   UNL     1      19.434 -10.339   0.240 -0.43 -0.00    +0.000 C 
DOCKED: BRANCH  19  20
DOCKED: ATOM     20  C   UNL     1      20.350 -11.486   0.688 -0.65 -0.00    +0.000 C 
DOCKED: BRANCH  20  22
DOCKED: ATOM     21  O   UNL     1      20.266 -12.760   2.708 -1.50 -0.00    +0.000 OA
DOCKED: ATOM     22  C   UNL     1      20.384 -11.621   2.183 -0.77 -0.00    +0.000 C 
DOCKED: ATOM     23  N   UNL     1      20.581 -10.471   3.009 -0.60 -0.00    +0.000 N 
DOCKED: ATOM     24  O   UNL     1      20.628 -10.595   4.356 -0.90 -0.00    +0.000 OA
DOCKED: ATOM     25  H   UNL     1      20.684  -9.583   2.596 -0.54 -0.00    +0.000 HD
DOCKED: ENDBRANCH  20  22
DOCKED: ENDBRANCH  19  20
DOCKED: ENDBRANCH  18  19
DOCKED: ENDBRANCH  17  18
DOCKED: ENDBRANCH  16  17
DOCKED: ENDBRANCH   1  16
DOCKED: TORSDOF 6
DOCKED: TER
DOCKED: ENDMDL
________________________________________________________________________________


	BEGINNING GENETIC ALGORITHM DOCKING 60 of 100
Run: 60 Seed: 954597804 1097441195 [ Run 60 of 100 GA/GALS ]
Beginning LAMARCKIAN GENETIC ALGORITHM (LGA), with a maximum of 2500000 energy evaluations.

Final-Value: -12.231


	FINAL GENETIC ALGORITHM DOCKED STATE
	_______________________________________________


Detailed state:  trans 13.605 -9.120 0.699 quatxyzw 0.488426 0.099378 -0.780211 -0.377934 center -0.023 0.069 -0.054 ntor 6 169.5945 -177.3399 -63.6004 -25.7313 -174.2542 -175.0923
State:	 13.605  -9.120   0.699   0.528  0.107 -0.843 -135.588    169.59 -177.34  -63.60  -25.73 -174.25 -175.09

DOCKED: MODEL       60
DOCKED: USER    Run = 60
DOCKED: USER    DPF = ligand_dock.biased.dpf
DOCKED: USER  
DOCKED: USER    Estimated Free Energy of Binding    =   -9.46 kcal/mol  [=(1)+(2)+(3)-(4)]
DOCKED: USER    Estimated Inhibition Constant, Ki   =  116.97 nM (nanomolar)  [Temperature = 298.15 K]
DOCKED: USER    
DOCKED: USER    (1) Final Intermolecular Energy     =  -11.25 kcal/mol
DOCKED: USER        vdW + Hbond + desolv Energy     =  -11.25 kcal/mol
DOCKED: USER        Electrostatic Energy            =   +0.00 kcal/mol
DOCKED: USER    (2) Final Total Internal Energy     =   -0.98 kcal/mol
DOCKED: USER    (3) Torsional Free Energy           =   +1.79 kcal/mol
DOCKED: USER    (4) Unbound System's Energy  [=(2)] =   -0.98 kcal/mol
DOCKED: USER    
DOCKED: USER    
DOCKED: USER    NEWDPF move ligand.pdbqt
DOCKED: USER    NEWDPF about -0.023000 0.069000 -0.054000
DOCKED: USER    NEWDPF tran0 13.604812 -9.119967 0.699051
DOCKED: USER    NEWDPF quaternion0 0.488426 0.099378 -0.780211 -0.377934
DOCKED: USER    NEWDPF axisangle0 0.527554 0.107339 -0.842713 -135.588422
DOCKED: USER    NEWDPF quat0 0.527554 0.107339 -0.842713 -135.588422
DOCKED: USER    NEWDPF dihe0 169.59 -177.34 -63.60 -25.73 -174.25 -175.09 
DOCKED: USER  keepresnum = 1 
DOCKED: USER  
DOCKED: REMARK  Name = 
DOCKED: REMARK  6 active torsions:
DOCKED: REMARK  status: ('A' for Active; 'I' for Inactive)
DOCKED: REMARK    1  A    between atoms: C_2  and  C_5
DOCKED: REMARK    2  A    between atoms: C_5  and  C_6
DOCKED: REMARK    3  A    between atoms: C_6  and  C_7
DOCKED: REMARK    4  A    between atoms: C_7  and  C_8
DOCKED: REMARK    5  A    between atoms: C_8  and  C_9
DOCKED: REMARK    6  A    between atoms: C_9  and  N_10
DOCKED: REMARK                            x       y       z     vdW  Elec       q    Type
DOCKED: REMARK                         _______ _______ _______ _____ _____    ______ ____
DOCKED: USER                              x       y       z     vdW  Elec       q    Type
DOCKED: USER                           _______ _______ _______ _____ _____    ______ ____
DOCKED: ROOT
DOCKED: ATOM      1  N   UNL     1      14.281  -9.273   1.303 -0.21 +0.00    +0.000 N 
DOCKED: ATOM      2  C   UNL     1      14.531  -7.855   1.285 -0.26 +0.00    +0.000 C 
DOCKED: ATOM      3  C   UNL     1      14.581  -7.095   2.556 -0.24 +0.00    +0.000 A 
DOCKED: ATOM      4  C   UNL     1      14.855  -5.716   2.555 -0.12 +0.00    +0.000 A 
DOCKED: ATOM      5  C   UNL     1      14.902  -5.000   3.752 -0.30 +0.00    +0.000 A 
DOCKED: ATOM      6  C   UNL     1      14.676  -5.646   4.967 -0.39 +0.00    +0.000 A 
DOCKED: ATOM      7  C   UNL     1      14.399  -7.020   4.995 -0.38 +0.00    +0.000 A 
DOCKED: ATOM      8  C   UNL     1      14.170  -7.668   6.217 -0.29 +0.00    +0.000 A 
DOCKED: ATOM      9  C   UNL     1      13.891  -9.035   6.246 -0.46 +0.00    +0.000 A 
DOCKED: ATOM     10  C   UNL     1      13.841  -9.768   5.059 -0.32 +0.00    +0.000 A 
DOCKED: ATOM     11  C   UNL     1      14.069  -9.141   3.821 -0.31 +0.00    +0.000 A 
DOCKED: ATOM     12  C   UNL     1      14.351  -7.757   3.784 -0.28 +0.00    +0.000 A 
DOCKED: ATOM     13  O   UNL     1      14.706  -7.257   0.188 -0.28 -0.00    +0.000 OA
DOCKED: ATOM     14  C   UNL     1      14.015  -9.920   2.562 -0.32 +0.00    +0.000 C 
DOCKED: ATOM     15  O   UNL     1      13.732 -11.150   2.594 -0.43 +0.00    +0.000 OA
DOCKED: ENDROOT
DOCKED: BRANCH   1  16
DOCKED: ATOM     16  C   UNL     1      14.194 -10.029   0.046 -0.25 +0.00    +0.000 C 
DOCKED: BRANCH  16  17
DOCKED: ATOM     17  C   UNL     1      15.535 -10.703  -0.261 -0.32 +0.00    +0.000 C 
DOCKED: BRANCH  17  18
DOCKED: ATOM     18  C   UNL     1      16.526 -10.511   0.893 -0.36 +0.00    +0.000 C 
DOCKED: BRANCH  18  19
DOCKED: ATOM     19  C   UNL     1      17.571 -11.637   0.912 -0.50 +0.00    +0.000 C 
DOCKED: BRANCH  19  20
DOCKED: ATOM     20  C   UNL     1      19.001 -11.106   0.741 -0.57 -0.00    +0.000 C 
DOCKED: BRANCH  20  22
DOCKED: ATOM     21  O   UNL     1      20.476 -12.396   2.110 -1.86 -0.00    +0.000 OA
DOCKED: ATOM     22  C   UNL     1      19.827 -11.324   1.976 -0.73 -0.00    +0.000 C 
DOCKED: ATOM     23  N   UNL     1      19.907 -10.311   2.981 -0.61 -0.00    +0.000 N 
DOCKED: ATOM     24  O   UNL     1      20.665 -10.500   4.085 -1.00 -0.00    +0.000 OA
DOCKED: ATOM     25  H   UNL     1      19.409  -9.469   2.868 -0.47 -0.00    +0.000 HD
DOCKED: ENDBRANCH  20  22
DOCKED: ENDBRANCH  19  20
DOCKED: ENDBRANCH  18  19
DOCKED: ENDBRANCH  17  18
DOCKED: ENDBRANCH  16  17
DOCKED: ENDBRANCH   1  16
DOCKED: TORSDOF 6
DOCKED: TER
DOCKED: ENDMDL
________________________________________________________________________________


	BEGINNING GENETIC ALGORITHM DOCKING 61 of 100
Run: 61 Seed: 1271978942 634148911 [ Run 61 of 100 GA/GALS ]
Beginning LAMARCKIAN GENETIC ALGORITHM (LGA), with a maximum of 2500000 energy evaluations.

Final-Value: -13.076


	FINAL GENETIC ALGORITHM DOCKED STATE
	_______________________________________________


Detailed state:  trans 17.937 -11.654 -2.414 quatxyzw 0.452678 0.183254 -0.273991 -0.828510 center -0.023 0.069 -0.054 ntor 6 120.0439 -137.6964 34.7496 -178.8105 -88.7290 154.3363
State:	 17.937 -11.654  -2.414   0.808  0.327 -0.489 -68.108    120.04 -137.70   34.75 -178.81  -88.73  154.34

DOCKED: MODEL       61
DOCKED: USER    Run = 61
DOCKED: USER    DPF = ligand_dock.biased.dpf
DOCKED: USER  
DOCKED: USER    Estimated Free Energy of Binding    =   -9.80 kcal/mol  [=(1)+(2)+(3)-(4)]
DOCKED: USER    Estimated Inhibition Constant, Ki   =   65.13 nM (nanomolar)  [Temperature = 298.15 K]
DOCKED: USER    
DOCKED: USER    (1) Final Intermolecular Energy     =  -11.59 kcal/mol
DOCKED: USER        vdW + Hbond + desolv Energy     =  -11.59 kcal/mol
DOCKED: USER        Electrostatic Energy            =   +0.00 kcal/mol
DOCKED: USER    (2) Final Total Internal Energy     =   -1.48 kcal/mol
DOCKED: USER    (3) Torsional Free Energy           =   +1.79 kcal/mol
DOCKED: USER    (4) Unbound System's Energy  [=(2)] =   -1.48 kcal/mol
DOCKED: USER    
DOCKED: USER    
DOCKED: USER    NEWDPF move ligand.pdbqt
DOCKED: USER    NEWDPF about -0.023000 0.069000 -0.054000
DOCKED: USER    NEWDPF tran0 17.936777 -11.654359 -2.413905
DOCKED: USER    NEWDPF quaternion0 0.452678 0.183254 -0.273991 -0.828510
DOCKED: USER    NEWDPF axisangle0 0.808391 0.327255 -0.489293 -68.107994
DOCKED: USER    NEWDPF quat0 0.808391 0.327255 -0.489293 -68.107994
DOCKED: USER    NEWDPF dihe0 120.04 -137.70 34.75 -178.81 -88.73 154.34 
DOCKED: USER  keepresnum = 1 
DOCKED: USER  
DOCKED: REMARK  Name = 
DOCKED: REMARK  6 active torsions:
DOCKED: REMARK  status: ('A' for Active; 'I' for Inactive)
DOCKED: REMARK    1  A    between atoms: C_2  and  C_5
DOCKED: REMARK    2  A    between atoms: C_5  and  C_6
DOCKED: REMARK    3  A    between atoms: C_6  and  C_7
DOCKED: REMARK    4  A    between atoms: C_7  and  C_8
DOCKED: REMARK    5  A    between atoms: C_8  and  C_9
DOCKED: REMARK    6  A    between atoms: C_9  and  N_10
DOCKED: REMARK                            x       y       z     vdW  Elec       q    Type
DOCKED: REMARK                         _______ _______ _______ _____ _____    ______ ____
DOCKED: USER                              x       y       z     vdW  Elec       q    Type
DOCKED: USER                           _______ _______ _______ _____ _____    ______ ____
DOCKED: ROOT
DOCKED: ATOM      1  N   UNL     1      17.904 -11.107  -1.675 -0.28 -0.00    +0.000 N 
DOCKED: ATOM      2  C   UNL     1      16.764 -10.467  -2.280 -0.24 -0.00    +0.000 C 
DOCKED: ATOM      3  C   UNL     1      15.504 -10.322  -1.515 -0.26 -0.00    +0.000 A 
DOCKED: ATOM      4  C   UNL     1      14.394  -9.671  -2.082 -0.22 -0.00    +0.000 A 
DOCKED: ATOM      5  C   UNL     1      13.206  -9.536  -1.362 -0.18 -0.00    +0.000 A 
DOCKED: ATOM      6  C   UNL     1      13.105 -10.046  -0.069 -0.19 +0.00    +0.000 A 
DOCKED: ATOM      7  C   UNL     1      14.197 -10.701   0.519 -0.26 +0.00    +0.000 A 
DOCKED: ATOM      8  C   UNL     1      14.094 -11.216   1.819 -0.37 +0.00    +0.000 A 
DOCKED: ATOM      9  C   UNL     1      15.179 -11.870   2.403 -0.44 +0.00    +0.000 A 
DOCKED: ATOM     10  C   UNL     1      16.376 -12.015   1.699 -0.35 +0.00    +0.000 A 
DOCKED: ATOM     11  C   UNL     1      16.505 -11.506   0.394 -0.37 +0.00    +0.000 A 
DOCKED: ATOM     12  C   UNL     1      15.410 -10.843  -0.204 -0.28 +0.00    +0.000 A 
DOCKED: ATOM     13  O   UNL     1      16.837 -10.029  -3.461 -0.27 -0.00    +0.000 OA
DOCKED: ATOM     14  C   UNL     1      17.774 -11.661  -0.352 -0.47 -0.00    +0.000 C 
DOCKED: ATOM     15  O   UNL     1      18.741 -12.281   0.172 -0.66 -0.00    +0.000 OA
DOCKED: ENDROOT
DOCKED: BRANCH   1  16
DOCKED: ATOM     16  C   UNL     1      19.147 -11.288  -2.438 -0.31 -0.00    +0.000 C 
DOCKED: BRANCH  16  17
DOCKED: ATOM     17  C   UNL     1      19.789  -9.929  -2.733 -0.42 -0.00    +0.000 C 
DOCKED: BRANCH  17  18
DOCKED: ATOM     18  C   UNL     1      20.780  -9.536  -1.631 -0.58 -0.00    +0.000 C 
DOCKED: BRANCH  18  19
DOCKED: ATOM     19  C   UNL     1      20.877 -10.634  -0.561 -0.65 -0.00    +0.000 C 
DOCKED: BRANCH  19  20
DOCKED: ATOM     20  C   UNL     1      21.016 -10.057   0.854 -0.47 -0.00    +0.000 C 
DOCKED: BRANCH  20  22
DOCKED: ATOM     21  O   UNL     1      20.707 -12.238   1.780 -1.65 -0.00    +0.000 OA
DOCKED: ATOM     22  C   UNL     1      20.490 -11.002   1.895 -0.71 -0.00    +0.000 C 
DOCKED: ATOM     23  N   UNL     1      19.775 -10.505   3.029 -0.66 -0.00    +0.000 N 
DOCKED: ATOM     24  O   UNL     1      19.315 -11.355   3.976 -0.79 -0.00    +0.000 OA
DOCKED: ATOM     25  H   UNL     1      19.616  -9.537   3.122 -0.50 -0.00    +0.000 HD
DOCKED: ENDBRANCH  20  22
DOCKED: ENDBRANCH  19  20
DOCKED: ENDBRANCH  18  19
DOCKED: ENDBRANCH  17  18
DOCKED: ENDBRANCH  16  17
DOCKED: ENDBRANCH   1  16
DOCKED: TORSDOF 6
DOCKED: TER
DOCKED: ENDMDL
________________________________________________________________________________


	BEGINNING GENETIC ALGORITHM DOCKING 62 of 100
Run: 62 Seed: 1431400640 1135681530 [ Run 62 of 100 GA/GALS ]
Beginning LAMARCKIAN GENETIC ALGORITHM (LGA), with a maximum of 2500000 energy evaluations.

Final-Value: -12.994


	FINAL GENETIC ALGORITHM DOCKED STATE
	_______________________________________________


Detailed state:  trans 15.703 -10.873 -0.920 quatxyzw 0.038893 -0.051043 -0.997896 0.009259 center -0.023 0.069 -0.054 ntor 6 -108.6249 -161.9116 91.0876 78.4133 -119.8005 -27.4875
State:	 15.703 -10.873  -0.920   0.039 -0.051 -0.998 178.939   -108.62 -161.91   91.09   78.41 -119.80  -27.49

DOCKED: MODEL       62
DOCKED: USER    Run = 62
DOCKED: USER    DPF = ligand_dock.biased.dpf
DOCKED: USER  
DOCKED: USER    Estimated Free Energy of Binding    =   -8.74 kcal/mol  [=(1)+(2)+(3)-(4)]
DOCKED: USER    Estimated Inhibition Constant, Ki   =  394.47 nM (nanomolar)  [Temperature = 298.15 K]
DOCKED: USER    
DOCKED: USER    (1) Final Intermolecular Energy     =  -10.53 kcal/mol
DOCKED: USER        vdW + Hbond + desolv Energy     =  -10.53 kcal/mol
DOCKED: USER        Electrostatic Energy            =   +0.00 kcal/mol
DOCKED: USER    (2) Final Total Internal Energy     =   -2.47 kcal/mol
DOCKED: USER    (3) Torsional Free Energy           =   +1.79 kcal/mol
DOCKED: USER    (4) Unbound System's Energy  [=(2)] =   -2.47 kcal/mol
DOCKED: USER    
DOCKED: USER    
DOCKED: USER    NEWDPF move ligand.pdbqt
DOCKED: USER    NEWDPF about -0.023000 0.069000 -0.054000
DOCKED: USER    NEWDPF tran0 15.703474 -10.872500 -0.920026
DOCKED: USER    NEWDPF quaternion0 0.038893 -0.051043 -0.997896 0.009259
DOCKED: USER    NEWDPF axisangle0 0.038895 -0.051045 -0.997939 178.938990
DOCKED: USER    NEWDPF quat0 0.038895 -0.051045 -0.997939 178.938990
DOCKED: USER    NEWDPF dihe0 -108.62 -161.91 91.09 78.41 -119.80 -27.49 
DOCKED: USER  keepresnum = 1 
DOCKED: USER  
DOCKED: REMARK  Name = 
DOCKED: REMARK  6 active torsions:
DOCKED: REMARK  status: ('A' for Active; 'I' for Inactive)
DOCKED: REMARK    1  A    between atoms: C_2  and  C_5
DOCKED: REMARK    2  A    between atoms: C_5  and  C_6
DOCKED: REMARK    3  A    between atoms: C_6  and  C_7
DOCKED: REMARK    4  A    between atoms: C_7  and  C_8
DOCKED: REMARK    5  A    between atoms: C_8  and  C_9
DOCKED: REMARK    6  A    between atoms: C_9  and  N_10
DOCKED: REMARK                            x       y       z     vdW  Elec       q    Type
DOCKED: REMARK                         _______ _______ _______ _____ _____    ______ ____
DOCKED: USER                              x       y       z     vdW  Elec       q    Type
DOCKED: USER                           _______ _______ _______ _____ _____    ______ ____
DOCKED: ROOT
DOCKED: ATOM      1  N   UNL     1      16.283 -11.586  -0.883 -0.32 +0.00    +0.000 N 
DOCKED: ATOM      2  C   UNL     1      17.113 -10.879  -1.824 -0.17 -0.00    +0.000 C 
DOCKED: ATOM      3  C   UNL     1      18.547 -10.659  -1.527 -0.31 -0.00    +0.000 A 
DOCKED: ATOM      4  C   UNL     1      19.375  -9.997  -2.451 -0.27 -0.00    +0.000 A 
DOCKED: ATOM      5  C   UNL     1      20.727  -9.789  -2.171 -0.49 -0.00    +0.000 A 
DOCKED: ATOM      6  C   UNL     1      21.273 -10.235  -0.969 -0.60 -0.00    +0.000 A 
DOCKED: ATOM      7  C   UNL     1      20.468 -10.897  -0.030 -0.58 -0.00    +0.000 A 
DOCKED: ATOM      8  C   UNL     1      21.018 -11.343   1.180 -0.51 -0.00    +0.000 A 
DOCKED: ATOM      9  C   UNL     1      20.217 -11.998   2.116 -0.69 -0.00    +0.000 A 
DOCKED: ATOM     10  C   UNL     1      18.863 -12.216   1.854 -0.41 -0.00    +0.000 A 
DOCKED: ATOM     11  C   UNL     1      18.288 -11.779   0.647 -0.49 -0.00    +0.000 A 
DOCKED: ATOM     12  C   UNL     1      19.094 -11.114  -0.305 -0.46 -0.00    +0.000 A 
DOCKED: ATOM     13  O   UNL     1      16.619 -10.444  -2.901 -0.28 -0.00    +0.000 OA
DOCKED: ATOM     14  C   UNL     1      16.852 -12.010   0.370 -0.49 +0.00    +0.000 C 
DOCKED: ATOM     15  O   UNL     1      16.128 -12.576   1.235 -0.96 +0.00    +0.000 OA
DOCKED: ENDROOT
DOCKED: BRANCH   1  16
DOCKED: ATOM     16  C   UNL     1      14.851 -11.778  -1.151 -0.41 +0.00    +0.000 C 
DOCKED: BRANCH  16  17
DOCKED: ATOM     17  C   UNL     1      14.012 -11.025  -0.113 -0.34 +0.00    +0.000 C 
DOCKED: BRANCH  17  18
DOCKED: ATOM     18  C   UNL     1      14.308  -9.522  -0.150 -0.24 +0.00    +0.000 C 
DOCKED: BRANCH  18  19
DOCKED: ATOM     19  C   UNL     1      15.248  -9.119   0.996 -0.28 +0.00    +0.000 C 
DOCKED: BRANCH  19  20
DOCKED: ATOM     20  C   UNL     1      14.488  -8.826   2.297 -0.28 +0.00    +0.000 C 
DOCKED: BRANCH  20  22
DOCKED: ATOM     21  O   UNL     1      14.672  -9.312   4.630 -0.46 +0.00    +0.000 OA
DOCKED: ATOM     22  C   UNL     1      15.071  -9.571   3.463 -0.41 +0.00    +0.000 C 
DOCKED: ATOM     23  N   UNL     1      16.051 -10.590   3.253 -0.45 +0.00    +0.000 N 
DOCKED: ATOM     24  O   UNL     1      16.564 -11.273   4.303 -0.61 +0.00    +0.000 OA
DOCKED: ATOM     25  H   UNL     1      16.353 -10.798   2.340 -0.00 +0.00    +0.000 HD
DOCKED: ENDBRANCH  20  22
DOCKED: ENDBRANCH  19  20
DOCKED: ENDBRANCH  18  19
DOCKED: ENDBRANCH  17  18
DOCKED: ENDBRANCH  16  17
DOCKED: ENDBRANCH   1  16
DOCKED: TORSDOF 6
DOCKED: TER
DOCKED: ENDMDL
________________________________________________________________________________


	BEGINNING GENETIC ALGORITHM DOCKING 63 of 100
Run: 63 Seed: 1736195500 1849167331 [ Run 63 of 100 GA/GALS ]
Beginning LAMARCKIAN GENETIC ALGORITHM (LGA), with a maximum of 2500000 energy evaluations.

Final-Value: -13.478


	FINAL GENETIC ALGORITHM DOCKED STATE
	_______________________________________________


Detailed state:  trans 18.012 -11.533 -2.619 quatxyzw -0.478886 -0.193718 0.316183 0.795720 center -0.023 0.069 -0.054 ntor 6 -28.1869 -158.3711 65.0524 167.1895 -69.8143 140.4067
State:	 18.012 -11.533  -2.619  -0.791 -0.320  0.522 74.553    -28.19 -158.37   65.05  167.19  -69.81  140.41

DOCKED: MODEL       63
DOCKED: USER    Run = 63
DOCKED: USER    DPF = ligand_dock.biased.dpf
DOCKED: USER  
DOCKED: USER    Estimated Free Energy of Binding    =   -9.90 kcal/mol  [=(1)+(2)+(3)-(4)]
DOCKED: USER    Estimated Inhibition Constant, Ki   =   55.17 nM (nanomolar)  [Temperature = 298.15 K]
DOCKED: USER    
DOCKED: USER    (1) Final Intermolecular Energy     =  -11.69 kcal/mol
DOCKED: USER        vdW + Hbond + desolv Energy     =  -11.69 kcal/mol
DOCKED: USER        Electrostatic Energy            =   +0.00 kcal/mol
DOCKED: USER    (2) Final Total Internal Energy     =   -1.79 kcal/mol
DOCKED: USER    (3) Torsional Free Energy           =   +1.79 kcal/mol
DOCKED: USER    (4) Unbound System's Energy  [=(2)] =   -1.79 kcal/mol
DOCKED: USER    
DOCKED: USER    
DOCKED: USER    NEWDPF move ligand.pdbqt
DOCKED: USER    NEWDPF about -0.023000 0.069000 -0.054000
DOCKED: USER    NEWDPF tran0 18.011686 -11.532564 -2.619439
DOCKED: USER    NEWDPF quaternion0 -0.478886 -0.193718 0.316183 0.795720
DOCKED: USER    NEWDPF axisangle0 -0.790678 -0.319843 0.522043 74.553350
DOCKED: USER    NEWDPF quat0 -0.790678 -0.319843 0.522043 74.553350
DOCKED: USER    NEWDPF dihe0 -28.19 -158.37 65.05 167.19 -69.81 140.41 
DOCKED: USER  keepresnum = 1 
DOCKED: USER  
DOCKED: REMARK  Name = 
DOCKED: REMARK  6 active torsions:
DOCKED: REMARK  status: ('A' for Active; 'I' for Inactive)
DOCKED: REMARK    1  A    between atoms: C_2  and  C_5
DOCKED: REMARK    2  A    between atoms: C_5  and  C_6
DOCKED: REMARK    3  A    between atoms: C_6  and  C_7
DOCKED: REMARK    4  A    between atoms: C_7  and  C_8
DOCKED: REMARK    5  A    between atoms: C_8  and  C_9
DOCKED: REMARK    6  A    between atoms: C_9  and  N_10
DOCKED: REMARK                            x       y       z     vdW  Elec       q    Type
DOCKED: REMARK                         _______ _______ _______ _____ _____    ______ ____
DOCKED: USER                              x       y       z     vdW  Elec       q    Type
DOCKED: USER                           _______ _______ _______ _____ _____    ______ ____
DOCKED: ROOT
DOCKED: ATOM      1  N   UNL     1      18.065 -11.034  -1.848 -0.28 -0.00    +0.000 N 
DOCKED: ATOM      2  C   UNL     1      16.958 -10.260  -2.348 -0.22 -0.00    +0.000 C 
DOCKED: ATOM      3  C   UNL     1      15.756 -10.058  -1.506 -0.24 -0.00    +0.000 A 
DOCKED: ATOM      4  C   UNL     1      14.682  -9.278  -1.970 -0.21 -0.00    +0.000 A 
DOCKED: ATOM      5  C   UNL     1      13.549  -9.088  -1.178 -0.17 -0.00    +0.000 A 
DOCKED: ATOM      6  C   UNL     1      13.467  -9.671   0.086 -0.17 +0.00    +0.000 A 
DOCKED: ATOM      7  C   UNL     1      14.525 -10.455   0.571 -0.25 +0.00    +0.000 A 
DOCKED: ATOM      8  C   UNL     1      14.442 -11.043   1.840 -0.36 +0.00    +0.000 A 
DOCKED: ATOM      9  C   UNL     1      15.491 -11.825   2.322 -0.42 +0.00    +0.000 A 
DOCKED: ATOM     10  C   UNL     1      16.634 -12.026   1.545 -0.35 +0.00    +0.000 A 
DOCKED: ATOM     11  C   UNL     1      16.742 -11.446   0.268 -0.37 +0.00    +0.000 A 
DOCKED: ATOM     12  C   UNL     1      15.682 -10.653  -0.227 -0.28 +0.00    +0.000 A 
DOCKED: ATOM     13  O   UNL     1      17.011  -9.754  -3.503 -0.26 -0.00    +0.000 OA
DOCKED: ATOM     14  C   UNL     1      17.953 -11.660  -0.556 -0.46 -0.00    +0.000 C 
DOCKED: ATOM     15  O   UNL     1      18.886 -12.394  -0.125 -0.63 -0.00    +0.000 OA
DOCKED: ENDROOT
DOCKED: BRANCH   1  16
DOCKED: ATOM     16  C   UNL     1      19.247 -11.271  -2.689 -0.32 -0.00    +0.000 C 
DOCKED: BRANCH  16  17
DOCKED: ATOM     17  C   UNL     1      19.793  -9.942  -3.221 -0.41 -0.00    +0.000 C 
DOCKED: BRANCH  17  18
DOCKED: ATOM     18  C   UNL     1      21.136  -9.596  -2.569 -0.54 -0.00    +0.000 C 
DOCKED: BRANCH  18  19
DOCKED: ATOM     19  C   UNL     1      21.408 -10.500  -1.357 -0.63 -0.00    +0.000 C 
DOCKED: BRANCH  19  20
DOCKED: ATOM     20  C   UNL     1      21.365  -9.727  -0.032 -0.68 -0.00    +0.000 C 
DOCKED: BRANCH  20  22
DOCKED: ATOM     21  O   UNL     1      19.422  -9.975   1.336 -0.58 -0.00    +0.000 OA
DOCKED: ATOM     22  C   UNL     1      20.545 -10.440   1.003 -0.66 -0.00    +0.000 C 
DOCKED: ATOM     23  N   UNL     1      21.016 -11.657   1.587 -0.70 -0.00    +0.000 N 
DOCKED: ATOM     24  O   UNL     1      20.269 -12.309   2.507 -1.97 -0.00    +0.000 OA
DOCKED: ATOM     25  H   UNL     1      21.888 -12.024   1.316 -0.55 -0.00    +0.000 HD
DOCKED: ENDBRANCH  20  22
DOCKED: ENDBRANCH  19  20
DOCKED: ENDBRANCH  18  19
DOCKED: ENDBRANCH  17  18
DOCKED: ENDBRANCH  16  17
DOCKED: ENDBRANCH   1  16
DOCKED: TORSDOF 6
DOCKED: TER
DOCKED: ENDMDL
________________________________________________________________________________


	BEGINNING GENETIC ALGORITHM DOCKING 64 of 100
Run: 64 Seed: 2004465709 900833113 [ Run 64 of 100 GA/GALS ]
Beginning LAMARCKIAN GENETIC ALGORITHM (LGA), with a maximum of 2500000 energy evaluations.

Final-Value: -12.764


	FINAL GENETIC ALGORITHM DOCKED STATE
	_______________________________________________


Detailed state:  trans 14.715 -11.329 0.491 quatxyzw -0.398521 -0.010699 0.693022 0.600656 center -0.023 0.069 -0.054 ntor 6 -135.6909 -49.6907 -159.0842 -36.6044 118.0336 179.9511
State:	 14.715 -11.329   0.491  -0.498 -0.013  0.867 106.166   -135.69  -49.69 -159.08  -36.60  118.03  179.95

DOCKED: MODEL       64
DOCKED: USER    Run = 64
DOCKED: USER    DPF = ligand_dock.biased.dpf
DOCKED: USER  
DOCKED: USER    Estimated Free Energy of Binding    =   -9.72 kcal/mol  [=(1)+(2)+(3)-(4)]
DOCKED: USER    Estimated Inhibition Constant, Ki   =   74.85 nM (nanomolar)  [Temperature = 298.15 K]
DOCKED: USER    
DOCKED: USER    (1) Final Intermolecular Energy     =  -11.51 kcal/mol
DOCKED: USER        vdW + Hbond + desolv Energy     =  -11.51 kcal/mol
DOCKED: USER        Electrostatic Energy            =   +0.00 kcal/mol
DOCKED: USER    (2) Final Total Internal Energy     =   -1.25 kcal/mol
DOCKED: USER    (3) Torsional Free Energy           =   +1.79 kcal/mol
DOCKED: USER    (4) Unbound System's Energy  [=(2)] =   -1.25 kcal/mol
DOCKED: USER    
DOCKED: USER    
DOCKED: USER    NEWDPF move ligand.pdbqt
DOCKED: USER    NEWDPF about -0.023000 0.069000 -0.054000
DOCKED: USER    NEWDPF tran0 14.715017 -11.329415 0.491367
DOCKED: USER    NEWDPF quaternion0 -0.398521 -0.010699 0.693022 0.600656
DOCKED: USER    NEWDPF axisangle0 -0.498458 -0.013381 0.866811 106.166258
DOCKED: USER    NEWDPF quat0 -0.498458 -0.013381 0.866811 106.166258
DOCKED: USER    NEWDPF dihe0 -135.69 -49.69 -159.08 -36.60 118.03 179.95 
DOCKED: USER  keepresnum = 1 
DOCKED: USER  
DOCKED: REMARK  Name = 
DOCKED: REMARK  6 active torsions:
DOCKED: REMARK  status: ('A' for Active; 'I' for Inactive)
DOCKED: REMARK    1  A    between atoms: C_2  and  C_5
DOCKED: REMARK    2  A    between atoms: C_5  and  C_6
DOCKED: REMARK    3  A    between atoms: C_6  and  C_7
DOCKED: REMARK    4  A    between atoms: C_7  and  C_8
DOCKED: REMARK    5  A    between atoms: C_8  and  C_9
DOCKED: REMARK    6  A    between atoms: C_9  and  N_10
DOCKED: REMARK                            x       y       z     vdW  Elec       q    Type
DOCKED: REMARK                         _______ _______ _______ _____ _____    ______ ____
DOCKED: USER                              x       y       z     vdW  Elec       q    Type
DOCKED: USER                           _______ _______ _______ _____ _____    ______ ____
DOCKED: ROOT
DOCKED: ATOM      1  N   UNL     1      15.324 -10.997   1.095 -0.31 +0.00    +0.000 N 
DOCKED: ATOM      2  C   UNL     1      15.107  -9.702   0.506 -0.28 +0.00    +0.000 C 
DOCKED: ATOM      3  C   UNL     1      14.752  -8.547   1.364 -0.24 +0.00    +0.000 A 
DOCKED: ATOM      4  C   UNL     1      14.567  -7.271   0.804 -0.17 -0.00    +0.000 A 
DOCKED: ATOM      5  C   UNL     1      14.233  -6.183   1.613 -0.18 -0.00    +0.000 A 
DOCKED: ATOM      6  C   UNL     1      14.076  -6.350   2.988 -0.21 +0.00    +0.000 A 
DOCKED: ATOM      7  C   UNL     1      14.254  -7.614   3.570 -0.26 +0.00    +0.000 A 
DOCKED: ATOM      8  C   UNL     1      14.095  -7.782   4.953 -0.36 +0.00    +0.000 A 
DOCKED: ATOM      9  C   UNL     1      14.268  -9.039   5.532 -0.40 +0.00    +0.000 A 
DOCKED: ATOM     10  C   UNL     1      14.603 -10.139   4.740 -0.35 +0.00    +0.000 A 
DOCKED: ATOM     11  C   UNL     1      14.770  -9.996   3.351 -0.37 +0.00    +0.000 A 
DOCKED: ATOM     12  C   UNL     1      14.595  -8.726   2.757 -0.27 +0.00    +0.000 A 
DOCKED: ATOM     13  O   UNL     1      15.216  -9.548  -0.742 -0.28 -0.00    +0.000 OA
DOCKED: ATOM     14  C   UNL     1      15.125 -11.163   2.512 -0.48 +0.00    +0.000 C 
DOCKED: ATOM     15  O   UNL     1      15.250 -12.303   3.039 -0.56 +0.00    +0.000 OA
DOCKED: ENDROOT
DOCKED: BRANCH   1  16
DOCKED: ATOM     16  C   UNL     1      15.641 -12.156   0.248 -0.50 +0.00    +0.000 C 
DOCKED: BRANCH  16  17
DOCKED: ATOM     17  C   UNL     1      17.158 -12.317   0.117 -0.52 +0.00    +0.000 C 
DOCKED: BRANCH  17  18
DOCKED: ATOM     18  C   UNL     1      17.787 -11.095  -0.561 -0.41 -0.00    +0.000 C 
DOCKED: BRANCH  18  19
DOCKED: ATOM     19  C   UNL     1      19.162 -10.776   0.047 -0.51 -0.00    +0.000 C 
DOCKED: BRANCH  19  20
DOCKED: ATOM     20  C   UNL     1      19.810 -12.006   0.698 -0.59 -0.00    +0.000 C 
DOCKED: BRANCH  20  22
DOCKED: ATOM     21  O   UNL     1      19.893 -12.777   2.958 -1.42 -0.00    +0.000 OA
DOCKED: ATOM     22  C   UNL     1      20.033 -11.805   2.169 -0.77 -0.00    +0.000 C 
DOCKED: ATOM     23  N   UNL     1      20.434 -10.528   2.672 -0.64 -0.00    +0.000 N 
DOCKED: ATOM     24  O   UNL     1      20.651 -10.352   3.996 -0.93 -0.00    +0.000 OA
DOCKED: ATOM     25  H   UNL     1      20.553  -9.773   2.052 -0.51 -0.00    +0.000 HD
DOCKED: ENDBRANCH  20  22
DOCKED: ENDBRANCH  19  20
DOCKED: ENDBRANCH  18  19
DOCKED: ENDBRANCH  17  18
DOCKED: ENDBRANCH  16  17
DOCKED: ENDBRANCH   1  16
DOCKED: TORSDOF 6
DOCKED: TER
DOCKED: ENDMDL
________________________________________________________________________________


	BEGINNING GENETIC ALGORITHM DOCKING 65 of 100
Run: 65 Seed: 568341280 1398940201 [ Run 65 of 100 GA/GALS ]
Beginning LAMARCKIAN GENETIC ALGORITHM (LGA), with a maximum of 2500000 energy evaluations.

Final-Value: -13.168


	FINAL GENETIC ALGORITHM DOCKED STATE
	_______________________________________________


Detailed state:  trans 19.594 -12.252 1.283 quatxyzw 0.049191 -0.001451 -0.084308 -0.995224 center -0.023 0.069 -0.054 ntor 6 -177.4472 24.0125 20.6711 -11.3457 98.4585 170.9701
State:	 19.594 -12.252   1.283   0.504 -0.015 -0.864 -11.204   -177.45   24.01   20.67  -11.35   98.46  170.97

DOCKED: MODEL       65
DOCKED: USER    Run = 65
DOCKED: USER    DPF = ligand_dock.biased.dpf
DOCKED: USER  
DOCKED: USER    Estimated Free Energy of Binding    =  -10.34 kcal/mol  [=(1)+(2)+(3)-(4)]
DOCKED: USER    Estimated Inhibition Constant, Ki   =   26.38 nM (nanomolar)  [Temperature = 298.15 K]
DOCKED: USER    
DOCKED: USER    (1) Final Intermolecular Energy     =  -12.13 kcal/mol
DOCKED: USER        vdW + Hbond + desolv Energy     =  -12.13 kcal/mol
DOCKED: USER        Electrostatic Energy            =   +0.00 kcal/mol
DOCKED: USER    (2) Final Total Internal Energy     =   -1.04 kcal/mol
DOCKED: USER    (3) Torsional Free Energy           =   +1.79 kcal/mol
DOCKED: USER    (4) Unbound System's Energy  [=(2)] =   -1.04 kcal/mol
DOCKED: USER    
DOCKED: USER    
DOCKED: USER    NEWDPF move ligand.pdbqt
DOCKED: USER    NEWDPF about -0.023000 0.069000 -0.054000
DOCKED: USER    NEWDPF tran0 19.594331 -12.252123 1.283447
DOCKED: USER    NEWDPF quaternion0 0.049191 -0.001451 -0.084308 -0.995224
DOCKED: USER    NEWDPF axisangle0 0.503903 -0.014859 -0.863633 -11.204332
DOCKED: USER    NEWDPF quat0 0.503903 -0.014859 -0.863633 -11.204332
DOCKED: USER    NEWDPF dihe0 -177.45 24.01 20.67 -11.35 98.46 170.97 
DOCKED: USER  keepresnum = 1 
DOCKED: USER  
DOCKED: REMARK  Name = 
DOCKED: REMARK  6 active torsions:
DOCKED: REMARK  status: ('A' for Active; 'I' for Inactive)
DOCKED: REMARK    1  A    between atoms: C_2  and  C_5
DOCKED: REMARK    2  A    between atoms: C_5  and  C_6
DOCKED: REMARK    3  A    between atoms: C_6  and  C_7
DOCKED: REMARK    4  A    between atoms: C_7  and  C_8
DOCKED: REMARK    5  A    between atoms: C_8  and  C_9
DOCKED: REMARK    6  A    between atoms: C_9  and  N_10
DOCKED: REMARK                            x       y       z     vdW  Elec       q    Type
DOCKED: REMARK                         _______ _______ _______ _____ _____    ______ ____
DOCKED: USER                              x       y       z     vdW  Elec       q    Type
DOCKED: USER                           _______ _______ _______ _____ _____    ______ ____
DOCKED: ROOT
DOCKED: ATOM      1  N   UNL     1      19.130 -11.458   1.275 -0.54 -0.00    +0.000 N 
DOCKED: ATOM      2  C   UNL     1      18.271 -12.045   0.279 -0.55 -0.00    +0.000 C 
DOCKED: ATOM      3  C   UNL     1      16.802 -12.038   0.471 -0.43 +0.00    +0.000 A 
DOCKED: ATOM      4  C   UNL     1      15.951 -12.580  -0.508 -0.42 +0.00    +0.000 A 
DOCKED: ATOM      5  C   UNL     1      14.567 -12.574  -0.327 -0.42 +0.00    +0.000 A 
DOCKED: ATOM      6  C   UNL     1      14.011 -12.031   0.830 -0.41 +0.00    +0.000 A 
DOCKED: ATOM      7  C   UNL     1      14.838 -11.486   1.823 -0.41 +0.00    +0.000 A 
DOCKED: ATOM      8  C   UNL     1      14.279 -10.942   2.987 -0.37 +0.00    +0.000 A 
DOCKED: ATOM      9  C   UNL     1      15.102 -10.403   3.976 -0.44 +0.00    +0.000 A 
DOCKED: ATOM     10  C   UNL     1      16.488 -10.398   3.813 -0.26 +0.00    +0.000 A 
DOCKED: ATOM     11  C   UNL     1      17.074 -10.937   2.653 -0.42 +0.00    +0.000 A 
DOCKED: ATOM     12  C   UNL     1      16.246 -11.486   1.648 -0.39 +0.00    +0.000 A 
DOCKED: ATOM     13  O   UNL     1      18.768 -12.566  -0.757 -0.42 -0.00    +0.000 OA
DOCKED: ATOM     14  C   UNL     1      18.545 -10.933   2.481 -0.59 -0.00    +0.000 C 
DOCKED: ATOM     15  O   UNL     1      19.284 -10.470   3.394 -0.67 -0.00    +0.000 OA
DOCKED: ENDROOT
DOCKED: BRANCH   1  16
DOCKED: ATOM     16  C   UNL     1      20.590 -11.492   1.111 -0.73 -0.00    +0.000 C 
DOCKED: BRANCH  16  17
DOCKED: ATOM     17  C   UNL     1      21.049 -10.335   0.217 -0.70 -0.00    +0.000 C 
DOCKED: BRANCH  17  18
DOCKED: ATOM     18  C   UNL     1      20.870 -10.679  -1.266 -0.55 -0.00    +0.000 C 
DOCKED: BRANCH  18  19
DOCKED: ATOM     19  C   UNL     1      21.068  -9.435  -2.145 -0.56 -0.00    +0.000 C 
DOCKED: BRANCH  19  20
DOCKED: ATOM     20  C   UNL     1      20.356  -9.561  -3.499 -0.42 -0.00    +0.000 C 
DOCKED: BRANCH  20  22
DOCKED: ATOM     21  O   UNL     1      19.663 -11.776  -4.068 -0.53 -0.00    +0.000 OA
DOCKED: ATOM     22  C   UNL     1      20.576 -10.909  -4.121 -0.51 -0.00    +0.000 C 
DOCKED: ATOM     23  N   UNL     1      21.800 -11.202  -4.800 -0.52 -0.00    +0.000 N 
DOCKED: ATOM     24  O   UNL     1      21.991 -12.412  -5.375 -0.83 -0.00    +0.000 OA
DOCKED: ATOM     25  H   UNL     1      22.507 -10.519  -4.850 -0.03 -0.00    +0.000 HD
DOCKED: ENDBRANCH  20  22
DOCKED: ENDBRANCH  19  20
DOCKED: ENDBRANCH  18  19
DOCKED: ENDBRANCH  17  18
DOCKED: ENDBRANCH  16  17
DOCKED: ENDBRANCH   1  16
DOCKED: TORSDOF 6
DOCKED: TER
DOCKED: ENDMDL
________________________________________________________________________________


	BEGINNING GENETIC ALGORITHM DOCKING 66 of 100
Run: 66 Seed: 219687843 760774354 [ Run 66 of 100 GA/GALS ]
Beginning LAMARCKIAN GENETIC ALGORITHM (LGA), with a maximum of 2500000 energy evaluations.

Final-Value: -13.163


	FINAL GENETIC ALGORITHM DOCKED STATE
	_______________________________________________


Detailed state:  trans 16.165 -12.228 -1.360 quatxyzw -0.133812 0.967248 -0.024943 -0.214253 center -0.023 0.069 -0.054 ntor 6 130.6161 -162.0878 -179.4724 53.8741 -131.9256 166.8561
State:	 16.165 -12.228  -1.360  -0.137  0.990 -0.026 -155.257    130.62 -162.09 -179.47   53.87 -131.93  166.86

DOCKED: MODEL       66
DOCKED: USER    Run = 66
DOCKED: USER    DPF = ligand_dock.biased.dpf
DOCKED: USER  
DOCKED: USER    Estimated Free Energy of Binding    =   -8.75 kcal/mol  [=(1)+(2)+(3)-(4)]
DOCKED: USER    Estimated Inhibition Constant, Ki   =  385.70 nM (nanomolar)  [Temperature = 298.15 K]
DOCKED: USER    
DOCKED: USER    (1) Final Intermolecular Energy     =  -10.54 kcal/mol
DOCKED: USER        vdW + Hbond + desolv Energy     =  -10.54 kcal/mol
DOCKED: USER        Electrostatic Energy            =   +0.00 kcal/mol
DOCKED: USER    (2) Final Total Internal Energy     =   -2.62 kcal/mol
DOCKED: USER    (3) Torsional Free Energy           =   +1.79 kcal/mol
DOCKED: USER    (4) Unbound System's Energy  [=(2)] =   -2.62 kcal/mol
DOCKED: USER    
DOCKED: USER    
DOCKED: USER    NEWDPF move ligand.pdbqt
DOCKED: USER    NEWDPF about -0.023000 0.069000 -0.054000
DOCKED: USER    NEWDPF tran0 16.165033 -12.228454 -1.359587
DOCKED: USER    NEWDPF quaternion0 -0.133812 0.967248 -0.024943 -0.214253
DOCKED: USER    NEWDPF axisangle0 -0.136994 0.990243 -0.025536 -155.256625
DOCKED: USER    NEWDPF quat0 -0.136994 0.990243 -0.025536 -155.256625
DOCKED: USER    NEWDPF dihe0 130.62 -162.09 -179.47 53.87 -131.93 166.86 
DOCKED: USER  keepresnum = 1 
DOCKED: USER  
DOCKED: REMARK  Name = 
DOCKED: REMARK  6 active torsions:
DOCKED: REMARK  status: ('A' for Active; 'I' for Inactive)
DOCKED: REMARK    1  A    between atoms: C_2  and  C_5
DOCKED: REMARK    2  A    between atoms: C_5  and  C_6
DOCKED: REMARK    3  A    between atoms: C_6  and  C_7
DOCKED: REMARK    4  A    between atoms: C_7  and  C_8
DOCKED: REMARK    5  A    between atoms: C_8  and  C_9
DOCKED: REMARK    6  A    between atoms: C_9  and  N_10
DOCKED: REMARK                            x       y       z     vdW  Elec       q    Type
DOCKED: REMARK                         _______ _______ _______ _____ _____    ______ ____
DOCKED: USER                              x       y       z     vdW  Elec       q    Type
DOCKED: USER                           _______ _______ _______ _____ _____    ______ ____
DOCKED: ROOT
DOCKED: ATOM      1  N   UNL     1      16.473 -11.396  -1.119 -0.28 -0.00    +0.000 N 
DOCKED: ATOM      2  C   UNL     1      16.935 -11.991   0.108 -0.49 +0.00    +0.000 C 
DOCKED: ATOM      3  C   UNL     1      18.342 -11.811   0.535 -0.49 -0.00    +0.000 A 
DOCKED: ATOM      4  C   UNL     1      18.797 -12.360   1.747 -0.42 -0.00    +0.000 A 
DOCKED: ATOM      5  C   UNL     1      20.122 -12.192   2.149 -0.62 -0.00    +0.000 A 
DOCKED: ATOM      6  C   UNL     1      21.014 -11.475   1.352 -0.51 -0.00    +0.000 A 
DOCKED: ATOM      7  C   UNL     1      20.585 -10.918   0.138 -0.60 -0.00    +0.000 A 
DOCKED: ATOM      8  C   UNL     1      21.482 -10.199  -0.664 -0.60 -0.00    +0.000 A 
DOCKED: ATOM      9  C   UNL     1      21.057  -9.648  -1.873 -0.53 -0.00    +0.000 A 
DOCKED: ATOM     10  C   UNL     1      19.735  -9.805  -2.292 -0.30 -0.00    +0.000 A 
DOCKED: ATOM     11  C   UNL     1      18.815 -10.521  -1.505 -0.32 -0.00    +0.000 A 
DOCKED: ATOM     12  C   UNL     1      19.239 -11.083  -0.279 -0.47 -0.00    +0.000 A 
DOCKED: ATOM     13  O   UNL     1      16.142 -12.667   0.821 -1.05 +0.00    +0.000 OA
DOCKED: ATOM     14  C   UNL     1      17.413 -10.688  -1.950 -0.21 -0.00    +0.000 C 
DOCKED: ATOM     15  O   UNL     1      17.044 -10.212  -3.059 -0.29 -0.00    +0.000 OA
DOCKED: ENDROOT
DOCKED: BRANCH   1  16
DOCKED: ATOM     16  C   UNL     1      15.089 -11.598  -1.570 -0.34 +0.00    +0.000 C 
DOCKED: BRANCH  16  17
DOCKED: ATOM     17  C   UNL     1      14.142 -10.666  -0.807 -0.30 +0.00    +0.000 C 
DOCKED: BRANCH  17  18
DOCKED: ATOM     18  C   UNL     1      14.677  -9.230  -0.790 -0.25 -0.00    +0.000 C 
DOCKED: BRANCH  18  19
DOCKED: ATOM     19  C   UNL     1      14.772  -8.697   0.648 -0.27 +0.00    +0.000 C 
DOCKED: BRANCH  19  20
DOCKED: ATOM     20  C   UNL     1      14.397  -9.760   1.689 -0.28 +0.00    +0.000 C 
DOCKED: BRANCH  20  22
DOCKED: ATOM     21  O   UNL     1      15.847  -8.843   3.352 -0.44 +0.00    +0.000 OA
DOCKED: ATOM     22  C   UNL     1      15.439  -9.879   2.763 -0.40 +0.00    +0.000 C 
DOCKED: ATOM     23  N   UNL     1      15.945 -11.162   3.142 -0.49 +0.00    +0.000 N 
DOCKED: ATOM     24  O   UNL     1      16.871 -11.270   4.122 -0.55 +0.00    +0.000 OA
DOCKED: ATOM     25  H   UNL     1      15.616 -11.971   2.689 -0.03 +0.00    +0.000 HD
DOCKED: ENDBRANCH  20  22
DOCKED: ENDBRANCH  19  20
DOCKED: ENDBRANCH  18  19
DOCKED: ENDBRANCH  17  18
DOCKED: ENDBRANCH  16  17
DOCKED: ENDBRANCH   1  16
DOCKED: TORSDOF 6
DOCKED: TER
DOCKED: ENDMDL
________________________________________________________________________________


	BEGINNING GENETIC ALGORITHM DOCKING 67 of 100
Run: 67 Seed: 809904506 1107938462 [ Run 67 of 100 GA/GALS ]
Beginning LAMARCKIAN GENETIC ALGORITHM (LGA), with a maximum of 2500000 energy evaluations.

Final-Value: -12.680


	FINAL GENETIC ALGORITHM DOCKED STATE
	_______________________________________________


Detailed state:  trans 19.258 -10.992 -5.148 quatxyzw -0.010519 0.856726 0.466103 0.220586 center -0.023 0.069 -0.054 ntor 6 -1.7627 127.1574 44.7082 63.5778 -125.0673 167.0698
State:	 19.258 -10.992  -5.148  -0.011  0.878  0.478 154.513     -1.76  127.16   44.71   63.58 -125.07  167.07

DOCKED: MODEL       67
DOCKED: USER    Run = 67
DOCKED: USER    DPF = ligand_dock.biased.dpf
DOCKED: USER  
DOCKED: USER    Estimated Free Energy of Binding    =   -9.75 kcal/mol  [=(1)+(2)+(3)-(4)]
DOCKED: USER    Estimated Inhibition Constant, Ki   =   70.72 nM (nanomolar)  [Temperature = 298.15 K]
DOCKED: USER    
DOCKED: USER    (1) Final Intermolecular Energy     =  -11.54 kcal/mol
DOCKED: USER        vdW + Hbond + desolv Energy     =  -11.54 kcal/mol
DOCKED: USER        Electrostatic Energy            =   +0.00 kcal/mol
DOCKED: USER    (2) Final Total Internal Energy     =   -1.14 kcal/mol
DOCKED: USER    (3) Torsional Free Energy           =   +1.79 kcal/mol
DOCKED: USER    (4) Unbound System's Energy  [=(2)] =   -1.14 kcal/mol
DOCKED: USER    
DOCKED: USER    
DOCKED: USER    NEWDPF move ligand.pdbqt
DOCKED: USER    NEWDPF about -0.023000 0.069000 -0.054000
DOCKED: USER    NEWDPF tran0 19.258446 -10.991899 -5.148417
DOCKED: USER    NEWDPF quaternion0 -0.010519 0.856726 0.466103 0.220586
DOCKED: USER    NEWDPF axisangle0 -0.010785 0.878362 0.477874 154.513100
DOCKED: USER    NEWDPF quat0 -0.010785 0.878362 0.477874 154.513100
DOCKED: USER    NEWDPF dihe0 -1.76 127.16 44.71 63.58 -125.07 167.07 
DOCKED: USER  keepresnum = 1 
DOCKED: USER  
DOCKED: REMARK  Name = 
DOCKED: REMARK  6 active torsions:
DOCKED: REMARK  status: ('A' for Active; 'I' for Inactive)
DOCKED: REMARK    1  A    between atoms: C_2  and  C_5
DOCKED: REMARK    2  A    between atoms: C_5  and  C_6
DOCKED: REMARK    3  A    between atoms: C_6  and  C_7
DOCKED: REMARK    4  A    between atoms: C_7  and  C_8
DOCKED: REMARK    5  A    between atoms: C_8  and  C_9
DOCKED: REMARK    6  A    between atoms: C_9  and  N_10
DOCKED: REMARK                            x       y       z     vdW  Elec       q    Type
DOCKED: REMARK                         _______ _______ _______ _____ _____    ______ ____
DOCKED: USER                              x       y       z     vdW  Elec       q    Type
DOCKED: USER                           _______ _______ _______ _____ _____    ______ ____
DOCKED: ROOT
DOCKED: ATOM      1  N   UNL     1      19.955 -10.528  -4.766 -0.34 -0.00    +0.000 N 
DOCKED: ATOM      2  C   UNL     1      20.830 -11.558  -5.263 -0.51 -0.00    +0.000 C 
DOCKED: ATOM      3  C   UNL     1      22.017 -11.194  -6.071 -0.44 -0.00    +0.000 A 
DOCKED: ATOM      4  C   UNL     1      22.897 -12.187  -6.536 -0.44 -0.00    +0.000 A 
DOCKED: ATOM      5  C   UNL     1      24.015 -11.845  -7.298 -0.39 -0.00    +0.000 A 
DOCKED: ATOM      6  C   UNL     1      24.273 -10.510  -7.609 -0.31 -0.00    +0.000 A 
DOCKED: ATOM      7  C   UNL     1      23.410  -9.501  -7.158 -0.23 -0.00    +0.000 A 
DOCKED: ATOM      8  C   UNL     1      23.668  -8.160  -7.473 -0.16 -0.00    +0.000 A 
DOCKED: ATOM      9  C   UNL     1      22.809  -7.156  -7.028 -0.12 -0.00    +0.000 A 
DOCKED: ATOM     10  C   UNL     1      21.686  -7.478  -6.264 -0.13 -0.00    +0.000 A 
DOCKED: ATOM     11  C   UNL     1      21.405  -8.816  -5.934 -0.21 -0.00    +0.000 A 
DOCKED: ATOM     12  C   UNL     1      22.271  -9.839  -6.382 -0.28 -0.00    +0.000 A 
DOCKED: ATOM     13  O   UNL     1      20.587 -12.771  -5.012 -0.75 -0.00    +0.000 OA
DOCKED: ATOM     14  C   UNL     1      20.213  -9.157  -5.124 -0.25 -0.00    +0.000 C 
DOCKED: ATOM     15  O   UNL     1      19.424  -8.246  -4.751 -0.20 -0.00    +0.000 OA
DOCKED: ENDROOT
DOCKED: BRANCH   1  16
DOCKED: ATOM     16  C   UNL     1      18.755 -10.881  -3.994 -0.32 -0.00    +0.000 C 
DOCKED: BRANCH  16  17
DOCKED: ATOM     17  C   UNL     1      19.133 -11.199  -2.544 -0.34 -0.00    +0.000 C 
DOCKED: BRANCH  17  18
DOCKED: ATOM     18  C   UNL     1      19.913 -10.042  -1.910 -0.45 -0.00    +0.000 C 
DOCKED: BRANCH  18  19
DOCKED: ATOM     19  C   UNL     1      21.341 -10.476  -1.546 -0.62 -0.00    +0.000 C 
DOCKED: BRANCH  19  20
DOCKED: ATOM     20  C   UNL     1      21.729 -10.065  -0.119 -0.62 -0.00    +0.000 C 
DOCKED: BRANCH  20  22
DOCKED: ATOM     21  O   UNL     1      19.694 -10.080   1.134 -0.62 -0.00    +0.000 OA
DOCKED: ATOM     22  C   UNL     1      20.794 -10.647   0.902 -0.66 -0.00    +0.000 C 
DOCKED: ATOM     23  N   UNL     1      21.132 -11.857   1.585 -0.63 -0.00    +0.000 N 
DOCKED: ATOM     24  O   UNL     1      20.283 -12.391   2.493 -1.96 -0.00    +0.000 OA
DOCKED: ATOM     25  H   UNL     1      21.988 -12.305   1.394 -0.54 -0.00    +0.000 HD
DOCKED: ENDBRANCH  20  22
DOCKED: ENDBRANCH  19  20
DOCKED: ENDBRANCH  18  19
DOCKED: ENDBRANCH  17  18
DOCKED: ENDBRANCH  16  17
DOCKED: ENDBRANCH   1  16
DOCKED: TORSDOF 6
DOCKED: TER
DOCKED: ENDMDL
________________________________________________________________________________


	BEGINNING GENETIC ALGORITHM DOCKING 68 of 100
Run: 68 Seed: 333330215 1738358499 [ Run 68 of 100 GA/GALS ]
Beginning LAMARCKIAN GENETIC ALGORITHM (LGA), with a maximum of 2500000 energy evaluations.

Final-Value: -12.470


	FINAL GENETIC ALGORITHM DOCKED STATE
	_______________________________________________


Detailed state:  trans 13.551 -12.303 0.936 quatxyzw 0.158842 0.164390 -0.617396 -0.752707 center -0.023 0.069 -0.054 ntor 6 147.7889 -129.7201 -35.3658 -96.9542 -148.3210 173.5374
State:	 13.551 -12.303   0.936   0.241  0.250 -0.938 -82.349    147.79 -129.72  -35.37  -96.95 -148.32  173.54

DOCKED: MODEL       68
DOCKED: USER    Run = 68
DOCKED: USER    DPF = ligand_dock.biased.dpf
DOCKED: USER  
DOCKED: USER    Estimated Free Energy of Binding    =   -9.57 kcal/mol  [=(1)+(2)+(3)-(4)]
DOCKED: USER    Estimated Inhibition Constant, Ki   =   95.85 nM (nanomolar)  [Temperature = 298.15 K]
DOCKED: USER    
DOCKED: USER    (1) Final Intermolecular Energy     =  -11.36 kcal/mol
DOCKED: USER        vdW + Hbond + desolv Energy     =  -11.36 kcal/mol
DOCKED: USER        Electrostatic Energy            =   +0.00 kcal/mol
DOCKED: USER    (2) Final Total Internal Energy     =   -1.11 kcal/mol
DOCKED: USER    (3) Torsional Free Energy           =   +1.79 kcal/mol
DOCKED: USER    (4) Unbound System's Energy  [=(2)] =   -1.11 kcal/mol
DOCKED: USER    
DOCKED: USER    
DOCKED: USER    NEWDPF move ligand.pdbqt
DOCKED: USER    NEWDPF about -0.023000 0.069000 -0.054000
DOCKED: USER    NEWDPF tran0 13.550718 -12.302889 0.935763
DOCKED: USER    NEWDPF quaternion0 0.158842 0.164390 -0.617396 -0.752707
DOCKED: USER    NEWDPF axisangle0 0.241270 0.249698 -0.937784 -82.349237
DOCKED: USER    NEWDPF quat0 0.241270 0.249698 -0.937784 -82.349237
DOCKED: USER    NEWDPF dihe0 147.79 -129.72 -35.37 -96.95 -148.32 173.54 
DOCKED: USER  keepresnum = 1 
DOCKED: USER  
DOCKED: REMARK  Name = 
DOCKED: REMARK  6 active torsions:
DOCKED: REMARK  status: ('A' for Active; 'I' for Inactive)
DOCKED: REMARK    1  A    between atoms: C_2  and  C_5
DOCKED: REMARK    2  A    between atoms: C_5  and  C_6
DOCKED: REMARK    3  A    between atoms: C_6  and  C_7
DOCKED: REMARK    4  A    between atoms: C_7  and  C_8
DOCKED: REMARK    5  A    between atoms: C_8  and  C_9
DOCKED: REMARK    6  A    between atoms: C_9  and  N_10
DOCKED: REMARK                            x       y       z     vdW  Elec       q    Type
DOCKED: REMARK                         _______ _______ _______ _____ _____    ______ ____
DOCKED: USER                              x       y       z     vdW  Elec       q    Type
DOCKED: USER                           _______ _______ _______ _____ _____    ______ ____
DOCKED: ROOT
DOCKED: ATOM      1  N   UNL     1      14.125 -11.618   1.151 -0.40 +0.00    +0.000 N 
DOCKED: ATOM      2  C   UNL     1      13.139 -10.710   0.623 -0.31 +0.00    +0.000 C 
DOCKED: ATOM      3  C   UNL     1      12.667  -9.571   1.444 -0.16 +0.00    +0.000 A 
DOCKED: ATOM      4  C   UNL     1      11.728  -8.660   0.929 -0.08 +0.00    +0.000 A 
DOCKED: ATOM      5  C   UNL     1      11.282  -7.587   1.702 -0.05 +0.00    +0.000 A 
DOCKED: ATOM      6  C   UNL     1      11.763  -7.406   2.998 -0.08 +0.00    +0.000 A 
DOCKED: ATOM      7  C   UNL     1      12.699  -8.301   3.535 -0.17 +0.00    +0.000 A 
DOCKED: ATOM      8  C   UNL     1      13.181  -8.120   4.839 -0.31 +0.00    +0.000 A 
DOCKED: ATOM      9  C   UNL     1      14.109  -9.012   5.375 -0.42 +0.00    +0.000 A 
DOCKED: ATOM     10  C   UNL     1      14.568 -10.091   4.617 -0.36 +0.00    +0.000 A 
DOCKED: ATOM     11  C   UNL     1      14.101 -10.294   3.306 -0.33 +0.00    +0.000 A 
DOCKED: ATOM     12  C   UNL     1      13.159  -9.395   2.757 -0.21 +0.00    +0.000 A 
DOCKED: ATOM     13  O   UNL     1      12.675 -10.885  -0.537 -0.33 +0.00    +0.000 OA
DOCKED: ATOM     14  C   UNL     1      14.587 -11.439   2.503 -0.49 +0.00    +0.000 C 
DOCKED: ATOM     15  O   UNL     1      15.405 -12.259   3.007 -0.54 +0.00    +0.000 OA
DOCKED: ENDROOT
DOCKED: BRANCH   1  16
DOCKED: ATOM     16  C   UNL     1      14.574 -12.772   0.359 -0.44 +0.00    +0.000 C 
DOCKED: BRANCH  16  17
DOCKED: ATOM     17  C   UNL     1      15.717 -12.361  -0.574 -0.46 +0.00    +0.000 C 
DOCKED: BRANCH  17  18
DOCKED: ATOM     18  C   UNL     1      16.565 -11.246   0.049 -0.39 +0.00    +0.000 C 
DOCKED: BRANCH  18  19
DOCKED: ATOM     19  C   UNL     1      17.615 -11.825   1.009 -0.52 +0.00    +0.000 C 
DOCKED: BRANCH  19  20
DOCKED: ATOM     20  C   UNL     1      18.903 -10.991   1.036 -0.57 -0.00    +0.000 C 
DOCKED: BRANCH  20  22
DOCKED: ATOM     21  O   UNL     1      20.269 -12.410   2.388 -1.93 -0.00    +0.000 OA
DOCKED: ATOM     22  C   UNL     1      19.728 -11.280   2.256 -0.73 -0.00    +0.000 C 
DOCKED: ATOM     23  N   UNL     1      19.929 -10.271   3.249 -0.63 -0.00    +0.000 N 
DOCKED: ATOM     24  O   UNL     1      20.687 -10.526   4.341 -0.88 -0.00    +0.000 OA
DOCKED: ATOM     25  H   UNL     1      19.514  -9.385   3.138 -0.58 -0.00    +0.000 HD
DOCKED: ENDBRANCH  20  22
DOCKED: ENDBRANCH  19  20
DOCKED: ENDBRANCH  18  19
DOCKED: ENDBRANCH  17  18
DOCKED: ENDBRANCH  16  17
DOCKED: ENDBRANCH   1  16
DOCKED: TORSDOF 6
DOCKED: TER
DOCKED: ENDMDL
________________________________________________________________________________


	BEGINNING GENETIC ALGORITHM DOCKING 69 of 100
Run: 69 Seed: 180786656 1698000110 [ Run 69 of 100 GA/GALS ]
Beginning LAMARCKIAN GENETIC ALGORITHM (LGA), with a maximum of 2500000 energy evaluations.

Final-Value: -12.568


	FINAL GENETIC ALGORITHM DOCKED STATE
	_______________________________________________


Detailed state:  trans 20.297 -10.160 -3.611 quatxyzw -0.413358 0.494820 -0.758008 0.098549 center -0.023 0.069 -0.054 ntor 6 -175.5066 164.8004 86.0481 20.4788 -129.7258 -3.6329
State:	 20.297 -10.160  -3.611  -0.415  0.497 -0.762 168.689   -175.51  164.80   86.05   20.48 -129.73   -3.63

DOCKED: MODEL       69
DOCKED: USER    Run = 69
DOCKED: USER    DPF = ligand_dock.biased.dpf
DOCKED: USER  
DOCKED: USER    Estimated Free Energy of Binding    =   -9.79 kcal/mol  [=(1)+(2)+(3)-(4)]
DOCKED: USER    Estimated Inhibition Constant, Ki   =   66.62 nM (nanomolar)  [Temperature = 298.15 K]
DOCKED: USER    
DOCKED: USER    (1) Final Intermolecular Energy     =  -11.58 kcal/mol
DOCKED: USER        vdW + Hbond + desolv Energy     =  -11.58 kcal/mol
DOCKED: USER        Electrostatic Energy            =   +0.00 kcal/mol
DOCKED: USER    (2) Final Total Internal Energy     =   -0.99 kcal/mol
DOCKED: USER    (3) Torsional Free Energy           =   +1.79 kcal/mol
DOCKED: USER    (4) Unbound System's Energy  [=(2)] =   -0.99 kcal/mol
DOCKED: USER    
DOCKED: USER    
DOCKED: USER    NEWDPF move ligand.pdbqt
DOCKED: USER    NEWDPF about -0.023000 0.069000 -0.054000
DOCKED: USER    NEWDPF tran0 20.297248 -10.160177 -3.610686
DOCKED: USER    NEWDPF quaternion0 -0.413358 0.494820 -0.758008 0.098549
DOCKED: USER    NEWDPF axisangle0 -0.415380 0.497241 -0.761716 168.688708
DOCKED: USER    NEWDPF quat0 -0.415380 0.497241 -0.761716 168.688708
DOCKED: USER    NEWDPF dihe0 -175.51 164.80 86.05 20.48 -129.73 -3.63 
DOCKED: USER  keepresnum = 1 
DOCKED: USER  
DOCKED: REMARK  Name = 
DOCKED: REMARK  6 active torsions:
DOCKED: REMARK  status: ('A' for Active; 'I' for Inactive)
DOCKED: REMARK    1  A    between atoms: C_2  and  C_5
DOCKED: REMARK    2  A    between atoms: C_5  and  C_6
DOCKED: REMARK    3  A    between atoms: C_6  and  C_7
DOCKED: REMARK    4  A    between atoms: C_7  and  C_8
DOCKED: REMARK    5  A    between atoms: C_8  and  C_9
DOCKED: REMARK    6  A    between atoms: C_9  and  N_10
DOCKED: REMARK                            x       y       z     vdW  Elec       q    Type
DOCKED: REMARK                         _______ _______ _______ _____ _____    ______ ____
DOCKED: USER                              x       y       z     vdW  Elec       q    Type
DOCKED: USER                           _______ _______ _______ _____ _____    ______ ____
DOCKED: ROOT
DOCKED: ATOM      1  N   UNL     1      20.241 -10.283  -4.520 -0.34 -0.00    +0.000 N 
DOCKED: ATOM      2  C   UNL     1      20.683  -8.921  -4.668 -0.31 -0.00    +0.000 C 
DOCKED: ATOM      3  C   UNL     1      21.842  -8.608  -5.535 -0.23 -0.00    +0.000 A 
DOCKED: ATOM      4  C   UNL     1      22.264  -7.278  -5.712 -0.16 -0.00    +0.000 A 
DOCKED: ATOM      5  C   UNL     1      23.357  -6.983  -6.529 -0.13 -0.00    +0.000 A 
DOCKED: ATOM      6  C   UNL     1      24.046  -8.006  -7.180 -0.16 -0.00    +0.000 A 
DOCKED: ATOM      7  C   UNL     1      23.645  -9.340  -7.019 -0.22 -0.00    +0.000 A 
DOCKED: ATOM      8  C   UNL     1      24.339 -10.368  -7.672 -0.31 -0.00    +0.000 A 
DOCKED: ATOM      9  C   UNL     1      23.943 -11.696  -7.510 -0.43 -0.00    +0.000 A 
DOCKED: ATOM     10  C   UNL     1      22.852 -12.011  -6.698 -0.44 -0.00    +0.000 A 
DOCKED: ATOM     11  C   UNL     1      22.139 -10.998  -6.033 -0.42 -0.00    +0.000 A 
DOCKED: ATOM     12  C   UNL     1      22.535  -9.650  -6.192 -0.26 -0.00    +0.000 A 
DOCKED: ATOM     13  O   UNL     1      20.085  -7.992  -4.058 -0.26 -0.00    +0.000 OA
DOCKED: ATOM     14  C   UNL     1      20.983 -11.333  -5.171 -0.53 -0.00    +0.000 C 
DOCKED: ATOM     15  O   UNL     1      20.650 -12.539  -5.005 -0.79 -0.00    +0.000 OA
DOCKED: ENDROOT
DOCKED: BRANCH   1  16
DOCKED: ATOM     16  C   UNL     1      19.115 -10.608  -3.634 -0.39 -0.00    +0.000 C 
DOCKED: BRANCH  16  17
DOCKED: ATOM     17  C   UNL     1      19.625 -10.931  -2.226 -0.42 -0.00    +0.000 C 
DOCKED: BRANCH  17  18
DOCKED: ATOM     18  C   UNL     1      20.580  -9.843  -1.722 -0.57 -0.00    +0.000 C 
DOCKED: BRANCH  18  19
DOCKED: ATOM     19  C   UNL     1      21.472 -10.376  -0.591 -0.69 -0.00    +0.000 C 
DOCKED: BRANCH  19  20
DOCKED: ATOM     20  C   UNL     1      20.850 -10.154   0.795 -0.60 -0.00    +0.000 C 
DOCKED: BRANCH  20  22
DOCKED: ATOM     21  O   UNL     1      20.636 -12.103   2.161 -1.90 -0.00    +0.000 OA
DOCKED: ATOM     22  C   UNL     1      20.115 -11.371   1.277 -0.73 -0.00    +0.000 C 
DOCKED: ATOM     23  N   UNL     1      18.818 -11.683   0.764 -0.51 -0.00    +0.000 N 
DOCKED: ATOM     24  O   UNL     1      18.149 -12.771   1.212 -0.77 +0.00    +0.000 OA
DOCKED: ATOM     25  H   UNL     1      18.409 -11.103   0.082 -0.00 -0.00    +0.000 HD
DOCKED: ENDBRANCH  20  22
DOCKED: ENDBRANCH  19  20
DOCKED: ENDBRANCH  18  19
DOCKED: ENDBRANCH  17  18
DOCKED: ENDBRANCH  16  17
DOCKED: ENDBRANCH   1  16
DOCKED: TORSDOF 6
DOCKED: TER
DOCKED: ENDMDL
________________________________________________________________________________


	BEGINNING GENETIC ALGORITHM DOCKING 70 of 100
Run: 70 Seed: 2072354896 22998584 [ Run 70 of 100 GA/GALS ]
Beginning LAMARCKIAN GENETIC ALGORITHM (LGA), with a maximum of 2500000 energy evaluations.

Final-Value: -12.366


	FINAL GENETIC ALGORITHM DOCKED STATE
	_______________________________________________


Detailed state:  trans 19.587 -9.679 -2.458 quatxyzw -0.694024 0.043001 0.633993 -0.338429 center -0.023 0.069 -0.054 ntor 6 -12.3171 -180.0000 166.2061 -90.4732 -31.0520 -173.3792
State:	 19.587  -9.679  -2.458  -0.738  0.046  0.674 -140.438    -12.32 -180.00  166.21  -90.47  -31.05 -173.38

DOCKED: MODEL       70
DOCKED: USER    Run = 70
DOCKED: USER    DPF = ligand_dock.biased.dpf
DOCKED: USER  
DOCKED: USER    Estimated Free Energy of Binding    =   -9.70 kcal/mol  [=(1)+(2)+(3)-(4)]
DOCKED: USER    Estimated Inhibition Constant, Ki   =   77.24 nM (nanomolar)  [Temperature = 298.15 K]
DOCKED: USER    
DOCKED: USER    (1) Final Intermolecular Energy     =  -11.49 kcal/mol
DOCKED: USER        vdW + Hbond + desolv Energy     =  -11.49 kcal/mol
DOCKED: USER        Electrostatic Energy            =   +0.00 kcal/mol
DOCKED: USER    (2) Final Total Internal Energy     =   -0.87 kcal/mol
DOCKED: USER    (3) Torsional Free Energy           =   +1.79 kcal/mol
DOCKED: USER    (4) Unbound System's Energy  [=(2)] =   -0.87 kcal/mol
DOCKED: USER    
DOCKED: USER    
DOCKED: USER    NEWDPF move ligand.pdbqt
DOCKED: USER    NEWDPF about -0.023000 0.069000 -0.054000
DOCKED: USER    NEWDPF tran0 19.587250 -9.678580 -2.458424
DOCKED: USER    NEWDPF quaternion0 -0.694024 0.043001 0.633993 -0.338429
DOCKED: USER    NEWDPF axisangle0 -0.737546 0.045698 0.673749 -140.437627
DOCKED: USER    NEWDPF quat0 -0.737546 0.045698 0.673749 -140.437627
DOCKED: USER    NEWDPF dihe0 -12.32 -180.00 166.21 -90.47 -31.05 -173.38 
DOCKED: USER  keepresnum = 1 
DOCKED: USER  
DOCKED: REMARK  Name = 
DOCKED: REMARK  6 active torsions:
DOCKED: REMARK  status: ('A' for Active; 'I' for Inactive)
DOCKED: REMARK    1  A    between atoms: C_2  and  C_5
DOCKED: REMARK    2  A    between atoms: C_5  and  C_6
DOCKED: REMARK    3  A    between atoms: C_6  and  C_7
DOCKED: REMARK    4  A    between atoms: C_7  and  C_8
DOCKED: REMARK    5  A    between atoms: C_8  and  C_9
DOCKED: REMARK    6  A    between atoms: C_9  and  N_10
DOCKED: REMARK                            x       y       z     vdW  Elec       q    Type
DOCKED: REMARK                         _______ _______ _______ _____ _____    ______ ____
DOCKED: USER                              x       y       z     vdW  Elec       q    Type
DOCKED: USER                           _______ _______ _______ _____ _____    ______ ____
DOCKED: ROOT
DOCKED: ATOM      1  N   UNL     1      19.200 -10.476  -2.214 -0.38 -0.00    +0.000 N 
DOCKED: ATOM      2  C   UNL     1      20.243 -10.609  -1.230 -0.54 -0.00    +0.000 C 
DOCKED: ATOM      3  C   UNL     1      19.896 -10.866   0.187 -0.55 -0.00    +0.000 A 
DOCKED: ATOM      4  C   UNL     1      20.905 -11.028   1.152 -0.53 -0.00    +0.000 A 
DOCKED: ATOM      5  C   UNL     1      20.579 -11.270   2.487 -0.59 -0.00    +0.000 A 
DOCKED: ATOM      6  C   UNL     1      19.244 -11.354   2.881 -0.59 -0.00    +0.000 A 
DOCKED: ATOM      7  C   UNL     1      18.218 -11.195   1.938 -0.47 -0.00    +0.000 A 
DOCKED: ATOM      8  C   UNL     1      16.876 -11.276   2.334 -0.37 +0.00    +0.000 A 
DOCKED: ATOM      9  C   UNL     1      15.856 -11.115   1.397 -0.35 +0.00    +0.000 A 
DOCKED: ATOM     10  C   UNL     1      16.162 -10.873   0.057 -0.30 +0.00    +0.000 A 
DOCKED: ATOM     11  C   UNL     1      17.501 -10.787  -0.366 -0.30 -0.00    +0.000 A 
DOCKED: ATOM     12  C   UNL     1      18.540 -10.949   0.578 -0.44 -0.00    +0.000 A 
DOCKED: ATOM     13  O   UNL     1      21.453 -10.503  -1.573 -0.67 -0.00    +0.000 OA
DOCKED: ATOM     14  C   UNL     1      17.825 -10.530  -1.788 -0.28 -0.00    +0.000 C 
DOCKED: ATOM     15  O   UNL     1      16.896 -10.355  -2.624 -0.30 -0.00    +0.000 OA
DOCKED: ENDROOT
DOCKED: BRANCH   1  16
DOCKED: ATOM     16  C   UNL     1      19.532 -10.185  -3.616 -0.39 -0.00    +0.000 C 
DOCKED: BRANCH  16  17
DOCKED: ATOM     17  C   UNL     1      19.510 -11.473  -4.444 -0.47 -0.00    +0.000 C 
DOCKED: BRANCH  17  18
DOCKED: ATOM     18  C   UNL     1      19.087 -11.193  -5.891 -0.41 -0.00    +0.000 C 
DOCKED: BRANCH  18  19
DOCKED: ATOM     19  C   UNL     1      20.308 -10.880  -6.769 -0.29 -0.00    +0.000 C 
DOCKED: BRANCH  19  20
DOCKED: ATOM     20  C   UNL     1      21.583 -10.671  -5.941 -0.44 -0.00    +0.000 C 
DOCKED: BRANCH  20  22
DOCKED: ATOM     21  O   UNL     1      22.567 -12.776  -5.380 -0.84 -0.00    +0.000 OA
DOCKED: ATOM     22  C   UNL     1      22.573 -11.780  -6.153 -0.50 -0.00    +0.000 C 
DOCKED: ATOM     23  N   UNL     1      23.496 -11.727  -7.243 -0.49 -0.00    +0.000 N 
DOCKED: ATOM     24  O   UNL     1      24.377 -12.735  -7.444 -1.00 +0.00    +0.000 OA
DOCKED: ATOM     25  H   UNL     1      23.490 -10.954  -7.852 -0.01 -0.00    +0.000 HD
DOCKED: ENDBRANCH  20  22
DOCKED: ENDBRANCH  19  20
DOCKED: ENDBRANCH  18  19
DOCKED: ENDBRANCH  17  18
DOCKED: ENDBRANCH  16  17
DOCKED: ENDBRANCH   1  16
DOCKED: TORSDOF 6
DOCKED: TER
DOCKED: ENDMDL
________________________________________________________________________________


	BEGINNING GENETIC ALGORITHM DOCKING 71 of 100
Run: 71 Seed: 1520853228 1693275635 [ Run 71 of 100 GA/GALS ]
Beginning LAMARCKIAN GENETIC ALGORITHM (LGA), with a maximum of 2500000 energy evaluations.

Final-Value: -13.415


	FINAL GENETIC ALGORITHM DOCKED STATE
	_______________________________________________


Detailed state:  trans 18.210 -11.339 -2.797 quatxyzw -0.544976 -0.088572 0.193015 0.811111 center -0.023 0.069 -0.054 ntor 6 -15.5128 -152.0503 -153.3692 77.7894 -45.9101 169.6800
State:	 18.210 -11.339  -2.797  -0.932 -0.151  0.330 71.591    -15.51 -152.05 -153.37   77.79  -45.91  169.68

DOCKED: MODEL       71
DOCKED: USER    Run = 71
DOCKED: USER    DPF = ligand_dock.biased.dpf
DOCKED: USER  
DOCKED: USER    Estimated Free Energy of Binding    =  -10.38 kcal/mol  [=(1)+(2)+(3)-(4)]
DOCKED: USER    Estimated Inhibition Constant, Ki   =   24.80 nM (nanomolar)  [Temperature = 298.15 K]
DOCKED: USER    
DOCKED: USER    (1) Final Intermolecular Energy     =  -12.17 kcal/mol
DOCKED: USER        vdW + Hbond + desolv Energy     =  -12.17 kcal/mol
DOCKED: USER        Electrostatic Energy            =   +0.00 kcal/mol
DOCKED: USER    (2) Final Total Internal Energy     =   -1.25 kcal/mol
DOCKED: USER    (3) Torsional Free Energy           =   +1.79 kcal/mol
DOCKED: USER    (4) Unbound System's Energy  [=(2)] =   -1.25 kcal/mol
DOCKED: USER    
DOCKED: USER    
DOCKED: USER    NEWDPF move ligand.pdbqt
DOCKED: USER    NEWDPF about -0.023000 0.069000 -0.054000
DOCKED: USER    NEWDPF tran0 18.209718 -11.339395 -2.796928
DOCKED: USER    NEWDPF quaternion0 -0.544976 -0.088572 0.193015 0.811111
DOCKED: USER    NEWDPF axisangle0 -0.931755 -0.151434 0.330002 71.590686
DOCKED: USER    NEWDPF quat0 -0.931755 -0.151434 0.330002 71.590686
DOCKED: USER    NEWDPF dihe0 -15.51 -152.05 -153.37 77.79 -45.91 169.68 
DOCKED: USER  keepresnum = 1 
DOCKED: USER  
DOCKED: REMARK  Name = 
DOCKED: REMARK  6 active torsions:
DOCKED: REMARK  status: ('A' for Active; 'I' for Inactive)
DOCKED: REMARK    1  A    between atoms: C_2  and  C_5
DOCKED: REMARK    2  A    between atoms: C_5  and  C_6
DOCKED: REMARK    3  A    between atoms: C_6  and  C_7
DOCKED: REMARK    4  A    between atoms: C_7  and  C_8
DOCKED: REMARK    5  A    between atoms: C_8  and  C_9
DOCKED: REMARK    6  A    between atoms: C_9  and  N_10
DOCKED: REMARK                            x       y       z     vdW  Elec       q    Type
DOCKED: REMARK                         _______ _______ _______ _____ _____    ______ ____
DOCKED: USER                              x       y       z     vdW  Elec       q    Type
DOCKED: USER                           _______ _______ _______ _____ _____    ______ ____
DOCKED: ROOT
DOCKED: ATOM      1  N   UNL     1      17.964 -10.905  -2.024 -0.29 -0.00    +0.000 N 
DOCKED: ATOM      2  C   UNL     1      17.015 -10.166  -2.816 -0.25 -0.00    +0.000 C 
DOCKED: ATOM      3  C   UNL     1      15.592 -10.116  -2.410 -0.24 -0.00    +0.000 A 
DOCKED: ATOM      4  C   UNL     1      14.661  -9.373  -3.157 -0.19 -0.00    +0.000 A 
DOCKED: ATOM      5  C   UNL     1      13.320  -9.325  -2.775 -0.17 -0.00    +0.000 A 
DOCKED: ATOM      6  C   UNL     1      12.885 -10.017  -1.645 -0.22 -0.00    +0.000 A 
DOCKED: ATOM      7  C   UNL     1      13.793 -10.766  -0.883 -0.28 +0.00    +0.000 A 
DOCKED: ATOM      8  C   UNL     1      13.355 -11.463   0.251 -0.35 +0.00    +0.000 A 
DOCKED: ATOM      9  C   UNL     1      14.257 -12.211   1.007 -0.39 +0.00    +0.000 A 
DOCKED: ATOM     10  C   UNL     1      15.603 -12.271   0.642 -0.44 +0.00    +0.000 A 
DOCKED: ATOM     11  C   UNL     1      16.068 -11.579  -0.492 -0.34 +0.00    +0.000 A 
DOCKED: ATOM     12  C   UNL     1      15.159 -10.820  -1.263 -0.28 -0.00    +0.000 A 
DOCKED: ATOM     13  O   UNL     1      17.394  -9.563  -3.858 -0.26 -0.00    +0.000 OA
DOCKED: ATOM     14  C   UNL     1      17.495 -11.643  -0.880 -0.34 -0.00    +0.000 C 
DOCKED: ATOM     15  O   UNL     1      18.299 -12.347  -0.208 -0.58 -0.00    +0.000 OA
DOCKED: ENDROOT
DOCKED: BRANCH   1  16
DOCKED: ATOM     16  C   UNL     1      19.372 -10.992  -2.438 -0.41 -0.00    +0.000 C 
DOCKED: BRANCH  16  17
DOCKED: ATOM     17  C   UNL     1      20.131  -9.736  -1.998 -0.44 -0.00    +0.000 C 
DOCKED: BRANCH  17  18
DOCKED: ATOM     18  C   UNL     1      21.472 -10.101  -1.351 -0.60 -0.00    +0.000 C 
DOCKED: BRANCH  18  19
DOCKED: ATOM     19  C   UNL     1      21.386 -10.007   0.180 -0.66 -0.00    +0.000 C 
DOCKED: BRANCH  19  20
DOCKED: ATOM     20  C   UNL     1      19.975 -10.306   0.704 -0.59 -0.00    +0.000 C 
DOCKED: BRANCH  20  22
DOCKED: ATOM     21  O   UNL     1      19.879 -12.393   1.865 -1.80 -0.00    +0.000 OA
DOCKED: ATOM     22  C   UNL     1      20.008 -11.142   1.950 -0.73 -0.00    +0.000 C 
DOCKED: ATOM     23  N   UNL     1      20.218 -10.531   3.225 -0.69 -0.00    +0.000 N 
DOCKED: ATOM     24  O   UNL     1      20.265 -11.287   4.347 -1.04 -0.00    +0.000 OA
DOCKED: ATOM     25  H   UNL     1      20.330  -9.555   3.288 -0.58 -0.00    +0.000 HD
DOCKED: ENDBRANCH  20  22
DOCKED: ENDBRANCH  19  20
DOCKED: ENDBRANCH  18  19
DOCKED: ENDBRANCH  17  18
DOCKED: ENDBRANCH  16  17
DOCKED: ENDBRANCH   1  16
DOCKED: TORSDOF 6
DOCKED: TER
DOCKED: ENDMDL
________________________________________________________________________________


	BEGINNING GENETIC ALGORITHM DOCKING 72 of 100
Run: 72 Seed: 1473673667 1026012652 [ Run 72 of 100 GA/GALS ]
Beginning LAMARCKIAN GENETIC ALGORITHM (LGA), with a maximum of 2500000 energy evaluations.

Final-Value: -12.924


	FINAL GENETIC ALGORITHM DOCKED STATE
	_______________________________________________


Detailed state:  trans 20.173 -9.281 -2.108 quatxyzw -0.777866 -0.092878 0.556387 -0.277005 center -0.023 0.069 -0.054 ntor 6 -107.1703 147.0999 -166.3146 -99.9915 -89.5960 175.9788
State:	 20.173  -9.281  -2.108  -0.810 -0.097  0.579 -147.837   -107.17  147.10 -166.31  -99.99  -89.60  175.98

DOCKED: MODEL       72
DOCKED: USER    Run = 72
DOCKED: USER    DPF = ligand_dock.biased.dpf
DOCKED: USER  
DOCKED: USER    Estimated Free Energy of Binding    =  -10.20 kcal/mol  [=(1)+(2)+(3)-(4)]
DOCKED: USER    Estimated Inhibition Constant, Ki   =   33.49 nM (nanomolar)  [Temperature = 298.15 K]
DOCKED: USER    
DOCKED: USER    (1) Final Intermolecular Energy     =  -11.99 kcal/mol
DOCKED: USER        vdW + Hbond + desolv Energy     =  -11.99 kcal/mol
DOCKED: USER        Electrostatic Energy            =   +0.00 kcal/mol
DOCKED: USER    (2) Final Total Internal Energy     =   -0.94 kcal/mol
DOCKED: USER    (3) Torsional Free Energy           =   +1.79 kcal/mol
DOCKED: USER    (4) Unbound System's Energy  [=(2)] =   -0.94 kcal/mol
DOCKED: USER    
DOCKED: USER    
DOCKED: USER    NEWDPF move ligand.pdbqt
DOCKED: USER    NEWDPF about -0.023000 0.069000 -0.054000
DOCKED: USER    NEWDPF tran0 20.173341 -9.281349 -2.107536
DOCKED: USER    NEWDPF quaternion0 -0.777866 -0.092878 0.556387 -0.277005
DOCKED: USER    NEWDPF axisangle0 -0.809545 -0.096661 0.579046 -147.836918
DOCKED: USER    NEWDPF quat0 -0.809545 -0.096661 0.579046 -147.836918
DOCKED: USER    NEWDPF dihe0 -107.17 147.10 -166.31 -99.99 -89.60 175.98 
DOCKED: USER  keepresnum = 1 
DOCKED: USER  
DOCKED: REMARK  Name = 
DOCKED: REMARK  6 active torsions:
DOCKED: REMARK  status: ('A' for Active; 'I' for Inactive)
DOCKED: REMARK    1  A    between atoms: C_2  and  C_5
DOCKED: REMARK    2  A    between atoms: C_5  and  C_6
DOCKED: REMARK    3  A    between atoms: C_6  and  C_7
DOCKED: REMARK    4  A    between atoms: C_7  and  C_8
DOCKED: REMARK    5  A    between atoms: C_8  and  C_9
DOCKED: REMARK    6  A    between atoms: C_9  and  N_10
DOCKED: REMARK                            x       y       z     vdW  Elec       q    Type
DOCKED: REMARK                         _______ _______ _______ _____ _____    ______ ____
DOCKED: USER                              x       y       z     vdW  Elec       q    Type
DOCKED: USER                           _______ _______ _______ _____ _____    ______ ____
DOCKED: ROOT
DOCKED: ATOM      1  N   UNL     1      19.918 -10.156  -1.982 -0.43 -0.00    +0.000 N 
DOCKED: ATOM      2  C   UNL     1      20.629 -10.118  -0.730 -0.64 -0.00    +0.000 C 
DOCKED: ATOM      3  C   UNL     1      19.948 -10.523   0.521 -0.55 -0.00    +0.000 A 
DOCKED: ATOM      4  C   UNL     1      20.640 -10.519   1.745 -0.48 -0.00    +0.000 A 
DOCKED: ATOM      5  C   UNL     1      19.999 -10.901   2.924 -0.65 -0.00    +0.000 A 
DOCKED: ATOM      6  C   UNL     1      18.660 -11.290   2.903 -0.46 -0.00    +0.000 A 
DOCKED: ATOM      7  C   UNL     1      17.947 -11.301   1.696 -0.45 +0.00    +0.000 A 
DOCKED: ATOM      8  C   UNL     1      16.601 -11.690   1.675 -0.38 +0.00    +0.000 A 
DOCKED: ATOM      9  C   UNL     1      15.890 -11.697   0.475 -0.38 +0.00    +0.000 A 
DOCKED: ATOM     10  C   UNL     1      16.514 -11.320  -0.715 -0.31 +0.00    +0.000 A 
DOCKED: ATOM     11  C   UNL     1      17.865 -10.927  -0.721 -0.34 -0.00    +0.000 A 
DOCKED: ATOM     12  C   UNL     1      18.591 -10.916   0.491 -0.44 -0.00    +0.000 A 
DOCKED: ATOM     13  O   UNL     1      21.832  -9.737  -0.698 -0.68 -0.00    +0.000 OA
DOCKED: ATOM     14  C   UNL     1      18.526 -10.526  -1.984 -0.35 -0.00    +0.000 C 
DOCKED: ATOM     15  O   UNL     1      17.867 -10.507  -3.061 -0.32 -0.00    +0.000 OA
DOCKED: ENDROOT
DOCKED: BRANCH   1  16
DOCKED: ATOM     16  C   UNL     1      20.573  -9.721  -3.224 -0.47 -0.00    +0.000 C 
DOCKED: BRANCH  16  17
DOCKED: ATOM     17  C   UNL     1      21.307 -10.898  -3.875 -0.51 -0.00    +0.000 C 
DOCKED: BRANCH  17  18
DOCKED: ATOM     18  C   UNL     1      20.394 -11.646  -4.853 -0.52 -0.00    +0.000 C 
DOCKED: BRANCH  18  19
DOCKED: ATOM     19  C   UNL     1      20.316 -10.913  -6.201 -0.36 -0.00    +0.000 C 
DOCKED: BRANCH  19  20
DOCKED: ATOM     20  C   UNL     1      21.450  -9.894  -6.376 -0.31 -0.00    +0.000 C 
DOCKED: BRANCH  20  22
DOCKED: ATOM     21  O   UNL     1      23.734  -9.849  -7.077 -0.33 -0.00    +0.000 OA
DOCKED: ATOM     22  C   UNL     1      22.741 -10.557  -6.758 -0.37 -0.00    +0.000 C 
DOCKED: ATOM     23  N   UNL     1      22.859 -11.981  -6.731 -0.53 -0.00    +0.000 N 
DOCKED: ATOM     24  O   UNL     1      24.028 -12.578  -7.060 -1.14 +0.00    +0.000 OA
DOCKED: ATOM     25  H   UNL     1      22.085 -12.531  -6.471 -0.58 -0.00    +0.000 HD
DOCKED: ENDBRANCH  20  22
DOCKED: ENDBRANCH  19  20
DOCKED: ENDBRANCH  18  19
DOCKED: ENDBRANCH  17  18
DOCKED: ENDBRANCH  16  17
DOCKED: ENDBRANCH   1  16
DOCKED: TORSDOF 6
DOCKED: TER
DOCKED: ENDMDL
________________________________________________________________________________


	BEGINNING GENETIC ALGORITHM DOCKING 73 of 100
Run: 73 Seed: 800928963 1329728418 [ Run 73 of 100 GA/GALS ]
Beginning LAMARCKIAN GENETIC ALGORITHM (LGA), with a maximum of 2500000 energy evaluations.

Final-Value: -12.890


	FINAL GENETIC ALGORITHM DOCKED STATE
	_______________________________________________


Detailed state:  trans 15.915 -10.749 -1.187 quatxyzw -0.086040 0.062165 0.994122 -0.021319 center -0.023 0.069 -0.054 ntor 6 -164.1166 -135.4450 119.4773 66.6392 -114.0721 -41.4527
State:	 15.915 -10.749  -1.187  -0.086  0.062  0.994 -177.557   -164.12 -135.44  119.48   66.64 -114.07  -41.45

DOCKED: MODEL       73
DOCKED: USER    Run = 73
DOCKED: USER    DPF = ligand_dock.biased.dpf
DOCKED: USER  
DOCKED: USER    Estimated Free Energy of Binding    =   -8.86 kcal/mol  [=(1)+(2)+(3)-(4)]
DOCKED: USER    Estimated Inhibition Constant, Ki   =  321.53 nM (nanomolar)  [Temperature = 298.15 K]
DOCKED: USER    
DOCKED: USER    (1) Final Intermolecular Energy     =  -10.65 kcal/mol
DOCKED: USER        vdW + Hbond + desolv Energy     =  -10.65 kcal/mol
DOCKED: USER        Electrostatic Energy            =   +0.00 kcal/mol
DOCKED: USER    (2) Final Total Internal Energy     =   -2.24 kcal/mol
DOCKED: USER    (3) Torsional Free Energy           =   +1.79 kcal/mol
DOCKED: USER    (4) Unbound System's Energy  [=(2)] =   -2.24 kcal/mol
DOCKED: USER    
DOCKED: USER    
DOCKED: USER    NEWDPF move ligand.pdbqt
DOCKED: USER    NEWDPF about -0.023000 0.069000 -0.054000
DOCKED: USER    NEWDPF tran0 15.915440 -10.748805 -1.186733
DOCKED: USER    NEWDPF quaternion0 -0.086040 0.062165 0.994122 -0.021319
DOCKED: USER    NEWDPF axisangle0 -0.086060 0.062179 0.994348 -177.556858
DOCKED: USER    NEWDPF quat0 -0.086060 0.062179 0.994348 -177.556858
DOCKED: USER    NEWDPF dihe0 -164.12 -135.44 119.48 66.64 -114.07 -41.45 
DOCKED: USER  keepresnum = 1 
DOCKED: USER  
DOCKED: REMARK  Name = 
DOCKED: REMARK  6 active torsions:
DOCKED: REMARK  status: ('A' for Active; 'I' for Inactive)
DOCKED: REMARK    1  A    between atoms: C_2  and  C_5
DOCKED: REMARK    2  A    between atoms: C_5  and  C_6
DOCKED: REMARK    3  A    between atoms: C_6  and  C_7
DOCKED: REMARK    4  A    between atoms: C_7  and  C_8
DOCKED: REMARK    5  A    between atoms: C_8  and  C_9
DOCKED: REMARK    6  A    between atoms: C_9  and  N_10
DOCKED: REMARK                            x       y       z     vdW  Elec       q    Type
DOCKED: REMARK                         _______ _______ _______ _____ _____    ______ ____
DOCKED: USER                              x       y       z     vdW  Elec       q    Type
DOCKED: USER                           _______ _______ _______ _____ _____    ______ ____
DOCKED: ROOT
DOCKED: ATOM      1  N   UNL     1      16.474 -11.472  -1.079 -0.28 +0.00    +0.000 N 
DOCKED: ATOM      2  C   UNL     1      17.404 -10.803  -1.951 -0.17 -0.00    +0.000 C 
DOCKED: ATOM      3  C   UNL     1      18.808 -10.604  -1.524 -0.33 -0.00    +0.000 A 
DOCKED: ATOM      4  C   UNL     1      19.734  -9.980  -2.378 -0.35 -0.00    +0.000 A 
DOCKED: ATOM      5  C   UNL     1      21.057  -9.791  -1.976 -0.53 -0.00    +0.000 A 
DOCKED: ATOM      6  C   UNL     1      21.477 -10.219  -0.717 -0.60 -0.00    +0.000 A 
DOCKED: ATOM      7  C   UNL     1      20.573 -10.843   0.155 -0.60 -0.00    +0.000 A 
DOCKED: ATOM      8  C   UNL     1      20.995 -11.271   1.421 -0.46 -0.00    +0.000 A 
DOCKED: ATOM      9  C   UNL     1      20.095 -11.889   2.290 -0.68 -0.00    +0.000 A 
DOCKED: ATOM     10  C   UNL     1      18.768 -12.087   1.905 -0.42 -0.00    +0.000 A 
DOCKED: ATOM     11  C   UNL     1      18.320 -11.667   0.639 -0.48 -0.00    +0.000 A 
DOCKED: ATOM     12  C   UNL     1      19.226 -11.040  -0.246 -0.47 -0.00    +0.000 A 
DOCKED: ATOM     13  O   UNL     1      17.024 -10.385  -3.080 -0.28 -0.00    +0.000 OA
DOCKED: ATOM     14  C   UNL     1      16.912 -11.877   0.232 -0.48 +0.00    +0.000 C 
DOCKED: ATOM     15  O   UNL     1      16.097 -12.409   1.035 -0.98 +0.00    +0.000 OA
DOCKED: ENDROOT
DOCKED: BRANCH   1  16
DOCKED: ATOM     16  C   UNL     1      15.070 -11.643  -1.479 -0.35 +0.00    +0.000 C 
DOCKED: BRANCH  16  17
DOCKED: ATOM     17  C   UNL     1      14.139 -11.152  -0.366 -0.35 +0.00    +0.000 C 
DOCKED: BRANCH  17  18
DOCKED: ATOM     18  C   UNL     1      14.272  -9.638  -0.162 -0.24 +0.00    +0.000 C 
DOCKED: BRANCH  18  19
DOCKED: ATOM     19  C   UNL     1      14.889  -9.320   1.208 -0.28 +0.00    +0.000 C 
DOCKED: BRANCH  19  20
DOCKED: ATOM     20  C   UNL     1      14.078  -9.919   2.365 -0.31 +0.00    +0.000 C 
DOCKED: BRANCH  20  22
DOCKED: ATOM     21  O   UNL     1      14.667  -9.471   4.638 -0.47 +0.00    +0.000 OA
DOCKED: ATOM     22  C   UNL     1      14.922 -10.123   3.590 -0.45 +0.00    +0.000 C 
DOCKED: ATOM     23  N   UNL     1      15.989 -11.075   3.583 -0.51 +0.00    +0.000 N 
DOCKED: ATOM     24  O   UNL     1      16.738 -11.271   4.692 -0.54 +0.00    +0.000 OA
DOCKED: ATOM     25  H   UNL     1      16.178 -11.591   2.766 -0.02 +0.00    +0.000 HD
DOCKED: ENDBRANCH  20  22
DOCKED: ENDBRANCH  19  20
DOCKED: ENDBRANCH  18  19
DOCKED: ENDBRANCH  17  18
DOCKED: ENDBRANCH  16  17
DOCKED: ENDBRANCH   1  16
DOCKED: TORSDOF 6
DOCKED: TER
DOCKED: ENDMDL
________________________________________________________________________________


	BEGINNING GENETIC ALGORITHM DOCKING 74 of 100
Run: 74 Seed: 583246102 317098740 [ Run 74 of 100 GA/GALS ]
Beginning LAMARCKIAN GENETIC ALGORITHM (LGA), with a maximum of 2500000 energy evaluations.

Final-Value: -12.186


	FINAL GENETIC ALGORITHM DOCKED STATE
	_______________________________________________


Detailed state:  trans 20.395 -11.103 -2.439 quatxyzw -0.230616 -0.426786 0.133684 0.864175 center -0.023 0.069 -0.054 ntor 6 -142.0425 -146.0281 88.0708 147.3613 76.3126 152.9154
State:	 20.395 -11.103  -2.439  -0.458 -0.848  0.266 60.423   -142.04 -146.03   88.07  147.36   76.31  152.92

DOCKED: MODEL       74
DOCKED: USER    Run = 74
DOCKED: USER    DPF = ligand_dock.biased.dpf
DOCKED: USER  
DOCKED: USER    Estimated Free Energy of Binding    =   -9.40 kcal/mol  [=(1)+(2)+(3)-(4)]
DOCKED: USER    Estimated Inhibition Constant, Ki   =  127.82 nM (nanomolar)  [Temperature = 298.15 K]
DOCKED: USER    
DOCKED: USER    (1) Final Intermolecular Energy     =  -11.19 kcal/mol
DOCKED: USER        vdW + Hbond + desolv Energy     =  -11.19 kcal/mol
DOCKED: USER        Electrostatic Energy            =   +0.00 kcal/mol
DOCKED: USER    (2) Final Total Internal Energy     =   -0.99 kcal/mol
DOCKED: USER    (3) Torsional Free Energy           =   +1.79 kcal/mol
DOCKED: USER    (4) Unbound System's Energy  [=(2)] =   -0.99 kcal/mol
DOCKED: USER    
DOCKED: USER    
DOCKED: USER    NEWDPF move ligand.pdbqt
DOCKED: USER    NEWDPF about -0.023000 0.069000 -0.054000
DOCKED: USER    NEWDPF tran0 20.394827 -11.103365 -2.438855
DOCKED: USER    NEWDPF quaternion0 -0.230616 -0.426786 0.133684 0.864175
DOCKED: USER    NEWDPF axisangle0 -0.458306 -0.848159 0.265673 60.422700
DOCKED: USER    NEWDPF quat0 -0.458306 -0.848159 0.265673 60.422700
DOCKED: USER    NEWDPF dihe0 -142.04 -146.03 88.07 147.36 76.31 152.92 
DOCKED: USER  keepresnum = 1 
DOCKED: USER  
DOCKED: REMARK  Name = 
DOCKED: REMARK  6 active torsions:
DOCKED: REMARK  status: ('A' for Active; 'I' for Inactive)
DOCKED: REMARK    1  A    between atoms: C_2  and  C_5
DOCKED: REMARK    2  A    between atoms: C_5  and  C_6
DOCKED: REMARK    3  A    between atoms: C_6  and  C_7
DOCKED: REMARK    4  A    between atoms: C_7  and  C_8
DOCKED: REMARK    5  A    between atoms: C_8  and  C_9
DOCKED: REMARK    6  A    between atoms: C_9  and  N_10
DOCKED: REMARK                            x       y       z     vdW  Elec       q    Type
DOCKED: REMARK                         _______ _______ _______ _____ _____    ______ ____
DOCKED: USER                              x       y       z     vdW  Elec       q    Type
DOCKED: USER                           _______ _______ _______ _____ _____    ______ ____
DOCKED: ROOT
DOCKED: ATOM      1  N   UNL     1      20.285 -10.441  -1.810 -0.49 -0.00    +0.000 N 
DOCKED: ATOM      2  C   UNL     1      18.865 -10.643  -1.938 -0.40 -0.00    +0.000 C 
DOCKED: ATOM      3  C   UNL     1      18.040 -10.889  -0.732 -0.35 -0.00    +0.000 A 
DOCKED: ATOM      4  C   UNL     1      16.649 -11.057  -0.840 -0.30 -0.00    +0.000 A 
DOCKED: ATOM      5  C   UNL     1      15.872 -11.289   0.295 -0.34 +0.00    +0.000 A 
DOCKED: ATOM      6  C   UNL     1      16.468 -11.359   1.554 -0.38 +0.00    +0.000 A 
DOCKED: ATOM      7  C   UNL     1      17.854 -11.197   1.688 -0.44 +0.00    +0.000 A 
DOCKED: ATOM      8  C   UNL     1      18.453 -11.269   2.953 -0.41 -0.00    +0.000 A 
DOCKED: ATOM      9  C   UNL     1      19.833 -11.111   3.087 -0.65 -0.00    +0.000 A 
DOCKED: ATOM     10  C   UNL     1      20.627 -10.877   1.963 -0.58 -0.00    +0.000 A 
DOCKED: ATOM     11  C   UNL     1      20.050 -10.798   0.683 -0.58 -0.00    +0.000 A 
DOCKED: ATOM     12  C   UNL     1      18.653 -10.959   0.540 -0.45 -0.00    +0.000 A 
DOCKED: ATOM     13  O   UNL     1      18.322 -10.612  -3.077 -0.34 -0.00    +0.000 OA
DOCKED: ATOM     14  C   UNL     1      20.893 -10.551  -0.509 -0.67 -0.00    +0.000 C 
DOCKED: ATOM     15  O   UNL     1      22.144 -10.439  -0.383 -0.74 -0.00    +0.000 OA
DOCKED: ENDROOT
DOCKED: BRANCH   1  16
DOCKED: ATOM     16  C   UNL     1      21.117 -10.232  -3.003 -0.54 -0.00    +0.000 C 
DOCKED: BRANCH  16  17
DOCKED: ATOM     17  C   UNL     1      20.740  -8.915  -3.688 -0.40 -0.00    +0.000 C 
DOCKED: BRANCH  17  18
DOCKED: ATOM     18  C   UNL     1      19.901  -9.166  -4.945 -0.25 -0.00    +0.000 C 
DOCKED: BRANCH  18  19
DOCKED: ATOM     19  C   UNL     1      20.305 -10.485  -5.621 -0.37 -0.00    +0.000 C 
DOCKED: BRANCH  19  20
DOCKED: ATOM     20  C   UNL     1      21.440 -10.296  -6.636 -0.33 -0.00    +0.000 C 
DOCKED: BRANCH  20  22
DOCKED: ATOM     21  O   UNL     1      22.776 -11.919  -7.773 -0.47 -0.00    +0.000 OA
DOCKED: ATOM     22  C   UNL     1      22.363 -11.480  -6.666 -0.42 -0.00    +0.000 C 
DOCKED: ATOM     23  N   UNL     1      22.799 -12.089  -5.449 -0.42 -0.00    +0.000 N 
DOCKED: ATOM     24  O   UNL     1      23.644 -13.145  -5.476 -0.82 -0.00    +0.000 OA
DOCKED: ATOM     25  H   UNL     1      22.484 -11.737  -4.585 -0.05 -0.00    +0.000 HD
DOCKED: ENDBRANCH  20  22
DOCKED: ENDBRANCH  19  20
DOCKED: ENDBRANCH  18  19
DOCKED: ENDBRANCH  17  18
DOCKED: ENDBRANCH  16  17
DOCKED: ENDBRANCH   1  16
DOCKED: TORSDOF 6
DOCKED: TER
DOCKED: ENDMDL
________________________________________________________________________________


	BEGINNING GENETIC ALGORITHM DOCKING 75 of 100
Run: 75 Seed: 782430685 57404954 [ Run 75 of 100 GA/GALS ]
Beginning LAMARCKIAN GENETIC ALGORITHM (LGA), with a maximum of 2500000 energy evaluations.

Final-Value: -12.836


	FINAL GENETIC ALGORITHM DOCKED STATE
	_______________________________________________


Detailed state:  trans 19.775 -12.503 0.758 quatxyzw 0.510658 -0.587502 0.017480 -0.627506 center -0.023 0.069 -0.054 ntor 6 41.3048 -58.4540 166.1002 -54.6009 151.8047 -161.5428
State:	 19.775 -12.503   0.758   0.656 -0.755  0.022 -102.267     41.30  -58.45  166.10  -54.60  151.80 -161.54

DOCKED: MODEL       75
DOCKED: USER    Run = 75
DOCKED: USER    DPF = ligand_dock.biased.dpf
DOCKED: USER  
DOCKED: USER    Estimated Free Energy of Binding    =   -8.77 kcal/mol  [=(1)+(2)+(3)-(4)]
DOCKED: USER    Estimated Inhibition Constant, Ki   =  373.42 nM (nanomolar)  [Temperature = 298.15 K]
DOCKED: USER    
DOCKED: USER    (1) Final Intermolecular Energy     =  -10.56 kcal/mol
DOCKED: USER        vdW + Hbond + desolv Energy     =  -10.56 kcal/mol
DOCKED: USER        Electrostatic Energy            =   +0.00 kcal/mol
DOCKED: USER    (2) Final Total Internal Energy     =   -2.28 kcal/mol
DOCKED: USER    (3) Torsional Free Energy           =   +1.79 kcal/mol
DOCKED: USER    (4) Unbound System's Energy  [=(2)] =   -2.28 kcal/mol
DOCKED: USER    
DOCKED: USER    
DOCKED: USER    NEWDPF move ligand.pdbqt
DOCKED: USER    NEWDPF about -0.023000 0.069000 -0.054000
DOCKED: USER    NEWDPF tran0 19.775184 -12.502762 0.758450
DOCKED: USER    NEWDPF quaternion0 0.510658 -0.587502 0.017480 -0.627506
DOCKED: USER    NEWDPF axisangle0 0.655857 -0.754551 0.022450 -102.267251
DOCKED: USER    NEWDPF quat0 0.655857 -0.754551 0.022450 -102.267251
DOCKED: USER    NEWDPF dihe0 41.30 -58.45 166.10 -54.60 151.80 -161.54 
DOCKED: USER  keepresnum = 1 
DOCKED: USER  
DOCKED: REMARK  Name = 
DOCKED: REMARK  6 active torsions:
DOCKED: REMARK  status: ('A' for Active; 'I' for Inactive)
DOCKED: REMARK    1  A    between atoms: C_2  and  C_5
DOCKED: REMARK    2  A    between atoms: C_5  and  C_6
DOCKED: REMARK    3  A    between atoms: C_6  and  C_7
DOCKED: REMARK    4  A    between atoms: C_7  and  C_8
DOCKED: REMARK    5  A    between atoms: C_8  and  C_9
DOCKED: REMARK    6  A    between atoms: C_9  and  N_10
DOCKED: REMARK                            x       y       z     vdW  Elec       q    Type
DOCKED: REMARK                         _______ _______ _______ _____ _____    ______ ____
DOCKED: USER                              x       y       z     vdW  Elec       q    Type
DOCKED: USER                           _______ _______ _______ _____ _____    ______ ____
DOCKED: ROOT
DOCKED: ATOM      1  N   UNL     1      19.215 -11.773   0.764 -0.55 -0.00    +0.000 N 
DOCKED: ATOM      2  C   UNL     1      20.159 -11.123  -0.109 -0.58 -0.00    +0.000 C 
DOCKED: ATOM      3  C   UNL     1      19.699 -10.527  -1.385 -0.44 -0.00    +0.000 A 
DOCKED: ATOM      4  C   UNL     1      20.605  -9.862  -2.230 -0.48 -0.00    +0.000 A 
DOCKED: ATOM      5  C   UNL     1      20.172  -9.301  -3.433 -0.34 -0.00    +0.000 A 
DOCKED: ATOM      6  C   UNL     1      18.833  -9.395  -3.812 -0.23 -0.00    +0.000 A 
DOCKED: ATOM      7  C   UNL     1      17.911 -10.054  -2.986 -0.19 -0.00    +0.000 A 
DOCKED: ATOM      8  C   UNL     1      16.565 -10.149  -3.368 -0.22 -0.00    +0.000 A 
DOCKED: ATOM      9  C   UNL     1      15.648 -10.807  -2.550 -0.18 -0.00    +0.000 A 
DOCKED: ATOM     10  C   UNL     1      16.061 -11.374  -1.343 -0.17 +0.00    +0.000 A 
DOCKED: ATOM     11  C   UNL     1      17.405 -11.291  -0.936 -0.30 -0.00    +0.000 A 
DOCKED: ATOM     12  C   UNL     1      18.340 -10.626  -1.761 -0.28 -0.00    +0.000 A 
DOCKED: ATOM     13  O   UNL     1      21.378 -11.061   0.212 -0.76 -0.00    +0.000 OA
DOCKED: ATOM     14  C   UNL     1      17.843 -11.893   0.344 -0.53 -0.00    +0.000 C 
DOCKED: ATOM     15  O   UNL     1      17.012 -12.513   1.064 -0.94 +0.00    +0.000 OA
DOCKED: ENDROOT
DOCKED: BRANCH   1  16
DOCKED: ATOM     16  C   UNL     1      19.667 -12.399   2.014 -0.69 -0.00    +0.000 C 
DOCKED: BRANCH  16  17
DOCKED: ATOM     17  C   UNL     1      19.150 -11.607   3.219 -0.54 -0.00    +0.000 C 
DOCKED: BRANCH  17  18
DOCKED: ATOM     18  C   UNL     1      18.953 -10.129   2.866 -0.58 -0.00    +0.000 C 
DOCKED: BRANCH  18  19
DOCKED: ATOM     19  C   UNL     1      17.525  -9.670   3.195 -0.16 +0.00    +0.000 C 
DOCKED: BRANCH  19  20
DOCKED: ATOM     20  C   UNL     1      16.600 -10.846   3.536 -0.49 +0.00    +0.000 C 
DOCKED: BRANCH  20  22
DOCKED: ATOM     21  O   UNL     1      14.788  -9.733   2.445 -0.31 +0.00    +0.000 OA
DOCKED: ATOM     22  C   UNL     1      15.350 -10.831   2.704 -0.47 +0.00    +0.000 C 
DOCKED: ATOM     23  N   UNL     1      14.815 -12.048   2.180 -0.50 +0.00    +0.000 N 
DOCKED: ATOM     24  O   UNL     1      13.698 -12.033   1.416 -0.52 +0.00    +0.000 OA
DOCKED: ATOM     25  H   UNL     1      15.263 -12.903   2.374 -0.10 +0.00    +0.000 HD
DOCKED: ENDBRANCH  20  22
DOCKED: ENDBRANCH  19  20
DOCKED: ENDBRANCH  18  19
DOCKED: ENDBRANCH  17  18
DOCKED: ENDBRANCH  16  17
DOCKED: ENDBRANCH   1  16
DOCKED: TORSDOF 6
DOCKED: TER
DOCKED: ENDMDL
________________________________________________________________________________


	BEGINNING GENETIC ALGORITHM DOCKING 76 of 100
Run: 76 Seed: 843585679 824885199 [ Run 76 of 100 GA/GALS ]
Beginning LAMARCKIAN GENETIC ALGORITHM (LGA), with a maximum of 2500000 energy evaluations.

Final-Value: -12.521


	FINAL GENETIC ALGORITHM DOCKED STATE
	_______________________________________________


Detailed state:  trans 20.442 -9.934 -2.123 quatxyzw -0.773595 0.048082 0.519360 -0.359867 center -0.023 0.069 -0.054 ntor 6 -165.1411 172.3189 -90.7773 -124.5852 -11.2025 -147.9488
State:	 20.442  -9.934  -2.123  -0.829  0.052  0.557 -137.816   -165.14  172.32  -90.78 -124.59  -11.20 -147.95

DOCKED: MODEL       76
DOCKED: USER    Run = 76
DOCKED: USER    DPF = ligand_dock.biased.dpf
DOCKED: USER  
DOCKED: USER    Estimated Free Energy of Binding    =  -10.04 kcal/mol  [=(1)+(2)+(3)-(4)]
DOCKED: USER    Estimated Inhibition Constant, Ki   =   43.89 nM (nanomolar)  [Temperature = 298.15 K]
DOCKED: USER    
DOCKED: USER    (1) Final Intermolecular Energy     =  -11.83 kcal/mol
DOCKED: USER        vdW + Hbond + desolv Energy     =  -11.83 kcal/mol
DOCKED: USER        Electrostatic Energy            =   +0.00 kcal/mol
DOCKED: USER    (2) Final Total Internal Energy     =   -0.69 kcal/mol
DOCKED: USER    (3) Torsional Free Energy           =   +1.79 kcal/mol
DOCKED: USER    (4) Unbound System's Energy  [=(2)] =   -0.69 kcal/mol
DOCKED: USER    
DOCKED: USER    
DOCKED: USER    NEWDPF move ligand.pdbqt
DOCKED: USER    NEWDPF about -0.023000 0.069000 -0.054000
DOCKED: USER    NEWDPF tran0 20.441695 -9.933596 -2.123366
DOCKED: USER    NEWDPF quaternion0 -0.773595 0.048082 0.519360 -0.359867
DOCKED: USER    NEWDPF axisangle0 -0.829145 0.051534 0.556653 -137.815996
DOCKED: USER    NEWDPF quat0 -0.829145 0.051534 0.556653 -137.815996
DOCKED: USER    NEWDPF dihe0 -165.14 172.32 -90.78 -124.59 -11.20 -147.95 
DOCKED: USER  keepresnum = 1 
DOCKED: USER  
DOCKED: REMARK  Name = 
DOCKED: REMARK  6 active torsions:
DOCKED: REMARK  status: ('A' for Active; 'I' for Inactive)
DOCKED: REMARK    1  A    between atoms: C_2  and  C_5
DOCKED: REMARK    2  A    between atoms: C_5  and  C_6
DOCKED: REMARK    3  A    between atoms: C_6  and  C_7
DOCKED: REMARK    4  A    between atoms: C_7  and  C_8
DOCKED: REMARK    5  A    between atoms: C_8  and  C_9
DOCKED: REMARK    6  A    between atoms: C_9  and  N_10
DOCKED: REMARK                            x       y       z     vdW  Elec       q    Type
DOCKED: REMARK                         _______ _______ _______ _____ _____    ______ ____
DOCKED: USER                              x       y       z     vdW  Elec       q    Type
DOCKED: USER                           _______ _______ _______ _____ _____    ______ ____
DOCKED: ROOT
DOCKED: ATOM      1  N   UNL     1      19.921 -10.675  -1.966 -0.44 -0.00    +0.000 N 
DOCKED: ATOM      2  C   UNL     1      20.659 -10.857  -0.743 -0.57 -0.00    +0.000 C 
DOCKED: ATOM      3  C   UNL     1      19.938 -11.002   0.542 -0.58 -0.00    +0.000 A 
DOCKED: ATOM      4  C   UNL     1      20.645 -11.211   1.739 -0.64 -0.00    +0.000 A 
DOCKED: ATOM      5  C   UNL     1      19.966 -11.348   2.951 -0.64 -0.00    +0.000 A 
DOCKED: ATOM      6  C   UNL     1      18.574 -11.278   2.989 -0.43 -0.00    +0.000 A 
DOCKED: ATOM      7  C   UNL     1      17.845 -11.069   1.809 -0.44 +0.00    +0.000 A 
DOCKED: ATOM      8  C   UNL     1      16.446 -10.997   1.848 -0.38 +0.00    +0.000 A 
DOCKED: ATOM      9  C   UNL     1      15.720 -10.786   0.676 -0.30 +0.00    +0.000 A 
DOCKED: ATOM     10  C   UNL     1      16.381 -10.648  -0.546 -0.28 -0.00    +0.000 A 
DOCKED: ATOM     11  C   UNL     1      17.785 -10.717  -0.612 -0.28 -0.00    +0.000 A 
DOCKED: ATOM     12  C   UNL     1      18.526 -10.930   0.572 -0.43 -0.00    +0.000 A 
DOCKED: ATOM     13  O   UNL     1      21.920 -10.890  -0.765 -0.73 -0.00    +0.000 OA
DOCKED: ATOM     14  C   UNL     1      18.485 -10.570  -1.908 -0.35 -0.00    +0.000 C 
DOCKED: ATOM     15  O   UNL     1      17.823 -10.349  -2.960 -0.32 -0.00    +0.000 OA
DOCKED: ENDROOT
DOCKED: BRANCH   1  16
DOCKED: ATOM     16  C   UNL     1      20.628 -10.493  -3.242 -0.52 -0.00    +0.000 C 
DOCKED: BRANCH  16  17
DOCKED: ATOM     17  C   UNL     1      20.161 -11.540  -4.259 -0.46 -0.00    +0.000 C 
DOCKED: BRANCH  17  18
DOCKED: ATOM     18  C   UNL     1      20.668 -11.206  -5.667 -0.45 -0.00    +0.000 C 
DOCKED: BRANCH  18  19
DOCKED: ATOM     19  C   UNL     1      22.197 -11.060  -5.681 -0.44 -0.00    +0.000 C 
DOCKED: BRANCH  19  20
DOCKED: ATOM     20  C   UNL     1      22.904 -12.378  -6.025 -0.51 -0.00    +0.000 C 
DOCKED: BRANCH  20  22
DOCKED: ATOM     21  O   UNL     1      24.652 -12.424  -7.654 -0.99 +0.00    +0.000 OA
DOCKED: ATOM     22  C   UNL     1      23.411 -12.385  -7.438 -0.48 -0.00    +0.000 C 
DOCKED: ATOM     23  N   UNL     1      22.496 -12.380  -8.536 -0.25 -0.00    +0.000 N 
DOCKED: ATOM     24  O   UNL     1      22.953 -12.403  -9.809 -0.35 -0.00    +0.000 OA
DOCKED: ATOM     25  H   UNL     1      21.526 -12.361  -8.365 -0.56 -0.00    +0.000 HD
DOCKED: ENDBRANCH  20  22
DOCKED: ENDBRANCH  19  20
DOCKED: ENDBRANCH  18  19
DOCKED: ENDBRANCH  17  18
DOCKED: ENDBRANCH  16  17
DOCKED: ENDBRANCH   1  16
DOCKED: TORSDOF 6
DOCKED: TER
DOCKED: ENDMDL
________________________________________________________________________________


	BEGINNING GENETIC ALGORITHM DOCKING 77 of 100
Run: 77 Seed: 797433081 1096578617 [ Run 77 of 100 GA/GALS ]
Beginning LAMARCKIAN GENETIC ALGORITHM (LGA), with a maximum of 2500000 energy evaluations.

Final-Value: -12.904


	FINAL GENETIC ALGORITHM DOCKED STATE
	_______________________________________________


Detailed state:  trans 19.507 -10.972 1.154 quatxyzw 0.992460 0.025799 -0.113801 0.037504 center -0.023 0.069 -0.054 ntor 6 168.1294 11.5194 -27.2442 20.1932 137.3035 4.6010
State:	 19.507 -10.972   1.154   0.993  0.026 -0.114 175.701    168.13   11.52  -27.24   20.19  137.30    4.60

DOCKED: MODEL       77
DOCKED: USER    Run = 77
DOCKED: USER    DPF = ligand_dock.biased.dpf
DOCKED: USER  
DOCKED: USER    Estimated Free Energy of Binding    =   -9.91 kcal/mol  [=(1)+(2)+(3)-(4)]
DOCKED: USER    Estimated Inhibition Constant, Ki   =   54.78 nM (nanomolar)  [Temperature = 298.15 K]
DOCKED: USER    
DOCKED: USER    (1) Final Intermolecular Energy     =  -11.70 kcal/mol
DOCKED: USER        vdW + Hbond + desolv Energy     =  -11.70 kcal/mol
DOCKED: USER        Electrostatic Energy            =   +0.00 kcal/mol
DOCKED: USER    (2) Final Total Internal Energy     =   -1.21 kcal/mol
DOCKED: USER    (3) Torsional Free Energy           =   +1.79 kcal/mol
DOCKED: USER    (4) Unbound System's Energy  [=(2)] =   -1.21 kcal/mol
DOCKED: USER    
DOCKED: USER    
DOCKED: USER    NEWDPF move ligand.pdbqt
DOCKED: USER    NEWDPF about -0.023000 0.069000 -0.054000
DOCKED: USER    NEWDPF tran0 19.506888 -10.972347 1.154479
DOCKED: USER    NEWDPF quaternion0 0.992460 0.025799 -0.113801 0.037504
DOCKED: USER    NEWDPF axisangle0 0.993159 0.025817 -0.113881 175.701342
DOCKED: USER    NEWDPF quat0 0.993159 0.025817 -0.113881 175.701342
DOCKED: USER    NEWDPF dihe0 168.13 11.52 -27.24 20.19 137.30 4.60 
DOCKED: USER  keepresnum = 1 
DOCKED: USER  
DOCKED: REMARK  Name = 
DOCKED: REMARK  6 active torsions:
DOCKED: REMARK  status: ('A' for Active; 'I' for Inactive)
DOCKED: REMARK    1  A    between atoms: C_2  and  C_5
DOCKED: REMARK    2  A    between atoms: C_5  and  C_6
DOCKED: REMARK    3  A    between atoms: C_6  and  C_7
DOCKED: REMARK    4  A    between atoms: C_7  and  C_8
DOCKED: REMARK    5  A    between atoms: C_8  and  C_9
DOCKED: REMARK    6  A    between atoms: C_9  and  N_10
DOCKED: REMARK                            x       y       z     vdW  Elec       q    Type
DOCKED: REMARK                         _______ _______ _______ _____ _____    ______ ____
DOCKED: USER                              x       y       z     vdW  Elec       q    Type
DOCKED: USER                           _______ _______ _______ _____ _____    ______ ____
DOCKED: ROOT
DOCKED: ATOM      1  N   UNL     1      18.980 -11.710   1.309 -0.55 -0.00    +0.000 N 
DOCKED: ATOM      2  C   UNL     1      18.433 -11.004   2.439 -0.57 -0.00    +0.000 C 
DOCKED: ATOM      3  C   UNL     1      16.966 -10.857   2.580 -0.43 +0.00    +0.000 A 
DOCKED: ATOM      4  C   UNL     1      16.418 -10.197   3.694 -0.30 +0.00    +0.000 A 
DOCKED: ATOM      5  C   UNL     1      15.036 -10.057   3.828 -0.41 +0.00    +0.000 A 
DOCKED: ATOM      6  C   UNL     1      14.180 -10.571   2.855 -0.35 +0.00    +0.000 A 
DOCKED: ATOM      7  C   UNL     1      14.701 -11.232   1.733 -0.38 +0.00    +0.000 A 
DOCKED: ATOM      8  C   UNL     1      13.840 -11.746   0.754 -0.39 +0.00    +0.000 A 
DOCKED: ATOM      9  C   UNL     1      14.358 -12.401  -0.363 -0.41 +0.00    +0.000 A 
DOCKED: ATOM     10  C   UNL     1      15.738 -12.552  -0.514 -0.44 +0.00    +0.000 A 
DOCKED: ATOM     11  C   UNL     1      16.623 -12.046   0.455 -0.43 +0.00    +0.000 A 
DOCKED: ATOM     12  C   UNL     1      16.105 -11.380   1.589 -0.38 +0.00    +0.000 A 
DOCKED: ATOM     13  O   UNL     1      19.202 -10.509   3.308 -0.69 -0.00    +0.000 OA
DOCKED: ATOM     14  C   UNL     1      18.086 -12.205   0.294 -0.54 -0.00    +0.000 C 
DOCKED: ATOM     15  O   UNL     1      18.548 -12.772  -0.735 -0.43 -0.00    +0.000 OA
DOCKED: ENDROOT
DOCKED: BRANCH   1  16
DOCKED: ATOM     16  C   UNL     1      20.435 -11.831   1.141 -0.68 -0.00    +0.000 C 
DOCKED: BRANCH  16  17
DOCKED: ATOM     17  C   UNL     1      20.998 -10.570   0.478 -0.69 -0.00    +0.000 C 
DOCKED: BRANCH  17  18
DOCKED: ATOM     18  C   UNL     1      20.101 -10.104  -0.674 -0.54 -0.00    +0.000 C 
DOCKED: BRANCH  18  19
DOCKED: ATOM     19  C   UNL     1      20.875  -9.194  -1.639 -0.55 -0.00    +0.000 C 
DOCKED: BRANCH  19  20
DOCKED: ATOM     20  C   UNL     1      20.263  -9.185  -3.047 -0.40 -0.00    +0.000 C 
DOCKED: BRANCH  20  22
DOCKED: ATOM     21  O   UNL     1      19.176 -11.282  -3.406 -0.43 -0.00    +0.000 OA
DOCKED: ATOM     22  C   UNL     1      20.188 -10.566  -3.631 -0.47 -0.00    +0.000 C 
DOCKED: ATOM     23  N   UNL     1      21.241 -11.058  -4.464 -0.49 -0.00    +0.000 N 
DOCKED: ATOM     24  O   UNL     1      21.165 -12.296  -5.004 -0.71 -0.00    +0.000 OA
DOCKED: ATOM     25  H   UNL     1      22.025 -10.491  -4.647 -0.03 -0.00    +0.000 HD
DOCKED: ENDBRANCH  20  22
DOCKED: ENDBRANCH  19  20
DOCKED: ENDBRANCH  18  19
DOCKED: ENDBRANCH  17  18
DOCKED: ENDBRANCH  16  17
DOCKED: ENDBRANCH   1  16
DOCKED: TORSDOF 6
DOCKED: TER
DOCKED: ENDMDL
________________________________________________________________________________


	BEGINNING GENETIC ALGORITHM DOCKING 78 of 100
Run: 78 Seed: 295146453 117095279 [ Run 78 of 100 GA/GALS ]
Beginning LAMARCKIAN GENETIC ALGORITHM (LGA), with a maximum of 2500000 energy evaluations.

Final-Value: -12.490


	FINAL GENETIC ALGORITHM DOCKED STATE
	_______________________________________________


Detailed state:  trans 18.927 -11.397 -1.144 quatxyzw 0.224507 -0.779523 0.120761 -0.572152 center -0.023 0.069 -0.054 ntor 6 -179.0871 166.4180 86.0304 158.3804 24.9906 -36.1344
State:	 18.927 -11.397  -1.144   0.274 -0.950  0.147 -110.199   -179.09  166.42   86.03  158.38   24.99  -36.13

DOCKED: MODEL       78
DOCKED: USER    Run = 78
DOCKED: USER    DPF = ligand_dock.biased.dpf
DOCKED: USER  
DOCKED: USER    Estimated Free Energy of Binding    =   -9.47 kcal/mol  [=(1)+(2)+(3)-(4)]
DOCKED: USER    Estimated Inhibition Constant, Ki   =  113.58 nM (nanomolar)  [Temperature = 298.15 K]
DOCKED: USER    
DOCKED: USER    (1) Final Intermolecular Energy     =  -11.26 kcal/mol
DOCKED: USER        vdW + Hbond + desolv Energy     =  -11.26 kcal/mol
DOCKED: USER        Electrostatic Energy            =   +0.00 kcal/mol
DOCKED: USER    (2) Final Total Internal Energy     =   -1.23 kcal/mol
DOCKED: USER    (3) Torsional Free Energy           =   +1.79 kcal/mol
DOCKED: USER    (4) Unbound System's Energy  [=(2)] =   -1.23 kcal/mol
DOCKED: USER    
DOCKED: USER    
DOCKED: USER    NEWDPF move ligand.pdbqt
DOCKED: USER    NEWDPF about -0.023000 0.069000 -0.054000
DOCKED: USER    NEWDPF tran0 18.926986 -11.396750 -1.144449
DOCKED: USER    NEWDPF quaternion0 0.224507 -0.779523 0.120761 -0.572152
DOCKED: USER    NEWDPF axisangle0 0.273739 -0.950466 0.147243 -110.199110
DOCKED: USER    NEWDPF quat0 0.273739 -0.950466 0.147243 -110.199110
DOCKED: USER    NEWDPF dihe0 -179.09 166.42 86.03 158.38 24.99 -36.13 
DOCKED: USER  keepresnum = 1 
DOCKED: USER  
DOCKED: REMARK  Name = 
DOCKED: REMARK  6 active torsions:
DOCKED: REMARK  status: ('A' for Active; 'I' for Inactive)
DOCKED: REMARK    1  A    between atoms: C_2  and  C_5
DOCKED: REMARK    2  A    between atoms: C_5  and  C_6
DOCKED: REMARK    3  A    between atoms: C_6  and  C_7
DOCKED: REMARK    4  A    between atoms: C_7  and  C_8
DOCKED: REMARK    5  A    between atoms: C_8  and  C_9
DOCKED: REMARK    6  A    between atoms: C_9  and  N_10
DOCKED: REMARK                            x       y       z     vdW  Elec       q    Type
DOCKED: REMARK                         _______ _______ _______ _____ _____    ______ ____
DOCKED: USER                              x       y       z     vdW  Elec       q    Type
DOCKED: USER                           _______ _______ _______ _____ _____    ______ ____
DOCKED: ROOT
DOCKED: ATOM      1  N   UNL     1      18.798 -10.626  -1.630 -0.37 -0.00    +0.000 N 
DOCKED: ATOM      2  C   UNL     1      20.152 -10.769  -2.097 -0.45 -0.00    +0.000 C 
DOCKED: ATOM      3  C   UNL     1      20.441 -10.746  -3.550 -0.43 -0.00    +0.000 A 
DOCKED: ATOM      4  C   UNL     1      21.763 -10.852  -4.017 -0.41 -0.00    +0.000 A 
DOCKED: ATOM      5  C   UNL     1      22.035 -10.832  -5.386 -0.38 -0.00    +0.000 A 
DOCKED: ATOM      6  C   UNL     1      20.998 -10.706  -6.308 -0.33 -0.00    +0.000 A 
DOCKED: ATOM      7  C   UNL     1      19.670 -10.599  -5.868 -0.32 -0.00    +0.000 A 
DOCKED: ATOM      8  C   UNL     1      18.627 -10.474  -6.795 -0.27 -0.00    +0.000 A 
DOCKED: ATOM      9  C   UNL     1      17.307 -10.372  -6.358 -0.23 -0.00    +0.000 A 
DOCKED: ATOM     10  C   UNL     1      17.014 -10.390  -4.993 -0.22 -0.00    +0.000 A 
DOCKED: ATOM     11  C   UNL     1      18.043 -10.513  -4.042 -0.23 -0.00    +0.000 A 
DOCKED: ATOM     12  C   UNL     1      19.383 -10.618  -4.478 -0.35 -0.00    +0.000 A 
DOCKED: ATOM     13  O   UNL     1      21.094 -10.914  -1.270 -0.62 -0.00    +0.000 OA
DOCKED: ATOM     14  C   UNL     1      17.732 -10.532  -2.595 -0.23 -0.00    +0.000 C 
DOCKED: ATOM     15  O   UNL     1      16.532 -10.470  -2.208 -0.31 -0.00    +0.000 OA
DOCKED: ENDROOT
DOCKED: BRANCH   1  16
DOCKED: ATOM     16  C   UNL     1      18.496 -10.684  -0.193 -0.38 -0.00    +0.000 C 
DOCKED: BRANCH  16  17
DOCKED: ATOM     17  C   UNL     1      17.463 -11.780   0.088 -0.49 +0.00    +0.000 C 
DOCKED: BRANCH  17  18
DOCKED: ATOM     18  C   UNL     1      16.684 -11.488   1.375 -0.45 +0.00    +0.000 C 
DOCKED: BRANCH  18  19
DOCKED: ATOM     19  C   UNL     1      17.464 -10.526   2.283 -0.49 +0.00    +0.000 C 
DOCKED: BRANCH  19  20
DOCKED: ATOM     20  C   UNL     1      18.374 -11.267   3.272 -0.39 +0.00    +0.000 C 
DOCKED: BRANCH  20  22
DOCKED: ATOM     21  O   UNL     1      20.649 -10.535   3.242 -1.11 -0.00    +0.000 OA
DOCKED: ATOM     22  C   UNL     1      19.792 -11.335   2.781 -0.74 -0.00    +0.000 C 
DOCKED: ATOM     23  N   UNL     1      20.178 -12.322   1.821 -0.71 -0.00    +0.000 N 
DOCKED: ATOM     24  O   UNL     1      21.459 -12.394   1.391 -0.99 -0.00    +0.000 OA
DOCKED: ATOM     25  H   UNL     1      19.508 -12.953   1.471 -0.34 -0.00    +0.000 HD
DOCKED: ENDBRANCH  20  22
DOCKED: ENDBRANCH  19  20
DOCKED: ENDBRANCH  18  19
DOCKED: ENDBRANCH  17  18
DOCKED: ENDBRANCH  16  17
DOCKED: ENDBRANCH   1  16
DOCKED: TORSDOF 6
DOCKED: TER
DOCKED: ENDMDL
________________________________________________________________________________


	BEGINNING GENETIC ALGORITHM DOCKING 79 of 100
Run: 79 Seed: 1902915867 1893436752 [ Run 79 of 100 GA/GALS ]
Beginning LAMARCKIAN GENETIC ALGORITHM (LGA), with a maximum of 2500000 energy evaluations.

Final-Value: -12.376


	FINAL GENETIC ALGORITHM DOCKED STATE
	_______________________________________________


Detailed state:  trans 18.458 -11.519 -2.288 quatxyzw -0.169237 -0.582639 0.244964 0.756230 center -0.023 0.069 -0.054 ntor 6 44.1865 174.1741 -99.3043 176.6238 -64.1012 179.2934
State:	 18.458 -11.519  -2.288  -0.259 -0.890  0.374 81.734     44.19  174.17  -99.30  176.62  -64.10  179.29

DOCKED: MODEL       79
DOCKED: USER    Run = 79
DOCKED: USER    DPF = ligand_dock.biased.dpf
DOCKED: USER  
DOCKED: USER    Estimated Free Energy of Binding    =   -9.76 kcal/mol  [=(1)+(2)+(3)-(4)]
DOCKED: USER    Estimated Inhibition Constant, Ki   =   69.74 nM (nanomolar)  [Temperature = 298.15 K]
DOCKED: USER    
DOCKED: USER    (1) Final Intermolecular Energy     =  -11.55 kcal/mol
DOCKED: USER        vdW + Hbond + desolv Energy     =  -11.55 kcal/mol
DOCKED: USER        Electrostatic Energy            =   +0.00 kcal/mol
DOCKED: USER    (2) Final Total Internal Energy     =   -0.82 kcal/mol
DOCKED: USER    (3) Torsional Free Energy           =   +1.79 kcal/mol
DOCKED: USER    (4) Unbound System's Energy  [=(2)] =   -0.82 kcal/mol
DOCKED: USER    
DOCKED: USER    
DOCKED: USER    NEWDPF move ligand.pdbqt
DOCKED: USER    NEWDPF about -0.023000 0.069000 -0.054000
DOCKED: USER    NEWDPF tran0 18.458436 -11.519312 -2.287794
DOCKED: USER    NEWDPF quaternion0 -0.169237 -0.582639 0.244964 0.756230
DOCKED: USER    NEWDPF axisangle0 -0.258651 -0.890468 0.374388 81.734147
DOCKED: USER    NEWDPF quat0 -0.258651 -0.890468 0.374388 81.734147
DOCKED: USER    NEWDPF dihe0 44.19 174.17 -99.30 176.62 -64.10 179.29 
DOCKED: USER  keepresnum = 1 
DOCKED: USER  
DOCKED: REMARK  Name = 
DOCKED: REMARK  6 active torsions:
DOCKED: REMARK  status: ('A' for Active; 'I' for Inactive)
DOCKED: REMARK    1  A    between atoms: C_2  and  C_5
DOCKED: REMARK    2  A    between atoms: C_5  and  C_6
DOCKED: REMARK    3  A    between atoms: C_6  and  C_7
DOCKED: REMARK    4  A    between atoms: C_7  and  C_8
DOCKED: REMARK    5  A    between atoms: C_8  and  C_9
DOCKED: REMARK    6  A    between atoms: C_9  and  N_10
DOCKED: REMARK                            x       y       z     vdW  Elec       q    Type
DOCKED: REMARK                         _______ _______ _______ _____ _____    ______ ____
DOCKED: USER                              x       y       z     vdW  Elec       q    Type
DOCKED: USER                           _______ _______ _______ _____ _____    ______ ____
DOCKED: ROOT
DOCKED: ATOM      1  N   UNL     1      18.672 -10.797  -1.760 -0.37 -0.00    +0.000 N 
DOCKED: ATOM      2  C   UNL     1      17.322 -10.840  -1.263 -0.32 -0.00    +0.000 C 
DOCKED: ATOM      3  C   UNL     1      17.070 -10.883   0.196 -0.33 -0.00    +0.000 A 
DOCKED: ATOM      4  C   UNL     1      15.755 -10.894   0.694 -0.31 +0.00    +0.000 A 
DOCKED: ATOM      5  C   UNL     1      15.518 -10.935   2.069 -0.38 +0.00    +0.000 A 
DOCKED: ATOM      6  C   UNL     1      16.584 -10.966   2.967 -0.42 +0.00    +0.000 A 
DOCKED: ATOM      7  C   UNL     1      17.904 -10.957   2.495 -0.46 +0.00    +0.000 A 
DOCKED: ATOM      8  C   UNL     1      18.976 -10.991   3.398 -0.41 -0.00    +0.000 A 
DOCKED: ATOM      9  C   UNL     1      20.290 -10.985   2.929 -0.63 -0.00    +0.000 A 
DOCKED: ATOM     10  C   UNL     1      20.548 -10.944   1.558 -0.63 -0.00    +0.000 A 
DOCKED: ATOM     11  C   UNL     1      19.490 -10.909   0.632 -0.54 -0.00    +0.000 A 
DOCKED: ATOM     12  C   UNL     1      18.156 -10.915   1.099 -0.42 -0.00    +0.000 A 
DOCKED: ATOM     13  O   UNL     1      16.351 -10.844  -2.070 -0.29 -0.00    +0.000 OA
DOCKED: ATOM     14  C   UNL     1      19.764 -10.866  -0.823 -0.53 -0.00    +0.000 C 
DOCKED: ATOM     15  O   UNL     1      20.955 -10.892  -1.240 -0.62 -0.00    +0.000 OA
DOCKED: ENDROOT
DOCKED: BRANCH   1  16
DOCKED: ATOM     16  C   UNL     1      18.934 -10.791  -3.206 -0.36 -0.00    +0.000 C 
DOCKED: BRANCH  16  17
DOCKED: ATOM     17  C   UNL     1      19.025  -9.352  -3.722 -0.26 -0.00    +0.000 C 
DOCKED: BRANCH  17  18
DOCKED: ATOM     18  C   UNL     1      20.429  -9.043  -4.254 -0.33 -0.00    +0.000 C 
DOCKED: BRANCH  18  19
DOCKED: ATOM     19  C   UNL     1      21.369 -10.241  -4.051 -0.50 -0.00    +0.000 C 
DOCKED: BRANCH  19  20
DOCKED: ATOM     20  C   UNL     1      21.242 -11.278  -5.176 -0.54 -0.00    +0.000 C 
DOCKED: BRANCH  20  22
DOCKED: ATOM     21  O   UNL     1      22.948 -10.123  -6.387 -0.34 -0.00    +0.000 OA
DOCKED: ATOM     22  C   UNL     1      22.415 -11.231  -6.112 -0.46 -0.00    +0.000 C 
DOCKED: ATOM     23  N   UNL     1      22.948 -12.437  -6.664 -0.54 -0.00    +0.000 N 
DOCKED: ATOM     24  O   UNL     1      24.016 -12.396  -7.494 -1.04 -0.00    +0.000 OA
DOCKED: ATOM     25  H   UNL     1      22.537 -13.303  -6.438 -0.52 -0.00    +0.000 HD
DOCKED: ENDBRANCH  20  22
DOCKED: ENDBRANCH  19  20
DOCKED: ENDBRANCH  18  19
DOCKED: ENDBRANCH  17  18
DOCKED: ENDBRANCH  16  17
DOCKED: ENDBRANCH   1  16
DOCKED: TORSDOF 6
DOCKED: TER
DOCKED: ENDMDL
________________________________________________________________________________


	BEGINNING GENETIC ALGORITHM DOCKING 80 of 100
Run: 80 Seed: 626550186 272259239 [ Run 80 of 100 GA/GALS ]
Beginning LAMARCKIAN GENETIC ALGORITHM (LGA), with a maximum of 2500000 energy evaluations.

Final-Value: -12.787


	FINAL GENETIC ALGORITHM DOCKED STATE
	_______________________________________________


Detailed state:  trans 16.060 -12.462 -0.918 quatxyzw -0.191709 0.974739 -0.044039 -0.105789 center -0.023 0.069 -0.054 ntor 6 148.1661 179.6704 179.8690 33.5752 -127.4852 162.0135
State:	 16.060 -12.462  -0.918  -0.193  0.980 -0.044 -167.855    148.17  179.67  179.87   33.58 -127.49  162.01

DOCKED: MODEL       80
DOCKED: USER    Run = 80
DOCKED: USER    DPF = ligand_dock.biased.dpf
DOCKED: USER  
DOCKED: USER    Estimated Free Energy of Binding    =   -8.63 kcal/mol  [=(1)+(2)+(3)-(4)]
DOCKED: USER    Estimated Inhibition Constant, Ki   =  470.94 nM (nanomolar)  [Temperature = 298.15 K]
DOCKED: USER    
DOCKED: USER    (1) Final Intermolecular Energy     =  -10.42 kcal/mol
DOCKED: USER        vdW + Hbond + desolv Energy     =  -10.42 kcal/mol
DOCKED: USER        Electrostatic Energy            =   +0.00 kcal/mol
DOCKED: USER    (2) Final Total Internal Energy     =   -2.37 kcal/mol
DOCKED: USER    (3) Torsional Free Energy           =   +1.79 kcal/mol
DOCKED: USER    (4) Unbound System's Energy  [=(2)] =   -2.37 kcal/mol
DOCKED: USER    
DOCKED: USER    
DOCKED: USER    NEWDPF move ligand.pdbqt
DOCKED: USER    NEWDPF about -0.023000 0.069000 -0.054000
DOCKED: USER    NEWDPF tran0 16.059616 -12.462348 -0.917841
DOCKED: USER    NEWDPF quaternion0 -0.191709 0.974739 -0.044039 -0.105789
DOCKED: USER    NEWDPF axisangle0 -0.192791 0.980240 -0.044287 -167.854733
DOCKED: USER    NEWDPF quat0 -0.192791 0.980240 -0.044287 -167.854733
DOCKED: USER    NEWDPF dihe0 148.17 179.67 179.87 33.58 -127.49 162.01 
DOCKED: USER  keepresnum = 1 
DOCKED: USER  
DOCKED: REMARK  Name = 
DOCKED: REMARK  6 active torsions:
DOCKED: REMARK  status: ('A' for Active; 'I' for Inactive)
DOCKED: REMARK    1  A    between atoms: C_2  and  C_5
DOCKED: REMARK    2  A    between atoms: C_5  and  C_6
DOCKED: REMARK    3  A    between atoms: C_6  and  C_7
DOCKED: REMARK    4  A    between atoms: C_7  and  C_8
DOCKED: REMARK    5  A    between atoms: C_8  and  C_9
DOCKED: REMARK    6  A    between atoms: C_9  and  N_10
DOCKED: REMARK                            x       y       z     vdW  Elec       q    Type
DOCKED: REMARK                         _______ _______ _______ _____ _____    ______ ____
DOCKED: USER                              x       y       z     vdW  Elec       q    Type
DOCKED: USER                           _______ _______ _______ _____ _____    ______ ____
DOCKED: ROOT
DOCKED: ATOM      1  N   UNL     1      16.321 -11.586  -0.816 -0.33 +0.00    +0.000 N 
DOCKED: ATOM      2  C   UNL     1      17.084 -12.014   0.328 -0.50 +0.00    +0.000 C 
DOCKED: ATOM      3  C   UNL     1      18.522 -11.672   0.429 -0.49 -0.00    +0.000 A 
DOCKED: ATOM      4  C   UNL     1      19.271 -12.056   1.555 -0.60 -0.00    +0.000 A 
DOCKED: ATOM      5  C   UNL     1      20.625 -11.735   1.650 -0.68 -0.00    +0.000 A 
DOCKED: ATOM      6  C   UNL     1      21.254 -11.027   0.627 -0.38 -0.00    +0.000 A 
DOCKED: ATOM      7  C   UNL     1      20.530 -10.633  -0.508 -0.56 -0.00    +0.000 A 
DOCKED: ATOM      8  C   UNL     1      21.163  -9.924  -1.537 -0.56 -0.00    +0.000 A 
DOCKED: ATOM      9  C   UNL     1      20.444  -9.534  -2.667 -0.42 -0.00    +0.000 A 
DOCKED: ATOM     10  C   UNL     1      19.087  -9.846  -2.781 -0.21 -0.00    +0.000 A 
DOCKED: ATOM     11  C   UNL     1      18.429 -10.556  -1.761 -0.28 -0.00    +0.000 A 
DOCKED: ATOM     12  C   UNL     1      19.152 -10.954  -0.613 -0.44 -0.00    +0.000 A 
DOCKED: ATOM     13  O   UNL     1      16.530 -12.681   1.245 -1.01 +0.00    +0.000 OA
DOCKED: ATOM     14  C   UNL     1      16.991 -10.887  -1.882 -0.15 -0.00    +0.000 C 
DOCKED: ATOM     15  O   UNL     1      16.355 -10.558  -2.921 -0.27 -0.00    +0.000 OA
DOCKED: ENDROOT
DOCKED: BRANCH   1  16
DOCKED: ATOM     16  C   UNL     1      14.903 -11.952  -0.943 -0.43 +0.00    +0.000 C 
DOCKED: BRANCH  16  17
DOCKED: ATOM     17  C   UNL     1      14.052 -11.114   0.017 -0.35 +0.00    +0.000 C 
DOCKED: BRANCH  17  18
DOCKED: ATOM     18  C   UNL     1      14.333  -9.617  -0.159 -0.25 +0.00    +0.000 C 
DOCKED: BRANCH  18  19
DOCKED: ATOM     19  C   UNL     1      14.219  -8.876   1.182 -0.24 +0.00    +0.000 C 
DOCKED: BRANCH  19  20
DOCKED: ATOM     20  C   UNL     1      13.930  -9.827   2.351 -0.29 +0.00    +0.000 C 
DOCKED: BRANCH  20  22
DOCKED: ATOM     21  O   UNL     1      15.438  -8.939   3.978 -0.43 +0.00    +0.000 OA
DOCKED: ATOM     22  C   UNL     1      15.102  -9.935   3.284 -0.43 +0.00    +0.000 C 
DOCKED: ATOM     23  N   UNL     1      15.814 -11.168   3.411 -0.51 +0.00    +0.000 N 
DOCKED: ATOM     24  O   UNL     1      16.859 -11.269   4.265 -0.56 +0.00    +0.000 OA
DOCKED: ATOM     25  H   UNL     1      15.542 -11.948   2.876 -0.04 +0.00    +0.000 HD
DOCKED: ENDBRANCH  20  22
DOCKED: ENDBRANCH  19  20
DOCKED: ENDBRANCH  18  19
DOCKED: ENDBRANCH  17  18
DOCKED: ENDBRANCH  16  17
DOCKED: ENDBRANCH   1  16
DOCKED: TORSDOF 6
DOCKED: TER
DOCKED: ENDMDL
________________________________________________________________________________


	BEGINNING GENETIC ALGORITHM DOCKING 81 of 100
Run: 81 Seed: 1527848726 1321472269 [ Run 81 of 100 GA/GALS ]
Beginning LAMARCKIAN GENETIC ALGORITHM (LGA), with a maximum of 2500000 energy evaluations.

Final-Value: -13.076


	FINAL GENETIC ALGORITHM DOCKED STATE
	_______________________________________________


Detailed state:  trans 19.208 -12.611 1.472 quatxyzw 0.074782 -0.066370 -0.165194 -0.981180 center -0.023 0.069 -0.054 ntor 6 -174.6106 173.8856 -155.4179 11.2396 -146.7813 157.2805
State:	 19.208 -12.611   1.472   0.387 -0.344 -0.855 -22.267   -174.61  173.89 -155.42   11.24 -146.78  157.28

DOCKED: MODEL       81
DOCKED: USER    Run = 81
DOCKED: USER    DPF = ligand_dock.biased.dpf
DOCKED: USER  
DOCKED: USER    Estimated Free Energy of Binding    =   -9.19 kcal/mol  [=(1)+(2)+(3)-(4)]
DOCKED: USER    Estimated Inhibition Constant, Ki   =  183.38 nM (nanomolar)  [Temperature = 298.15 K]
DOCKED: USER    
DOCKED: USER    (1) Final Intermolecular Energy     =  -10.98 kcal/mol
DOCKED: USER        vdW + Hbond + desolv Energy     =  -10.98 kcal/mol
DOCKED: USER        Electrostatic Energy            =   +0.00 kcal/mol
DOCKED: USER    (2) Final Total Internal Energy     =   -2.10 kcal/mol
DOCKED: USER    (3) Torsional Free Energy           =   +1.79 kcal/mol
DOCKED: USER    (4) Unbound System's Energy  [=(2)] =   -2.10 kcal/mol
DOCKED: USER    
DOCKED: USER    
DOCKED: USER    NEWDPF move ligand.pdbqt
DOCKED: USER    NEWDPF about -0.023000 0.069000 -0.054000
DOCKED: USER    NEWDPF tran0 19.208302 -12.611394 1.472442
DOCKED: USER    NEWDPF quaternion0 0.074782 -0.066370 -0.165194 -0.981180
DOCKED: USER    NEWDPF axisangle0 0.387280 -0.343712 -0.855498 -22.267119
DOCKED: USER    NEWDPF quat0 0.387280 -0.343712 -0.855498 -22.267119
DOCKED: USER    NEWDPF dihe0 -174.61 173.89 -155.42 11.24 -146.78 157.28 
DOCKED: USER  keepresnum = 1 
DOCKED: USER  
DOCKED: REMARK  Name = 
DOCKED: REMARK  6 active torsions:
DOCKED: REMARK  status: ('A' for Active; 'I' for Inactive)
DOCKED: REMARK    1  A    between atoms: C_2  and  C_5
DOCKED: REMARK    2  A    between atoms: C_5  and  C_6
DOCKED: REMARK    3  A    between atoms: C_6  and  C_7
DOCKED: REMARK    4  A    between atoms: C_7  and  C_8
DOCKED: REMARK    5  A    between atoms: C_8  and  C_9
DOCKED: REMARK    6  A    between atoms: C_9  and  N_10
DOCKED: REMARK                            x       y       z     vdW  Elec       q    Type
DOCKED: REMARK                         _______ _______ _______ _____ _____    ______ ____
DOCKED: USER                              x       y       z     vdW  Elec       q    Type
DOCKED: USER                           _______ _______ _______ _____ _____    ______ ____
DOCKED: ROOT
DOCKED: ATOM      1  N   UNL     1      18.887 -11.750   1.449 -0.55 -0.00    +0.000 N 
DOCKED: ATOM      2  C   UNL     1      18.078 -12.150   0.327 -0.54 -0.00    +0.000 C 
DOCKED: ATOM      3  C   UNL     1      16.618 -11.897   0.340 -0.42 +0.00    +0.000 A 
DOCKED: ATOM      4  C   UNL     1      15.822 -12.255  -0.762 -0.32 +0.00    +0.000 A 
DOCKED: ATOM      5  C   UNL     1      14.446 -12.018  -0.751 -0.40 +0.00    +0.000 A 
DOCKED: ATOM      6  C   UNL     1      13.844 -11.423   0.357 -0.35 +0.00    +0.000 A 
DOCKED: ATOM      7  C   UNL     1      14.616 -11.059   1.470 -0.34 +0.00    +0.000 A 
DOCKED: ATOM      8  C   UNL     1      14.010 -10.463   2.584 -0.32 +0.00    +0.000 A 
DOCKED: ATOM      9  C   UNL     1      14.777 -10.103   3.692 -0.39 +0.00    +0.000 A 
DOCKED: ATOM     10  C   UNL     1      16.154 -10.331   3.699 -0.41 +0.00    +0.000 A 
DOCKED: ATOM     11  C   UNL     1      16.786 -10.927   2.593 -0.42 +0.00    +0.000 A 
DOCKED: ATOM     12  C   UNL     1      16.015 -11.295   1.467 -0.37 +0.00    +0.000 A 
DOCKED: ATOM     13  O   UNL     1      18.610 -12.716  -0.667 -0.44 -0.00    +0.000 OA
DOCKED: ATOM     14  C   UNL     1      18.247 -11.169   2.601 -0.52 +0.00    +0.000 C 
DOCKED: ATOM     15  O   UNL     1      18.929 -10.868   3.620 -0.63 -0.00    +0.000 OA
DOCKED: ENDROOT
DOCKED: BRANCH   1  16
DOCKED: ATOM     16  C   UNL     1      20.330 -12.028   1.462 -0.74 -0.00    +0.000 C 
DOCKED: BRANCH  16  17
DOCKED: ATOM     17  C   UNL     1      21.047 -11.155   0.427 -0.60 -0.00    +0.000 C 
DOCKED: BRANCH  17  18
DOCKED: ATOM     18  C   UNL     1      20.361  -9.791   0.285 -0.54 -0.00    +0.000 C 
DOCKED: BRANCH  18  19
DOCKED: ATOM     19  C   UNL     1      20.895  -9.033  -0.939 -0.55 -0.00    +0.000 C 
DOCKED: BRANCH  19  20
DOCKED: ATOM     20  C   UNL     1      21.397  -9.981  -2.038 -0.57 -0.00    +0.000 C 
DOCKED: BRANCH  20  22
DOCKED: ATOM     21  O   UNL     1      20.716  -9.462  -4.269 -0.34 -0.00    +0.000 OA
DOCKED: ATOM     22  C   UNL     1      20.439 -10.053  -3.191 -0.48 -0.00    +0.000 C 
DOCKED: ATOM     23  N   UNL     1      19.234 -10.815  -3.084 -0.38 -0.00    +0.000 N 
DOCKED: ATOM     24  O   UNL     1      18.379 -10.894  -4.130 -0.33 -0.00    +0.000 OA
DOCKED: ATOM     25  H   UNL     1      19.026 -11.286  -2.245 -0.02 -0.00    +0.000 HD
DOCKED: ENDBRANCH  20  22
DOCKED: ENDBRANCH  19  20
DOCKED: ENDBRANCH  18  19
DOCKED: ENDBRANCH  17  18
DOCKED: ENDBRANCH  16  17
DOCKED: ENDBRANCH   1  16
DOCKED: TORSDOF 6
DOCKED: TER
DOCKED: ENDMDL
________________________________________________________________________________


	BEGINNING GENETIC ALGORITHM DOCKING 82 of 100
Run: 82 Seed: 2014704808 1381769394 [ Run 82 of 100 GA/GALS ]
Beginning LAMARCKIAN GENETIC ALGORITHM (LGA), with a maximum of 2500000 energy evaluations.

Final-Value: -12.743


	FINAL GENETIC ALGORITHM DOCKED STATE
	_______________________________________________


Detailed state:  trans 20.287 -11.152 -1.073 quatxyzw -0.236579 0.615576 -0.102587 0.744697 center -0.023 0.069 -0.054 ntor 6 164.5064 158.9273 172.0618 -90.6386 6.3550 -19.3291
State:	 20.287 -11.152  -1.073  -0.354  0.922 -0.154 83.734    164.51  158.93  172.06  -90.64    6.35  -19.33

DOCKED: MODEL       82
DOCKED: USER    Run = 82
DOCKED: USER    DPF = ligand_dock.biased.dpf
DOCKED: USER  
DOCKED: USER    Estimated Free Energy of Binding    =   -9.08 kcal/mol  [=(1)+(2)+(3)-(4)]
DOCKED: USER    Estimated Inhibition Constant, Ki   =  219.22 nM (nanomolar)  [Temperature = 298.15 K]
DOCKED: USER    
DOCKED: USER    (1) Final Intermolecular Energy     =  -10.87 kcal/mol
DOCKED: USER        vdW + Hbond + desolv Energy     =  -10.87 kcal/mol
DOCKED: USER        Electrostatic Energy            =   +0.00 kcal/mol
DOCKED: USER    (2) Final Total Internal Energy     =   -1.87 kcal/mol
DOCKED: USER    (3) Torsional Free Energy           =   +1.79 kcal/mol
DOCKED: USER    (4) Unbound System's Energy  [=(2)] =   -1.87 kcal/mol
DOCKED: USER    
DOCKED: USER    
DOCKED: USER    NEWDPF move ligand.pdbqt
DOCKED: USER    NEWDPF about -0.023000 0.069000 -0.054000
DOCKED: USER    NEWDPF tran0 20.287030 -11.151502 -1.073052
DOCKED: USER    NEWDPF quaternion0 -0.236579 0.615576 -0.102587 0.744697
DOCKED: USER    NEWDPF axisangle0 -0.354477 0.922345 -0.153710 83.733917
DOCKED: USER    NEWDPF quat0 -0.354477 0.922345 -0.153710 83.733917
DOCKED: USER    NEWDPF dihe0 164.51 158.93 172.06 -90.64 6.35 -19.33 
DOCKED: USER  keepresnum = 1 
DOCKED: USER  
DOCKED: REMARK  Name = 
DOCKED: REMARK  6 active torsions:
DOCKED: REMARK  status: ('A' for Active; 'I' for Inactive)
DOCKED: REMARK    1  A    between atoms: C_2  and  C_5
DOCKED: REMARK    2  A    between atoms: C_5  and  C_6
DOCKED: REMARK    3  A    between atoms: C_6  and  C_7
DOCKED: REMARK    4  A    between atoms: C_7  and  C_8
DOCKED: REMARK    5  A    between atoms: C_8  and  C_9
DOCKED: REMARK    6  A    between atoms: C_9  and  N_10
DOCKED: REMARK                            x       y       z     vdW  Elec       q    Type
DOCKED: REMARK                         _______ _______ _______ _____ _____    ______ ____
DOCKED: USER                              x       y       z     vdW  Elec       q    Type
DOCKED: USER                           _______ _______ _______ _____ _____    ______ ____
DOCKED: ROOT
DOCKED: ATOM      1  N   UNL     1      19.916 -10.424  -1.496 -0.46 -0.00    +0.000 N 
DOCKED: ATOM      2  C   UNL     1      20.917 -10.587  -2.518 -0.52 -0.00    +0.000 C 
DOCKED: ATOM      3  C   UNL     1      20.515 -10.677  -3.941 -0.44 -0.00    +0.000 A 
DOCKED: ATOM      4  C   UNL     1      21.484 -10.805  -4.951 -0.45 -0.00    +0.000 A 
DOCKED: ATOM      5  C   UNL     1      21.106 -10.891  -6.292 -0.34 -0.00    +0.000 A 
DOCKED: ATOM      6  C   UNL     1      19.758 -10.851  -6.646 -0.29 -0.00    +0.000 A 
DOCKED: ATOM      7  C   UNL     1      18.771 -10.725  -5.658 -0.32 -0.00    +0.000 A 
DOCKED: ATOM      8  C   UNL     1      17.416 -10.687  -6.014 -0.27 -0.00    +0.000 A 
DOCKED: ATOM      9  C   UNL     1      16.434 -10.565  -5.031 -0.21 -0.00    +0.000 A 
DOCKED: ATOM     10  C   UNL     1      16.793 -10.477  -3.685 -0.11 -0.00    +0.000 A 
DOCKED: ATOM     11  C   UNL     1      18.146 -10.512  -3.301 -0.23 -0.00    +0.000 A 
DOCKED: ATOM     12  C   UNL     1      19.146 -10.636  -4.292 -0.34 -0.00    +0.000 A 
DOCKED: ATOM     13  O   UNL     1      22.137 -10.655  -2.204 -0.43 -0.00    +0.000 OA
DOCKED: ATOM     14  C   UNL     1      18.526 -10.420  -1.873 -0.26 -0.00    +0.000 C 
DOCKED: ATOM     15  O   UNL     1      17.630 -10.340  -0.987 -0.29 -0.00    +0.000 OA
DOCKED: ENDROOT
DOCKED: BRANCH   1  16
DOCKED: ATOM     16  C   UNL     1      20.301 -10.370  -0.079 -0.63 -0.00    +0.000 C 
DOCKED: BRANCH  16  17
DOCKED: ATOM     17  C   UNL     1      19.907 -11.671   0.627 -0.66 -0.00    +0.000 C 
DOCKED: BRANCH  17  18
DOCKED: ATOM     18  C   UNL     1      20.158 -11.579   2.136 -0.78 -0.00    +0.000 C 
DOCKED: BRANCH  18  19
DOCKED: ATOM     19  C   UNL     1      18.921 -11.033   2.866 -0.64 -0.00    +0.000 C 
DOCKED: BRANCH  19  20
DOCKED: ATOM     20  C   UNL     1      17.810 -10.614   1.894 -0.49 -0.00    +0.000 C 
DOCKED: BRANCH  20  22
DOCKED: ATOM     21  O   UNL     1      15.912 -11.979   2.393 -0.56 +0.00    +0.000 OA
DOCKED: ATOM     22  C   UNL     1      16.867 -11.747   1.604 -0.43 +0.00    +0.000 C 
DOCKED: ATOM     23  N   UNL     1      17.028 -12.538   0.425 -0.50 +0.00    +0.000 N 
DOCKED: ATOM     24  O   UNL     1      16.168 -13.548   0.155 -1.18 +0.00    +0.000 OA
DOCKED: ATOM     25  H   UNL     1      17.768 -12.347  -0.196 -0.03 -0.00    +0.000 HD
DOCKED: ENDBRANCH  20  22
DOCKED: ENDBRANCH  19  20
DOCKED: ENDBRANCH  18  19
DOCKED: ENDBRANCH  17  18
DOCKED: ENDBRANCH  16  17
DOCKED: ENDBRANCH   1  16
DOCKED: TORSDOF 6
DOCKED: TER
DOCKED: ENDMDL
________________________________________________________________________________


	BEGINNING GENETIC ALGORITHM DOCKING 83 of 100
Run: 83 Seed: 760546409 762693093 [ Run 83 of 100 GA/GALS ]
Beginning LAMARCKIAN GENETIC ALGORITHM (LGA), with a maximum of 2500000 energy evaluations.

Final-Value: -13.339


	FINAL GENETIC ALGORITHM DOCKED STATE
	_______________________________________________


Detailed state:  trans 19.539 -10.282 1.303 quatxyzw 0.985741 0.111808 -0.076160 -0.100069 center -0.023 0.069 -0.054 ntor 6 -154.7033 166.5261 38.7759 -27.4178 86.0469 -5.0825
State:	 19.539 -10.282   1.303   0.991  0.112 -0.077 -168.514   -154.70  166.53   38.78  -27.42   86.05   -5.08

DOCKED: MODEL       83
DOCKED: USER    Run = 83
DOCKED: USER    DPF = ligand_dock.biased.dpf
DOCKED: USER  
DOCKED: USER    Estimated Free Energy of Binding    =   -9.11 kcal/mol  [=(1)+(2)+(3)-(4)]
DOCKED: USER    Estimated Inhibition Constant, Ki   =  211.01 nM (nanomolar)  [Temperature = 298.15 K]
DOCKED: USER    
DOCKED: USER    (1) Final Intermolecular Energy     =  -10.90 kcal/mol
DOCKED: USER        vdW + Hbond + desolv Energy     =  -10.90 kcal/mol
DOCKED: USER        Electrostatic Energy            =   +0.00 kcal/mol
DOCKED: USER    (2) Final Total Internal Energy     =   -2.44 kcal/mol
DOCKED: USER    (3) Torsional Free Energy           =   +1.79 kcal/mol
DOCKED: USER    (4) Unbound System's Energy  [=(2)] =   -2.44 kcal/mol
DOCKED: USER    
DOCKED: USER    
DOCKED: USER    NEWDPF move ligand.pdbqt
DOCKED: USER    NEWDPF about -0.023000 0.069000 -0.054000
DOCKED: USER    NEWDPF tran0 19.539233 -10.282361 1.302593
DOCKED: USER    NEWDPF quaternion0 0.985741 0.111808 -0.076160 -0.100069
DOCKED: USER    NEWDPF axisangle0 0.990714 0.112372 -0.076544 -168.513745
DOCKED: USER    NEWDPF quat0 0.990714 0.112372 -0.076544 -168.513745
DOCKED: USER    NEWDPF dihe0 -154.70 166.53 38.78 -27.42 86.05 -5.08 
DOCKED: USER  keepresnum = 1 
DOCKED: USER  
DOCKED: REMARK  Name = 
DOCKED: REMARK  6 active torsions:
DOCKED: REMARK  status: ('A' for Active; 'I' for Inactive)
DOCKED: REMARK    1  A    between atoms: C_2  and  C_5
DOCKED: REMARK    2  A    between atoms: C_5  and  C_6
DOCKED: REMARK    3  A    between atoms: C_6  and  C_7
DOCKED: REMARK    4  A    between atoms: C_7  and  C_8
DOCKED: REMARK    5  A    between atoms: C_8  and  C_9
DOCKED: REMARK    6  A    between atoms: C_9  and  N_10
DOCKED: REMARK                            x       y       z     vdW  Elec       q    Type
DOCKED: REMARK                         _______ _______ _______ _____ _____    ______ ____
DOCKED: USER                              x       y       z     vdW  Elec       q    Type
DOCKED: USER                           _______ _______ _______ _____ _____    ______ ____
DOCKED: ROOT
DOCKED: ATOM      1  N   UNL     1      19.145 -11.055   1.609 -0.53 -0.00    +0.000 N 
DOCKED: ATOM      2  C   UNL     1      18.355 -10.229   2.485 -0.57 -0.00    +0.000 C 
DOCKED: ATOM      3  C   UNL     1      16.879 -10.360   2.495 -0.41 +0.00    +0.000 A 
DOCKED: ATOM      4  C   UNL     1      16.099  -9.581   3.367 -0.38 +0.00    +0.000 A 
DOCKED: ATOM      5  C   UNL     1      14.709  -9.704   3.376 -0.35 +0.00    +0.000 A 
DOCKED: ATOM      6  C   UNL     1      14.075 -10.601   2.518 -0.33 +0.00    +0.000 A 
DOCKED: ATOM      7  C   UNL     1      14.832 -11.388   1.637 -0.39 +0.00    +0.000 A 
DOCKED: ATOM      8  C   UNL     1      14.195 -12.289   0.772 -0.38 +0.00    +0.000 A 
DOCKED: ATOM      9  C   UNL     1      14.946 -13.069  -0.107 -0.45 +0.00    +0.000 A 
DOCKED: ATOM     10  C   UNL     1      16.338 -12.962  -0.130 -0.48 +0.00    +0.000 A 
DOCKED: ATOM     11  C   UNL     1      17.000 -12.067   0.728 -0.44 +0.00    +0.000 A 
DOCKED: ATOM     12  C   UNL     1      16.246 -11.272   1.621 -0.38 +0.00    +0.000 A 
DOCKED: ATOM     13  O   UNL     1      18.918  -9.392   3.244 -0.51 -0.00    +0.000 OA
DOCKED: ATOM     14  C   UNL     1      18.476 -11.952   0.702 -0.58 -0.00    +0.000 C 
DOCKED: ATOM     15  O   UNL     1      19.147 -12.640  -0.117 -0.41 -0.00    +0.000 OA
DOCKED: ENDROOT
DOCKED: BRANCH   1  16
DOCKED: ATOM     16  C   UNL     1      20.607 -10.908   1.565 -0.70 -0.00    +0.000 C 
DOCKED: BRANCH  16  17
DOCKED: ATOM     17  C   UNL     1      21.007  -9.922   0.463 -0.61 -0.00    +0.000 C 
DOCKED: BRANCH  17  18
DOCKED: ATOM     18  C   UNL     1      21.328 -10.655  -0.844 -0.62 -0.00    +0.000 C 
DOCKED: BRANCH  18  19
DOCKED: ATOM     19  C   UNL     1      21.071  -9.750  -2.058 -0.59 -0.00    +0.000 C 
DOCKED: BRANCH  19  20
DOCKED: ATOM     20  C   UNL     1      20.384 -10.500  -3.208 -0.50 -0.00    +0.000 C 
DOCKED: BRANCH  20  22
DOCKED: ATOM     21  O   UNL     1      18.343  -9.832  -4.256 -0.27 -0.00    +0.000 OA
DOCKED: ATOM     22  C   UNL     1      18.900 -10.270  -3.215 -0.36 -0.00    +0.000 C 
DOCKED: ATOM     23  N   UNL     1      18.115 -10.577  -2.060 -0.32 -0.00    +0.000 N 
DOCKED: ATOM     24  O   UNL     1      16.776 -10.386  -2.072 -0.31 -0.00    +0.000 OA
DOCKED: ATOM     25  H   UNL     1      18.551 -10.931  -1.251 -0.01 -0.00    +0.000 HD
DOCKED: ENDBRANCH  20  22
DOCKED: ENDBRANCH  19  20
DOCKED: ENDBRANCH  18  19
DOCKED: ENDBRANCH  17  18
DOCKED: ENDBRANCH  16  17
DOCKED: ENDBRANCH   1  16
DOCKED: TORSDOF 6
DOCKED: TER
DOCKED: ENDMDL
________________________________________________________________________________


	BEGINNING GENETIC ALGORITHM DOCKING 84 of 100
Run: 84 Seed: 1803873799 739896892 [ Run 84 of 100 GA/GALS ]
Beginning LAMARCKIAN GENETIC ALGORITHM (LGA), with a maximum of 2500000 energy evaluations.

Final-Value: -13.290


	FINAL GENETIC ALGORITHM DOCKED STATE
	_______________________________________________


Detailed state:  trans 19.111 -11.397 1.457 quatxyzw -0.994800 0.049612 0.075249 -0.047433 center -0.023 0.069 -0.054 ntor 6 -175.7080 123.8736 -74.4376 52.4104 134.0037 25.1069
State:	 19.111 -11.397   1.457  -0.996  0.050  0.075 -174.563   -175.71  123.87  -74.44   52.41  134.00   25.11

DOCKED: MODEL       84
DOCKED: USER    Run = 84
DOCKED: USER    DPF = ligand_dock.biased.dpf
DOCKED: USER  
DOCKED: USER    Estimated Free Energy of Binding    =   -9.17 kcal/mol  [=(1)+(2)+(3)-(4)]
DOCKED: USER    Estimated Inhibition Constant, Ki   =  189.36 nM (nanomolar)  [Temperature = 298.15 K]
DOCKED: USER    
DOCKED: USER    (1) Final Intermolecular Energy     =  -10.96 kcal/mol
DOCKED: USER        vdW + Hbond + desolv Energy     =  -10.96 kcal/mol
DOCKED: USER        Electrostatic Energy            =   +0.00 kcal/mol
DOCKED: USER    (2) Final Total Internal Energy     =   -2.33 kcal/mol
DOCKED: USER    (3) Torsional Free Energy           =   +1.79 kcal/mol
DOCKED: USER    (4) Unbound System's Energy  [=(2)] =   -2.33 kcal/mol
DOCKED: USER    
DOCKED: USER    
DOCKED: USER    NEWDPF move ligand.pdbqt
DOCKED: USER    NEWDPF about -0.023000 0.069000 -0.054000
DOCKED: USER    NEWDPF tran0 19.111155 -11.396605 1.456709
DOCKED: USER    NEWDPF quaternion0 -0.994800 0.049612 0.075249 -0.047433
DOCKED: USER    NEWDPF axisangle0 -0.995921 0.049667 0.075334 -174.562545
DOCKED: USER    NEWDPF quat0 -0.995921 0.049667 0.075334 -174.562545
DOCKED: USER    NEWDPF dihe0 -175.71 123.87 -74.44 52.41 134.00 25.11 
DOCKED: USER  keepresnum = 1 
DOCKED: USER  
DOCKED: REMARK  Name = 
DOCKED: REMARK  6 active torsions:
DOCKED: REMARK  status: ('A' for Active; 'I' for Inactive)
DOCKED: REMARK    1  A    between atoms: C_2  and  C_5
DOCKED: REMARK    2  A    between atoms: C_5  and  C_6
DOCKED: REMARK    3  A    between atoms: C_6  and  C_7
DOCKED: REMARK    4  A    between atoms: C_7  and  C_8
DOCKED: REMARK    5  A    between atoms: C_8  and  C_9
DOCKED: REMARK    6  A    between atoms: C_9  and  N_10
DOCKED: REMARK                            x       y       z     vdW  Elec       q    Type
DOCKED: REMARK                         _______ _______ _______ _____ _____    ______ ____
DOCKED: USER                              x       y       z     vdW  Elec       q    Type
DOCKED: USER                           _______ _______ _______ _____ _____    ______ ____
DOCKED: ROOT
DOCKED: ATOM      1  N   UNL     1      18.467 -12.044   1.567 -0.52 -0.00    +0.000 N 
DOCKED: ATOM      2  C   UNL     1      17.957 -11.261   2.662 -0.44 +0.00    +0.000 C 
DOCKED: ATOM      3  C   UNL     1      16.524 -10.888   2.701 -0.43 +0.00    +0.000 A 
DOCKED: ATOM      4  C   UNL     1      16.007 -10.150   3.781 -0.38 +0.00    +0.000 A 
DOCKED: ATOM      5  C   UNL     1      14.657  -9.798   3.818 -0.37 +0.00    +0.000 A 
DOCKED: ATOM      6  C   UNL     1      13.802 -10.174   2.782 -0.29 +0.00    +0.000 A 
DOCKED: ATOM      7  C   UNL     1      14.294 -10.910   1.694 -0.33 +0.00    +0.000 A 
DOCKED: ATOM      8  C   UNL     1      13.436 -11.286   0.651 -0.34 +0.00    +0.000 A 
DOCKED: ATOM      9  C   UNL     1      13.925 -12.014  -0.433 -0.38 +0.00    +0.000 A 
DOCKED: ATOM     10  C   UNL     1      15.272 -12.376  -0.488 -0.45 +0.00    +0.000 A 
DOCKED: ATOM     11  C   UNL     1      16.153 -12.012   0.546 -0.42 +0.00    +0.000 A 
DOCKED: ATOM     12  C   UNL     1      15.665 -11.273   1.647 -0.38 +0.00    +0.000 A 
DOCKED: ATOM     13  O   UNL     1      18.730 -10.890   3.588 -0.60 -0.00    +0.000 OA
DOCKED: ATOM     14  C   UNL     1      17.582 -12.396   0.486 -0.55 +0.00    +0.000 C 
DOCKED: ATOM     15  O   UNL     1      18.023 -13.029  -0.513 -0.49 -0.00    +0.000 OA
DOCKED: ENDROOT
DOCKED: BRANCH   1  16
DOCKED: ATOM     16  C   UNL     1      19.895 -12.389   1.500 -0.69 -0.00    +0.000 C 
DOCKED: BRANCH  16  17
DOCKED: ATOM     17  C   UNL     1      20.741 -11.117   1.387 -0.67 -0.00    +0.000 C 
DOCKED: BRANCH  17  18
DOCKED: ATOM     18  C   UNL     1      20.162 -10.158   0.342 -0.60 -0.00    +0.000 C 
DOCKED: BRANCH  18  19
DOCKED: ATOM     19  C   UNL     1      21.232  -9.746  -0.680 -0.68 -0.00    +0.000 C 
DOCKED: BRANCH  19  20
DOCKED: ATOM     20  C   UNL     1      20.996 -10.379  -2.058 -0.58 -0.00    +0.000 C 
DOCKED: BRANCH  20  22
DOCKED: ATOM     21  O   UNL     1      19.485  -9.205  -3.490 -0.30 -0.00    +0.000 OA
DOCKED: ATOM     22  C   UNL     1      19.624 -10.071  -2.585 -0.41 -0.00    +0.000 C 
DOCKED: ATOM     23  N   UNL     1      18.484 -10.776  -2.089 -0.35 -0.00    +0.000 N 
DOCKED: ATOM     24  O   UNL     1      17.250 -10.510  -2.576 -0.31 -0.00    +0.000 OA
DOCKED: ATOM     25  H   UNL     1      18.597 -11.460  -1.390 -0.02 -0.00    +0.000 HD
DOCKED: ENDBRANCH  20  22
DOCKED: ENDBRANCH  19  20
DOCKED: ENDBRANCH  18  19
DOCKED: ENDBRANCH  17  18
DOCKED: ENDBRANCH  16  17
DOCKED: ENDBRANCH   1  16
DOCKED: TORSDOF 6
DOCKED: TER
DOCKED: ENDMDL
________________________________________________________________________________


	BEGINNING GENETIC ALGORITHM DOCKING 85 of 100
Run: 85 Seed: 2069442933 968524649 [ Run 85 of 100 GA/GALS ]
Beginning LAMARCKIAN GENETIC ALGORITHM (LGA), with a maximum of 2500000 energy evaluations.

Final-Value: -12.610


	FINAL GENETIC ALGORITHM DOCKED STATE
	_______________________________________________


Detailed state:  trans 15.108 -11.895 2.320 quatxyzw -0.154614 0.952150 -0.242655 0.103068 center -0.023 0.069 -0.054 ntor 6 144.9652 -126.6749 -53.3951 28.1546 158.3272 -179.2942
State:	 15.108 -11.895   2.320  -0.155  0.957 -0.244 168.168    144.97 -126.67  -53.40   28.15  158.33 -179.29

DOCKED: MODEL       85
DOCKED: USER    Run = 85
DOCKED: USER    DPF = ligand_dock.biased.dpf
DOCKED: USER  
DOCKED: USER    Estimated Free Energy of Binding    =   -9.92 kcal/mol  [=(1)+(2)+(3)-(4)]
DOCKED: USER    Estimated Inhibition Constant, Ki   =   53.78 nM (nanomolar)  [Temperature = 298.15 K]
DOCKED: USER    
DOCKED: USER    (1) Final Intermolecular Energy     =  -11.71 kcal/mol
DOCKED: USER        vdW + Hbond + desolv Energy     =  -11.71 kcal/mol
DOCKED: USER        Electrostatic Energy            =   +0.00 kcal/mol
DOCKED: USER    (2) Final Total Internal Energy     =   -0.90 kcal/mol
DOCKED: USER    (3) Torsional Free Energy           =   +1.79 kcal/mol
DOCKED: USER    (4) Unbound System's Energy  [=(2)] =   -0.90 kcal/mol
DOCKED: USER    
DOCKED: USER    
DOCKED: USER    NEWDPF move ligand.pdbqt
DOCKED: USER    NEWDPF about -0.023000 0.069000 -0.054000
DOCKED: USER    NEWDPF tran0 15.108417 -11.894771 2.319514
DOCKED: USER    NEWDPF quaternion0 -0.154614 0.952150 -0.242655 0.103068
DOCKED: USER    NEWDPF axisangle0 -0.155442 0.957248 -0.243954 168.168321
DOCKED: USER    NEWDPF quat0 -0.155442 0.957248 -0.243954 168.168321
DOCKED: USER    NEWDPF dihe0 144.97 -126.67 -53.40 28.15 158.33 -179.29 
DOCKED: USER  keepresnum = 1 
DOCKED: USER  
DOCKED: REMARK  Name = 
DOCKED: REMARK  6 active torsions:
DOCKED: REMARK  status: ('A' for Active; 'I' for Inactive)
DOCKED: REMARK    1  A    between atoms: C_2  and  C_5
DOCKED: REMARK    2  A    between atoms: C_5  and  C_6
DOCKED: REMARK    3  A    between atoms: C_6  and  C_7
DOCKED: REMARK    4  A    between atoms: C_7  and  C_8
DOCKED: REMARK    5  A    between atoms: C_8  and  C_9
DOCKED: REMARK    6  A    between atoms: C_9  and  N_10
DOCKED: REMARK                            x       y       z     vdW  Elec       q    Type
DOCKED: REMARK                         _______ _______ _______ _____ _____    ______ ____
DOCKED: USER                              x       y       z     vdW  Elec       q    Type
DOCKED: USER                           _______ _______ _______ _____ _____    ______ ____
DOCKED: ROOT
DOCKED: ATOM      1  N   UNL     1      15.427 -11.126   1.928 -0.37 +0.00    +0.000 N 
DOCKED: ATOM      2  C   UNL     1      16.512 -11.170   2.873 -0.45 +0.00    +0.000 C 
DOCKED: ATOM      3  C   UNL     1      17.913 -11.102   2.397 -0.43 +0.00    +0.000 A 
DOCKED: ATOM      4  C   UNL     1      18.981 -11.113   3.312 -0.49 -0.00    +0.000 A 
DOCKED: ATOM      5  C   UNL     1      20.301 -11.049   2.863 -0.62 -0.00    +0.000 A 
DOCKED: ATOM      6  C   UNL     1      20.578 -10.976   1.498 -0.63 -0.00    +0.000 A 
DOCKED: ATOM      7  C   UNL     1      19.531 -10.965   0.565 -0.54 -0.00    +0.000 A 
DOCKED: ATOM      8  C   UNL     1      19.809 -10.894  -0.806 -0.47 -0.00    +0.000 A 
DOCKED: ATOM      9  C   UNL     1      18.769 -10.886  -1.735 -0.37 -0.00    +0.000 A 
DOCKED: ATOM     10  C   UNL     1      17.442 -10.948  -1.306 -0.27 -0.00    +0.000 A 
DOCKED: ATOM     11  C   UNL     1      17.136 -11.019   0.065 -0.34 -0.00    +0.000 A 
DOCKED: ATOM     12  C   UNL     1      18.185 -11.028   1.012 -0.43 -0.00    +0.000 A 
DOCKED: ATOM     13  O   UNL     1      16.272 -11.268   4.108 -0.63 +0.00    +0.000 OA
DOCKED: ATOM     14  C   UNL     1      15.728 -11.086   0.520 -0.37 +0.00    +0.000 C 
DOCKED: ATOM     15  O   UNL     1      14.793 -11.109  -0.328 -0.32 +0.00    +0.000 OA
DOCKED: ENDROOT
DOCKED: BRANCH   1  16
DOCKED: ATOM     16  C   UNL     1      14.035 -11.229   2.387 -0.44 +0.00    +0.000 C 
DOCKED: BRANCH  16  17
DOCKED: ATOM     17  C   UNL     1      13.448  -9.833   2.613 -0.28 +0.00    +0.000 C 
DOCKED: BRANCH  17  18
DOCKED: ATOM     18  C   UNL     1      14.555  -8.795   2.826 -0.31 +0.00    +0.000 C 
DOCKED: BRANCH  18  19
DOCKED: ATOM     19  C   UNL     1      14.062  -7.638   3.707 -0.29 +0.00    +0.000 C 
DOCKED: BRANCH  19  20
DOCKED: ATOM     20  C   UNL     1      15.021  -7.340   4.868 -0.42 +0.00    +0.000 C 
DOCKED: BRANCH  20  22
DOCKED: ATOM     21  O   UNL     1      13.641  -5.811   6.082 -1.05 +0.00    +0.000 OA
DOCKED: ATOM     22  C   UNL     1      14.739  -6.004   5.494 -0.46 +0.00    +0.000 C 
DOCKED: ATOM     23  N   UNL     1      15.721  -4.966   5.456 -0.49 +0.00    +0.000 N 
DOCKED: ATOM     24  O   UNL     1      15.474  -3.768   6.035 -0.64 +0.00    +0.000 OA
DOCKED: ATOM     25  H   UNL     1      16.582  -5.123   5.006 -0.61 -0.00    +0.000 HD
DOCKED: ENDBRANCH  20  22
DOCKED: ENDBRANCH  19  20
DOCKED: ENDBRANCH  18  19
DOCKED: ENDBRANCH  17  18
DOCKED: ENDBRANCH  16  17
DOCKED: ENDBRANCH   1  16
DOCKED: TORSDOF 6
DOCKED: TER
DOCKED: ENDMDL
________________________________________________________________________________


	BEGINNING GENETIC ALGORITHM DOCKING 86 of 100
Run: 86 Seed: 1095417750 321991710 [ Run 86 of 100 GA/GALS ]
Beginning LAMARCKIAN GENETIC ALGORITHM (LGA), with a maximum of 2500000 energy evaluations.

Final-Value: -12.965


	FINAL GENETIC ALGORITHM DOCKED STATE
	_______________________________________________


Detailed state:  trans 16.935 -12.701 -0.681 quatxyzw -0.374482 0.876801 0.071859 0.292950 center -0.023 0.069 -0.054 ntor 6 134.3629 178.8586 -166.5872 53.6894 -166.7755 179.8208
State:	 16.935 -12.701  -0.681  -0.392  0.917  0.075 145.931    134.36  178.86 -166.59   53.69 -166.78  179.82

DOCKED: MODEL       86
DOCKED: USER    Run = 86
DOCKED: USER    DPF = ligand_dock.biased.dpf
DOCKED: USER  
DOCKED: USER    Estimated Free Energy of Binding    =   -9.01 kcal/mol  [=(1)+(2)+(3)-(4)]
DOCKED: USER    Estimated Inhibition Constant, Ki   =  247.67 nM (nanomolar)  [Temperature = 298.15 K]
DOCKED: USER    
DOCKED: USER    (1) Final Intermolecular Energy     =  -10.80 kcal/mol
DOCKED: USER        vdW + Hbond + desolv Energy     =  -10.80 kcal/mol
DOCKED: USER        Electrostatic Energy            =   +0.00 kcal/mol
DOCKED: USER    (2) Final Total Internal Energy     =   -2.16 kcal/mol
DOCKED: USER    (3) Torsional Free Energy           =   +1.79 kcal/mol
DOCKED: USER    (4) Unbound System's Energy  [=(2)] =   -2.16 kcal/mol
DOCKED: USER    
DOCKED: USER    
DOCKED: USER    NEWDPF move ligand.pdbqt
DOCKED: USER    NEWDPF about -0.023000 0.069000 -0.054000
DOCKED: USER    NEWDPF tran0 16.935056 -12.700729 -0.680819
DOCKED: USER    NEWDPF quaternion0 -0.374482 0.876801 0.071859 0.292950
DOCKED: USER    NEWDPF axisangle0 -0.391665 0.917033 0.075157 145.930757
DOCKED: USER    NEWDPF quat0 -0.391665 0.917033 0.075157 145.930757
DOCKED: USER    NEWDPF dihe0 134.36 178.86 -166.59 53.69 -166.78 179.82 
DOCKED: USER  keepresnum = 1 
DOCKED: USER  
DOCKED: REMARK  Name = 
DOCKED: REMARK  6 active torsions:
DOCKED: REMARK  status: ('A' for Active; 'I' for Inactive)
DOCKED: REMARK    1  A    between atoms: C_2  and  C_5
DOCKED: REMARK    2  A    between atoms: C_5  and  C_6
DOCKED: REMARK    3  A    between atoms: C_6  and  C_7
DOCKED: REMARK    4  A    between atoms: C_7  and  C_8
DOCKED: REMARK    5  A    between atoms: C_8  and  C_9
DOCKED: REMARK    6  A    between atoms: C_9  and  N_10
DOCKED: REMARK                            x       y       z     vdW  Elec       q    Type
DOCKED: REMARK                         _______ _______ _______ _____ _____    ______ ____
DOCKED: USER                              x       y       z     vdW  Elec       q    Type
DOCKED: USER                           _______ _______ _______ _____ _____    ______ ____
DOCKED: ROOT
DOCKED: ATOM      1  N   UNL     1      16.875 -11.784  -0.645 -0.35 +0.00    +0.000 N 
DOCKED: ATOM      2  C   UNL     1      18.308 -11.758  -0.513 -0.49 -0.00    +0.000 C 
DOCKED: ATOM      3  C   UNL     1      19.121 -10.920  -1.425 -0.40 -0.00    +0.000 A 
DOCKED: ATOM      4  C   UNL     1      20.519 -10.862  -1.287 -0.41 -0.00    +0.000 A 
DOCKED: ATOM      5  C   UNL     1      21.285 -10.074  -2.147 -0.51 -0.00    +0.000 A 
DOCKED: ATOM      6  C   UNL     1      20.672  -9.334  -3.157 -0.41 -0.00    +0.000 A 
DOCKED: ATOM      7  C   UNL     1      19.279  -9.376  -3.316 -0.21 -0.00    +0.000 A 
DOCKED: ATOM      8  C   UNL     1      18.663  -8.633  -4.333 -0.18 -0.00    +0.000 A 
DOCKED: ATOM      9  C   UNL     1      17.279  -8.677  -4.495 -0.16 -0.00    +0.000 A 
DOCKED: ATOM     10  C   UNL     1      16.495  -9.459  -3.644 -0.20 -0.00    +0.000 A 
DOCKED: ATOM     11  C   UNL     1      17.089 -10.212  -2.616 -0.19 -0.00    +0.000 A 
DOCKED: ATOM     12  C   UNL     1      18.492 -10.173  -2.447 -0.19 -0.00    +0.000 A 
DOCKED: ATOM     13  O   UNL     1      18.874 -12.449   0.379 -0.72 -0.00    +0.000 OA
DOCKED: ATOM     14  C   UNL     1      16.257 -11.042  -1.714 -0.17 -0.00    +0.000 C 
DOCKED: ATOM     15  O   UNL     1      15.008 -11.100  -1.886 -0.33 -0.00    +0.000 OA
DOCKED: ENDROOT
DOCKED: BRANCH   1  16
DOCKED: ATOM     16  C   UNL     1      16.062 -12.639   0.232 -0.54 +0.00    +0.000 C 
DOCKED: BRANCH  16  17
DOCKED: ATOM     17  C   UNL     1      15.614 -11.854   1.469 -0.47 +0.00    +0.000 C 
DOCKED: BRANCH  17  18
DOCKED: ATOM     18  C   UNL     1      15.855 -10.352   1.288 -0.35 +0.00    +0.000 C 
DOCKED: BRANCH  18  19
DOCKED: ATOM     19  C   UNL     1      16.687  -9.784   2.448 -0.44 +0.00    +0.000 C 
DOCKED: BRANCH  19  20
DOCKED: ATOM     20  C   UNL     1      17.395 -10.885   3.249 -0.46 +0.00    +0.000 C 
DOCKED: BRANCH  20  22
DOCKED: ATOM     21  O   UNL     1      19.519  -9.788   3.244 -0.63 -0.00    +0.000 OA
DOCKED: ATOM     22  C   UNL     1      18.882 -10.856   3.040 -0.61 -0.00    +0.000 C 
DOCKED: ATOM     23  N   UNL     1      19.580 -12.040   2.645 -0.66 -0.00    +0.000 N 
DOCKED: ATOM     24  O   UNL     1      20.922 -12.018   2.474 -1.69 -0.00    +0.000 OA
DOCKED: ATOM     25  H   UNL     1      19.082 -12.876   2.498 -0.05 -0.00    +0.000 HD
DOCKED: ENDBRANCH  20  22
DOCKED: ENDBRANCH  19  20
DOCKED: ENDBRANCH  18  19
DOCKED: ENDBRANCH  17  18
DOCKED: ENDBRANCH  16  17
DOCKED: ENDBRANCH   1  16
DOCKED: TORSDOF 6
DOCKED: TER
DOCKED: ENDMDL
________________________________________________________________________________


	BEGINNING GENETIC ALGORITHM DOCKING 87 of 100
Run: 87 Seed: 1225416232 1639581715 [ Run 87 of 100 GA/GALS ]
Beginning LAMARCKIAN GENETIC ALGORITHM (LGA), with a maximum of 2500000 energy evaluations.

Final-Value: -12.912


	FINAL GENETIC ALGORITHM DOCKED STATE
	_______________________________________________


Detailed state:  trans 15.498 -11.765 0.968 quatxyzw 0.752693 -0.611049 -0.026199 0.243692 center -0.023 0.069 -0.054 ntor 6 61.7424 152.4929 -85.6821 67.0993 -92.8599 -28.8439
State:	 15.498 -11.765   0.968   0.776 -0.630 -0.027 151.791     61.74  152.49  -85.68   67.10  -92.86  -28.84

DOCKED: MODEL       87
DOCKED: USER    Run = 87
DOCKED: USER    DPF = ligand_dock.biased.dpf
DOCKED: USER  
DOCKED: USER    Estimated Free Energy of Binding    =   -9.52 kcal/mol  [=(1)+(2)+(3)-(4)]
DOCKED: USER    Estimated Inhibition Constant, Ki   =  104.90 nM (nanomolar)  [Temperature = 298.15 K]
DOCKED: USER    
DOCKED: USER    (1) Final Intermolecular Energy     =  -11.31 kcal/mol
DOCKED: USER        vdW + Hbond + desolv Energy     =  -11.31 kcal/mol
DOCKED: USER        Electrostatic Energy            =   +0.00 kcal/mol
DOCKED: USER    (2) Final Total Internal Energy     =   -1.60 kcal/mol
DOCKED: USER    (3) Torsional Free Energy           =   +1.79 kcal/mol
DOCKED: USER    (4) Unbound System's Energy  [=(2)] =   -1.60 kcal/mol
DOCKED: USER    
DOCKED: USER    
DOCKED: USER    NEWDPF move ligand.pdbqt
DOCKED: USER    NEWDPF about -0.023000 0.069000 -0.054000
DOCKED: USER    NEWDPF tran0 15.497556 -11.764627 0.967766
DOCKED: USER    NEWDPF quaternion0 0.752693 -0.611049 -0.026199 0.243692
DOCKED: USER    NEWDPF axisangle0 0.776090 -0.630043 -0.027013 151.790869
DOCKED: USER    NEWDPF quat0 0.776090 -0.630043 -0.027013 151.790869
DOCKED: USER    NEWDPF dihe0 61.74 152.49 -85.68 67.10 -92.86 -28.84 
DOCKED: USER  keepresnum = 1 
DOCKED: USER  
DOCKED: REMARK  Name = 
DOCKED: REMARK  6 active torsions:
DOCKED: REMARK  status: ('A' for Active; 'I' for Inactive)
DOCKED: REMARK    1  A    between atoms: C_2  and  C_5
DOCKED: REMARK    2  A    between atoms: C_5  and  C_6
DOCKED: REMARK    3  A    between atoms: C_6  and  C_7
DOCKED: REMARK    4  A    between atoms: C_7  and  C_8
DOCKED: REMARK    5  A    between atoms: C_8  and  C_9
DOCKED: REMARK    6  A    between atoms: C_9  and  N_10
DOCKED: REMARK                            x       y       z     vdW  Elec       q    Type
DOCKED: REMARK                         _______ _______ _______ _____ _____    ______ ____
DOCKED: USER                              x       y       z     vdW  Elec       q    Type
DOCKED: USER                           _______ _______ _______ _____ _____    ______ ____
DOCKED: ROOT
DOCKED: ATOM      1  N   UNL     1      14.675 -11.355   1.004 -0.34 +0.00    +0.000 N 
DOCKED: ATOM      2  C   UNL     1      15.011 -10.940   2.341 -0.44 +0.00    +0.000 C 
DOCKED: ATOM      3  C   UNL     1      14.905  -9.512   2.722 -0.31 +0.00    +0.000 A 
DOCKED: ATOM      4  C   UNL     1      15.201  -9.098   4.033 -0.34 +0.00    +0.000 A 
DOCKED: ATOM      5  C   UNL     1      15.102  -7.753   4.392 -0.35 +0.00    +0.000 A 
DOCKED: ATOM      6  C   UNL     1      14.709  -6.801   3.452 -0.28 +0.00    +0.000 A 
DOCKED: ATOM      7  C   UNL     1      14.410  -7.188   2.138 -0.22 +0.00    +0.000 A 
DOCKED: ATOM      8  C   UNL     1      14.017  -6.230   1.193 -0.18 -0.00    +0.000 A 
DOCKED: ATOM      9  C   UNL     1      13.723  -6.614  -0.115 -0.18 -0.00    +0.000 A 
DOCKED: ATOM     10  C   UNL     1      13.815  -7.954  -0.494 -0.19 -0.00    +0.000 A 
DOCKED: ATOM     11  C   UNL     1      14.206  -8.935   0.436 -0.21 +0.00    +0.000 A 
DOCKED: ATOM     12  C   UNL     1      14.507  -8.553   1.763 -0.23 +0.00    +0.000 A 
DOCKED: ATOM     13  O   UNL     1      15.397 -11.791   3.189 -0.60 +0.00    +0.000 OA
DOCKED: ATOM     14  C   UNL     1      14.304 -10.356   0.034 -0.27 +0.00    +0.000 C 
DOCKED: ATOM     15  O   UNL     1      14.066 -10.691  -1.159 -0.29 +0.00    +0.000 OA
DOCKED: ENDROOT
DOCKED: BRANCH   1  16
DOCKED: ATOM     16  C   UNL     1      14.811 -12.763   0.606 -0.43 +0.00    +0.000 C 
DOCKED: BRANCH  16  17
DOCKED: ATOM     17  C   UNL     1      15.865 -12.902  -0.498 -0.50 +0.00    +0.000 C 
DOCKED: BRANCH  17  18
DOCKED: ATOM     18  C   UNL     1      17.268 -13.062   0.096 -0.42 +0.00    +0.000 C 
DOCKED: BRANCH  18  19
DOCKED: ATOM     19  C   UNL     1      18.140 -11.835  -0.214 -0.51 -0.00    +0.000 C 
DOCKED: BRANCH  19  20
DOCKED: ATOM     20  C   UNL     1      18.176 -10.837   0.951 -0.47 -0.00    +0.000 C 
DOCKED: BRANCH  20  22
DOCKED: ATOM     21  O   UNL     1      19.651 -12.394   2.006 -1.68 -0.00    +0.000 OA
DOCKED: ATOM     22  C   UNL     1      19.205 -11.215   1.977 -0.66 -0.00    +0.000 C 
DOCKED: ATOM     23  N   UNL     1      19.703 -10.240   2.896 -0.60 -0.00    +0.000 N 
DOCKED: ATOM     24  O   UNL     1      20.643 -10.577   3.809 -1.10 -0.00    +0.000 OA
DOCKED: ATOM     25  H   UNL     1      19.361  -9.318   2.863 -0.51 -0.00    +0.000 HD
DOCKED: ENDBRANCH  20  22
DOCKED: ENDBRANCH  19  20
DOCKED: ENDBRANCH  18  19
DOCKED: ENDBRANCH  17  18
DOCKED: ENDBRANCH  16  17
DOCKED: ENDBRANCH   1  16
DOCKED: TORSDOF 6
DOCKED: TER
DOCKED: ENDMDL
________________________________________________________________________________


	BEGINNING GENETIC ALGORITHM DOCKING 88 of 100
Run: 88 Seed: 56974965 420191925 [ Run 88 of 100 GA/GALS ]
Beginning LAMARCKIAN GENETIC ALGORITHM (LGA), with a maximum of 2500000 energy evaluations.

Final-Value: -12.918


	FINAL GENETIC ALGORITHM DOCKED STATE
	_______________________________________________


Detailed state:  trans 20.443 -9.814 -1.843 quatxyzw -0.798210 -0.024034 0.527272 -0.290289 center -0.023 0.069 -0.054 ntor 6 112.1372 163.9144 -85.8207 -20.2745 -105.0769 -9.3818
State:	 20.443  -9.814  -1.843  -0.834 -0.025  0.551 -146.250    112.14  163.91  -85.82  -20.27 -105.08   -9.38

DOCKED: MODEL       88
DOCKED: USER    Run = 88
DOCKED: USER    DPF = ligand_dock.biased.dpf
DOCKED: USER  
DOCKED: USER    Estimated Free Energy of Binding    =  -10.24 kcal/mol  [=(1)+(2)+(3)-(4)]
DOCKED: USER    Estimated Inhibition Constant, Ki   =   31.31 nM (nanomolar)  [Temperature = 298.15 K]
DOCKED: USER    
DOCKED: USER    (1) Final Intermolecular Energy     =  -12.03 kcal/mol
DOCKED: USER        vdW + Hbond + desolv Energy     =  -12.03 kcal/mol
DOCKED: USER        Electrostatic Energy            =   +0.00 kcal/mol
DOCKED: USER    (2) Final Total Internal Energy     =   -0.89 kcal/mol
DOCKED: USER    (3) Torsional Free Energy           =   +1.79 kcal/mol
DOCKED: USER    (4) Unbound System's Energy  [=(2)] =   -0.89 kcal/mol
DOCKED: USER    
DOCKED: USER    
DOCKED: USER    NEWDPF move ligand.pdbqt
DOCKED: USER    NEWDPF about -0.023000 0.069000 -0.054000
DOCKED: USER    NEWDPF tran0 20.442705 -9.813963 -1.842623
DOCKED: USER    NEWDPF quaternion0 -0.798210 -0.024034 0.527272 -0.290289
DOCKED: USER    NEWDPF axisangle0 -0.834128 -0.025116 0.550998 -146.249539
DOCKED: USER    NEWDPF quat0 -0.834128 -0.025116 0.550998 -146.249539
DOCKED: USER    NEWDPF dihe0 112.14 163.91 -85.82 -20.27 -105.08 -9.38 
DOCKED: USER  keepresnum = 1 
DOCKED: USER  
DOCKED: REMARK  Name = 
DOCKED: REMARK  6 active torsions:
DOCKED: REMARK  status: ('A' for Active; 'I' for Inactive)
DOCKED: REMARK    1  A    between atoms: C_2  and  C_5
DOCKED: REMARK    2  A    between atoms: C_5  and  C_6
DOCKED: REMARK    3  A    between atoms: C_6  and  C_7
DOCKED: REMARK    4  A    between atoms: C_7  and  C_8
DOCKED: REMARK    5  A    between atoms: C_8  and  C_9
DOCKED: REMARK    6  A    between atoms: C_9  and  N_10
DOCKED: REMARK                            x       y       z     vdW  Elec       q    Type
DOCKED: REMARK                         _______ _______ _______ _____ _____    ______ ____
DOCKED: USER                              x       y       z     vdW  Elec       q    Type
DOCKED: USER                           _______ _______ _______ _____ _____    ______ ____
DOCKED: ROOT
DOCKED: ATOM      1  N   UNL     1      20.063 -10.634  -1.673 -0.47 -0.00    +0.000 N 
DOCKED: ATOM      2  C   UNL     1      20.743 -10.617  -0.404 -0.66 -0.00    +0.000 C 
DOCKED: ATOM      3  C   UNL     1      19.983 -10.842   0.847 -0.59 -0.00    +0.000 A 
DOCKED: ATOM      4  C   UNL     1      20.641 -10.858   2.090 -0.56 -0.00    +0.000 A 
DOCKED: ATOM      5  C   UNL     1      19.925 -11.070   3.269 -0.64 -0.00    +0.000 A 
DOCKED: ATOM      6  C   UNL     1      18.545 -11.267   3.229 -0.39 -0.00    +0.000 A 
DOCKED: ATOM      7  C   UNL     1      17.866 -11.255   2.002 -0.44 +0.00    +0.000 A 
DOCKED: ATOM      8  C   UNL     1      16.479 -11.451   1.962 -0.38 +0.00    +0.000 A 
DOCKED: ATOM      9  C   UNL     1      15.802 -11.435   0.743 -0.36 +0.00    +0.000 A 
DOCKED: ATOM     10  C   UNL     1      16.500 -11.226  -0.448 -0.32 +0.00    +0.000 A 
DOCKED: ATOM     11  C   UNL     1      17.892 -11.027  -0.434 -0.36 -0.00    +0.000 A 
DOCKED: ATOM     12  C   UNL     1      18.585 -11.041   0.798 -0.46 -0.00    +0.000 A 
DOCKED: ATOM     13  O   UNL     1      21.987 -10.408  -0.356 -0.75 -0.00    +0.000 OA
DOCKED: ATOM     14  C   UNL     1      18.633 -10.804  -1.697 -0.40 -0.00    +0.000 C 
DOCKED: ATOM     15  O   UNL     1      18.008 -10.761  -2.794 -0.29 -0.00    +0.000 OA
DOCKED: ENDROOT
DOCKED: BRANCH   1  16
DOCKED: ATOM     16  C   UNL     1      20.801 -10.376  -2.918 -0.53 -0.00    +0.000 C 
DOCKED: BRANCH  16  17
DOCKED: ATOM     17  C   UNL     1      20.648  -8.908  -3.329 -0.42 -0.00    +0.000 C 
DOCKED: BRANCH  17  18
DOCKED: ATOM     18  C   UNL     1      21.502  -7.994  -2.443 -0.42 -0.00    +0.000 C 
DOCKED: BRANCH  18  19
DOCKED: ATOM     19  C   UNL     1      21.749  -6.641  -3.127 -0.33 -0.00    +0.000 C 
DOCKED: BRANCH  19  20
DOCKED: ATOM     20  C   UNL     1      20.771  -5.560  -2.646 -0.36 -0.00    +0.000 C 
DOCKED: BRANCH  20  22
DOCKED: ATOM     21  O   UNL     1      22.599  -4.521  -1.509 -0.80 +0.00    +0.000 OA
DOCKED: ATOM     22  C   UNL     1      21.357  -4.732  -1.539 -0.44 +0.00    +0.000 C 
DOCKED: ATOM     23  N   UNL     1      20.510  -4.157  -0.540 -0.47 +0.00    +0.000 N 
DOCKED: ATOM     24  O   UNL     1      21.036  -3.397   0.448 -1.12 +0.00    +0.000 OA
DOCKED: ATOM     25  H   UNL     1      19.539  -4.314  -0.572 -0.06 -0.00    +0.000 HD
DOCKED: ENDBRANCH  20  22
DOCKED: ENDBRANCH  19  20
DOCKED: ENDBRANCH  18  19
DOCKED: ENDBRANCH  17  18
DOCKED: ENDBRANCH  16  17
DOCKED: ENDBRANCH   1  16
DOCKED: TORSDOF 6
DOCKED: TER
DOCKED: ENDMDL
________________________________________________________________________________


	BEGINNING GENETIC ALGORITHM DOCKING 89 of 100
Run: 89 Seed: 884954437 970156324 [ Run 89 of 100 GA/GALS ]
Beginning LAMARCKIAN GENETIC ALGORITHM (LGA), with a maximum of 2500000 energy evaluations.

Final-Value: -12.639


	FINAL GENETIC ALGORITHM DOCKED STATE
	_______________________________________________


Detailed state:  trans 20.277 -11.448 -2.289 quatxyzw 0.207393 0.425584 -0.176743 -0.862918 center -0.023 0.069 -0.054 ntor 6 -179.7292 35.5217 89.3028 -105.3809 12.8070 -179.9597
State:	 20.277 -11.448  -2.289   0.410  0.842 -0.350 -60.708   -179.73   35.52   89.30 -105.38   12.81 -179.96

DOCKED: MODEL       89
DOCKED: USER    Run = 89
DOCKED: USER    DPF = ligand_dock.biased.dpf
DOCKED: USER  
DOCKED: USER    Estimated Free Energy of Binding    =   -9.83 kcal/mol  [=(1)+(2)+(3)-(4)]
DOCKED: USER    Estimated Inhibition Constant, Ki   =   62.04 nM (nanomolar)  [Temperature = 298.15 K]
DOCKED: USER    
DOCKED: USER    (1) Final Intermolecular Energy     =  -11.62 kcal/mol
DOCKED: USER        vdW + Hbond + desolv Energy     =  -11.62 kcal/mol
DOCKED: USER        Electrostatic Energy            =   +0.00 kcal/mol
DOCKED: USER    (2) Final Total Internal Energy     =   -1.02 kcal/mol
DOCKED: USER    (3) Torsional Free Energy           =   +1.79 kcal/mol
DOCKED: USER    (4) Unbound System's Energy  [=(2)] =   -1.02 kcal/mol
DOCKED: USER    
DOCKED: USER    
DOCKED: USER    NEWDPF move ligand.pdbqt
DOCKED: USER    NEWDPF about -0.023000 0.069000 -0.054000
DOCKED: USER    NEWDPF tran0 20.277246 -11.447927 -2.289456
DOCKED: USER    NEWDPF quaternion0 0.207393 0.425584 -0.176743 -0.862918
DOCKED: USER    NEWDPF axisangle0 0.410400 0.842168 -0.349749 -60.708320
DOCKED: USER    NEWDPF quat0 0.410400 0.842168 -0.349749 -60.708320
DOCKED: USER    NEWDPF dihe0 -179.73 35.52 89.30 -105.38 12.81 -179.96 
DOCKED: USER  keepresnum = 1 
DOCKED: USER  
DOCKED: REMARK  Name = 
DOCKED: REMARK  6 active torsions:
DOCKED: REMARK  status: ('A' for Active; 'I' for Inactive)
DOCKED: REMARK    1  A    between atoms: C_2  and  C_5
DOCKED: REMARK    2  A    between atoms: C_5  and  C_6
DOCKED: REMARK    3  A    between atoms: C_6  and  C_7
DOCKED: REMARK    4  A    between atoms: C_7  and  C_8
DOCKED: REMARK    5  A    between atoms: C_8  and  C_9
DOCKED: REMARK    6  A    between atoms: C_9  and  N_10
DOCKED: REMARK                            x       y       z     vdW  Elec       q    Type
DOCKED: REMARK                         _______ _______ _______ _____ _____    ______ ____
DOCKED: USER                              x       y       z     vdW  Elec       q    Type
DOCKED: USER                           _______ _______ _______ _____ _____    ______ ____
DOCKED: ROOT
DOCKED: ATOM      1  N   UNL     1      20.221 -10.735  -1.711 -0.47 -0.00    +0.000 N 
DOCKED: ATOM      2  C   UNL     1      18.789 -10.865  -1.791 -0.42 -0.00    +0.000 C 
DOCKED: ATOM      3  C   UNL     1      17.985 -10.972  -0.551 -0.36 -0.00    +0.000 A 
DOCKED: ATOM      4  C   UNL     1      16.584 -11.069  -0.614 -0.31 -0.00    +0.000 A 
DOCKED: ATOM      5  C   UNL     1      15.827 -11.170   0.554 -0.33 +0.00    +0.000 A 
DOCKED: ATOM      6  C   UNL     1      16.452 -11.178   1.800 -0.38 +0.00    +0.000 A 
DOCKED: ATOM      7  C   UNL     1      17.848 -11.084   1.890 -0.44 +0.00    +0.000 A 
DOCKED: ATOM      8  C   UNL     1      18.477 -11.095   3.142 -0.42 -0.00    +0.000 A 
DOCKED: ATOM      9  C   UNL     1      19.866 -11.005   3.232 -0.65 -0.00    +0.000 A 
DOCKED: ATOM     10  C   UNL     1      20.641 -10.902   2.075 -0.58 -0.00    +0.000 A 
DOCKED: ATOM     11  C   UNL     1      20.034 -10.888   0.807 -0.59 -0.00    +0.000 A 
DOCKED: ATOM     12  C   UNL     1      18.627 -10.980   0.708 -0.45 -0.00    +0.000 A 
DOCKED: ATOM     13  O   UNL     1      18.217 -10.890  -2.916 -0.30 -0.00    +0.000 OA
DOCKED: ATOM     14  C   UNL     1      20.857 -10.780  -0.420 -0.63 -0.00    +0.000 C 
DOCKED: ATOM     15  O   UNL     1      22.115 -10.729  -0.331 -0.74 -0.00    +0.000 OA
DOCKED: ENDROOT
DOCKED: BRANCH   1  16
DOCKED: ATOM     16  C   UNL     1      21.031 -10.664  -2.936 -0.50 -0.00    +0.000 C 
DOCKED: BRANCH  16  17
DOCKED: ATOM     17  C   UNL     1      21.245  -9.204  -3.345 -0.46 -0.00    +0.000 C 
DOCKED: BRANCH  17  18
DOCKED: ATOM     18  C   UNL     1      21.807  -9.105  -4.768 -0.31 -0.00    +0.000 C 
DOCKED: BRANCH  18  19
DOCKED: ATOM     19  C   UNL     1      20.716  -9.395  -5.811 -0.25 -0.00    +0.000 C 
DOCKED: BRANCH  19  20
DOCKED: ATOM     20  C   UNL     1      20.595 -10.893  -6.125 -0.39 -0.00    +0.000 C 
DOCKED: BRANCH  20  22
DOCKED: ATOM     21  O   UNL     1      22.212 -12.248  -5.003 -0.65 -0.00    +0.000 OA
DOCKED: ATOM     22  C   UNL     1      21.922 -11.590  -6.037 -0.43 -0.00    +0.000 C 
DOCKED: ATOM     23  N   UNL     1      22.841 -11.537  -7.131 -0.45 -0.00    +0.000 N 
DOCKED: ATOM     24  O   UNL     1      24.029 -12.179  -7.059 -1.09 +0.00    +0.000 OA
DOCKED: ATOM     25  H   UNL     1      22.607 -11.031  -7.943 -0.02 -0.00    +0.000 HD
DOCKED: ENDBRANCH  20  22
DOCKED: ENDBRANCH  19  20
DOCKED: ENDBRANCH  18  19
DOCKED: ENDBRANCH  17  18
DOCKED: ENDBRANCH  16  17
DOCKED: ENDBRANCH   1  16
DOCKED: TORSDOF 6
DOCKED: TER
DOCKED: ENDMDL
________________________________________________________________________________


	BEGINNING GENETIC ALGORITHM DOCKING 90 of 100
Run: 90 Seed: 529896515 1740161154 [ Run 90 of 100 GA/GALS ]
Beginning LAMARCKIAN GENETIC ALGORITHM (LGA), with a maximum of 2500000 energy evaluations.

Final-Value: -12.925


	FINAL GENETIC ALGORITHM DOCKED STATE
	_______________________________________________


Detailed state:  trans 17.363 -12.665 -0.514 quatxyzw -0.397028 0.821431 0.075775 0.402341 center -0.023 0.069 -0.054 ntor 6 141.7441 -178.6294 -160.4461 62.4072 168.6635 -172.3146
State:	 17.363 -12.665  -0.514  -0.434  0.897  0.083 132.551    141.74 -178.63 -160.45   62.41  168.66 -172.31

DOCKED: MODEL       90
DOCKED: USER    Run = 90
DOCKED: USER    DPF = ligand_dock.biased.dpf
DOCKED: USER  
DOCKED: USER    Estimated Free Energy of Binding    =   -9.06 kcal/mol  [=(1)+(2)+(3)-(4)]
DOCKED: USER    Estimated Inhibition Constant, Ki   =  227.43 nM (nanomolar)  [Temperature = 298.15 K]
DOCKED: USER    
DOCKED: USER    (1) Final Intermolecular Energy     =  -10.85 kcal/mol
DOCKED: USER        vdW + Hbond + desolv Energy     =  -10.85 kcal/mol
DOCKED: USER        Electrostatic Energy            =   +0.00 kcal/mol
DOCKED: USER    (2) Final Total Internal Energy     =   -2.07 kcal/mol
DOCKED: USER    (3) Torsional Free Energy           =   +1.79 kcal/mol
DOCKED: USER    (4) Unbound System's Energy  [=(2)] =   -2.07 kcal/mol
DOCKED: USER    
DOCKED: USER    
DOCKED: USER    NEWDPF move ligand.pdbqt
DOCKED: USER    NEWDPF about -0.023000 0.069000 -0.054000
DOCKED: USER    NEWDPF tran0 17.362513 -12.664832 -0.514278
DOCKED: USER    NEWDPF quaternion0 -0.397028 0.821431 0.075775 0.402341
DOCKED: USER    NEWDPF axisangle0 -0.433678 0.897258 0.082770 132.550822
DOCKED: USER    NEWDPF quat0 -0.433678 0.897258 0.082770 132.550822
DOCKED: USER    NEWDPF dihe0 141.74 -178.63 -160.45 62.41 168.66 -172.31 
DOCKED: USER  keepresnum = 1 
DOCKED: USER  
DOCKED: REMARK  Name = 
DOCKED: REMARK  6 active torsions:
DOCKED: REMARK  status: ('A' for Active; 'I' for Inactive)
DOCKED: REMARK    1  A    between atoms: C_2  and  C_5
DOCKED: REMARK    2  A    between atoms: C_5  and  C_6
DOCKED: REMARK    3  A    between atoms: C_6  and  C_7
DOCKED: REMARK    4  A    between atoms: C_7  and  C_8
DOCKED: REMARK    5  A    between atoms: C_8  and  C_9
DOCKED: REMARK    6  A    between atoms: C_9  and  N_10
DOCKED: REMARK                            x       y       z     vdW  Elec       q    Type
DOCKED: REMARK                         _______ _______ _______ _____ _____    ______ ____
DOCKED: USER                              x       y       z     vdW  Elec       q    Type
DOCKED: USER                           _______ _______ _______ _____ _____    ______ ____
DOCKED: ROOT
DOCKED: ATOM      1  N   UNL     1      17.220 -11.756  -0.505 -0.39 -0.00    +0.000 N 
DOCKED: ATOM      2  C   UNL     1      18.638 -11.596  -0.700 -0.49 -0.00    +0.000 C 
DOCKED: ATOM      3  C   UNL     1      19.143 -10.751  -1.807 -0.38 -0.00    +0.000 A 
DOCKED: ATOM      4  C   UNL     1      20.524 -10.562  -1.989 -0.46 -0.00    +0.000 A 
DOCKED: ATOM      5  C   UNL     1      21.000  -9.766  -3.032 -0.46 -0.00    +0.000 A 
DOCKED: ATOM      6  C   UNL     1      20.109  -9.149  -3.909 -0.30 -0.00    +0.000 A 
DOCKED: ATOM      7  C   UNL     1      18.727  -9.323  -3.749 -0.20 -0.00    +0.000 A 
DOCKED: ATOM      8  C   UNL     1      17.832  -8.704  -4.633 -0.17 -0.00    +0.000 A 
DOCKED: ATOM      9  C   UNL     1      16.457  -8.879  -4.477 -0.16 -0.00    +0.000 A 
DOCKED: ATOM     10  C   UNL     1      15.961  -9.671  -3.439 -0.21 -0.00    +0.000 A 
DOCKED: ATOM     11  C   UNL     1      16.839 -10.301  -2.539 -0.19 -0.00    +0.000 A 
DOCKED: ATOM     12  C   UNL     1      18.233 -10.129  -2.691 -0.19 -0.00    +0.000 A 
DOCKED: ATOM     13  O   UNL     1      19.452 -12.177   0.071 -0.69 -0.00    +0.000 OA
DOCKED: ATOM     14  C   UNL     1      16.312 -11.141  -1.439 -0.23 -0.00    +0.000 C 
DOCKED: ATOM     15  O   UNL     1      15.068 -11.320  -1.323 -0.34 +0.00    +0.000 OA
DOCKED: ENDROOT
DOCKED: BRANCH   1  16
DOCKED: ATOM     16  C   UNL     1      16.709 -12.621   0.568 -0.49 +0.00    +0.000 C 
DOCKED: BRANCH  16  17
DOCKED: ATOM     17  C   UNL     1      16.285 -11.776   1.773 -0.44 +0.00    +0.000 C 
DOCKED: BRANCH  17  18
DOCKED: ATOM     18  C   UNL     1      16.769 -10.328   1.630 -0.39 +0.00    +0.000 C 
DOCKED: BRANCH  18  19
DOCKED: ATOM     19  C   UNL     1      17.752  -9.965   2.753 -0.48 -0.00    +0.000 C 
DOCKED: BRANCH  19  20
DOCKED: ATOM     20  C   UNL     1      18.421 -11.203   3.365 -0.36 +0.00    +0.000 C 
DOCKED: BRANCH  20  22
DOCKED: ATOM     21  O   UNL     1      20.640 -10.323   3.479 -0.97 -0.00    +0.000 OA
DOCKED: ATOM     22  C   UNL     1      19.891 -11.248   3.064 -0.75 -0.00    +0.000 C 
DOCKED: ATOM     23  N   UNL     1      20.448 -12.348   2.341 -0.64 -0.00    +0.000 N 
DOCKED: ATOM     24  O   UNL     1      21.776 -12.397   2.085 -1.04 -0.00    +0.000 OA
DOCKED: ATOM     25  H   UNL     1      19.863 -13.075   2.029 -0.44 -0.00    +0.000 HD
DOCKED: ENDBRANCH  20  22
DOCKED: ENDBRANCH  19  20
DOCKED: ENDBRANCH  18  19
DOCKED: ENDBRANCH  17  18
DOCKED: ENDBRANCH  16  17
DOCKED: ENDBRANCH   1  16
DOCKED: TORSDOF 6
DOCKED: TER
DOCKED: ENDMDL
________________________________________________________________________________


	BEGINNING GENETIC ALGORITHM DOCKING 91 of 100
Run: 91 Seed: 289820585 1492368299 [ Run 91 of 100 GA/GALS ]
Beginning LAMARCKIAN GENETIC ALGORITHM (LGA), with a maximum of 2500000 energy evaluations.

Final-Value: -12.709


	FINAL GENETIC ALGORITHM DOCKED STATE
	_______________________________________________


Detailed state:  trans 20.633 -10.051 -1.817 quatxyzw -0.796670 0.047918 0.499201 -0.337372 center -0.023 0.069 -0.054 ntor 6 126.3425 153.2763 69.6346 177.5323 62.8954 7.2480
State:	 20.633 -10.051  -1.817  -0.846  0.051  0.530 -140.566    126.34  153.28   69.63  177.53   62.90    7.25

DOCKED: MODEL       91
DOCKED: USER    Run = 91
DOCKED: USER    DPF = ligand_dock.biased.dpf
DOCKED: USER  
DOCKED: USER    Estimated Free Energy of Binding    =   -9.77 kcal/mol  [=(1)+(2)+(3)-(4)]
DOCKED: USER    Estimated Inhibition Constant, Ki   =   68.49 nM (nanomolar)  [Temperature = 298.15 K]
DOCKED: USER    
DOCKED: USER    (1) Final Intermolecular Energy     =  -11.56 kcal/mol
DOCKED: USER        vdW + Hbond + desolv Energy     =  -11.56 kcal/mol
DOCKED: USER        Electrostatic Energy            =   +0.00 kcal/mol
DOCKED: USER    (2) Final Total Internal Energy     =   -1.14 kcal/mol
DOCKED: USER    (3) Torsional Free Energy           =   +1.79 kcal/mol
DOCKED: USER    (4) Unbound System's Energy  [=(2)] =   -1.14 kcal/mol
DOCKED: USER    
DOCKED: USER    
DOCKED: USER    NEWDPF move ligand.pdbqt
DOCKED: USER    NEWDPF about -0.023000 0.069000 -0.054000
DOCKED: USER    NEWDPF tran0 20.632511 -10.051168 -1.816643
DOCKED: USER    NEWDPF quaternion0 -0.796670 0.047918 0.499201 -0.337372
DOCKED: USER    NEWDPF axisangle0 -0.846286 0.050902 0.530291 -140.566358
DOCKED: USER    NEWDPF quat0 -0.846286 0.050902 0.530291 -140.566358
DOCKED: USER    NEWDPF dihe0 126.34 153.28 69.63 177.53 62.90 7.25 
DOCKED: USER  keepresnum = 1 
DOCKED: USER  
DOCKED: REMARK  Name = 
DOCKED: REMARK  6 active torsions:
DOCKED: REMARK  status: ('A' for Active; 'I' for Inactive)
DOCKED: REMARK    1  A    between atoms: C_2  and  C_5
DOCKED: REMARK    2  A    between atoms: C_5  and  C_6
DOCKED: REMARK    3  A    between atoms: C_6  and  C_7
DOCKED: REMARK    4  A    between atoms: C_7  and  C_8
DOCKED: REMARK    5  A    between atoms: C_8  and  C_9
DOCKED: REMARK    6  A    between atoms: C_9  and  N_10
DOCKED: REMARK                            x       y       z     vdW  Elec       q    Type
DOCKED: REMARK                         _______ _______ _______ _____ _____    ______ ____
DOCKED: USER                              x       y       z     vdW  Elec       q    Type
DOCKED: USER                           _______ _______ _______ _____ _____    ______ ____
DOCKED: ROOT
DOCKED: ATOM      1  N   UNL     1      20.111 -10.790  -1.648 -0.46 -0.00    +0.000 N 
DOCKED: ATOM      2  C   UNL     1      20.785 -10.897  -0.380 -0.61 -0.00    +0.000 C 
DOCKED: ATOM      3  C   UNL     1      19.997 -10.984   0.872 -0.60 -0.00    +0.000 A 
DOCKED: ATOM      4  C   UNL     1      20.642 -11.120   2.114 -0.61 -0.00    +0.000 A 
DOCKED: ATOM      5  C   UNL     1      19.901 -11.201   3.293 -0.65 -0.00    +0.000 A 
DOCKED: ATOM      6  C   UNL     1      18.508 -11.147   3.255 -0.39 -0.00    +0.000 A 
DOCKED: ATOM      7  C   UNL     1      17.841 -11.011   2.028 -0.44 +0.00    +0.000 A 
DOCKED: ATOM      8  C   UNL     1      16.441 -10.954   1.990 -0.39 +0.00    +0.000 A 
DOCKED: ATOM      9  C   UNL     1      15.777 -10.815   0.771 -0.30 +0.00    +0.000 A 
DOCKED: ATOM     10  C   UNL     1      16.501 -10.732  -0.420 -0.29 -0.00    +0.000 A 
DOCKED: ATOM     11  C   UNL     1      17.906 -10.788  -0.408 -0.31 -0.00    +0.000 A 
DOCKED: ATOM     12  C   UNL     1      18.586 -10.928   0.824 -0.45 -0.00    +0.000 A 
DOCKED: ATOM     13  O   UNL     1      22.046 -10.916  -0.333 -0.73 -0.00    +0.000 OA
DOCKED: ATOM     14  C   UNL     1      18.674 -10.700  -1.671 -0.39 -0.00    +0.000 C 
DOCKED: ATOM     15  O   UNL     1      18.067 -10.543  -2.767 -0.34 -0.00    +0.000 OA
DOCKED: ENDROOT
DOCKED: BRANCH   1  16
DOCKED: ATOM     16  C   UNL     1      20.883 -10.667  -2.893 -0.50 -0.00    +0.000 C 
DOCKED: BRANCH  16  17
DOCKED: ATOM     17  C   UNL     1      21.350  -9.221  -3.085 -0.48 -0.00    +0.000 C 
DOCKED: BRANCH  17  18
DOCKED: ATOM     18  C   UNL     1      20.742  -8.607  -4.351 -0.32 -0.00    +0.000 C 
DOCKED: BRANCH  18  19
DOCKED: ATOM     19  C   UNL     1      19.878  -9.634  -5.098 -0.28 -0.00    +0.000 C 
DOCKED: BRANCH  19  20
DOCKED: ATOM     20  C   UNL     1      20.547 -10.129  -6.387 -0.30 -0.00    +0.000 C 
DOCKED: BRANCH  20  22
DOCKED: ATOM     21  O   UNL     1      21.142 -12.211  -5.376 -0.75 -0.00    +0.000 OA
DOCKED: ATOM     22  C   UNL     1      21.498 -11.260  -6.122 -0.42 -0.00    +0.000 C 
DOCKED: ATOM     23  N   UNL     1      22.789 -11.279  -6.736 -0.44 -0.00    +0.000 N 
DOCKED: ATOM     24  O   UNL     1      23.640 -12.307  -6.510 -1.12 -0.00    +0.000 OA
DOCKED: ATOM     25  H   UNL     1      23.060 -10.540  -7.328 -0.01 -0.00    +0.000 HD
DOCKED: ENDBRANCH  20  22
DOCKED: ENDBRANCH  19  20
DOCKED: ENDBRANCH  18  19
DOCKED: ENDBRANCH  17  18
DOCKED: ENDBRANCH  16  17
DOCKED: ENDBRANCH   1  16
DOCKED: TORSDOF 6
DOCKED: TER
DOCKED: ENDMDL
________________________________________________________________________________


	BEGINNING GENETIC ALGORITHM DOCKING 92 of 100
Run: 92 Seed: 205798810 175094363 [ Run 92 of 100 GA/GALS ]
Beginning LAMARCKIAN GENETIC ALGORITHM (LGA), with a maximum of 2500000 energy evaluations.

Final-Value: -12.429


	FINAL GENETIC ALGORITHM DOCKED STATE
	_______________________________________________


Detailed state:  trans 19.556 -10.830 0.628 quatxyzw 0.649697 0.184590 0.625567 0.390494 center -0.023 0.069 -0.054 ntor 6 -102.9334 178.3377 -4.6539 -106.6799 -109.8883 -10.8203
State:	 19.556 -10.830   0.628   0.706  0.201  0.680 134.029   -102.93  178.34   -4.65 -106.68 -109.89  -10.82

DOCKED: MODEL       92
DOCKED: USER    Run = 92
DOCKED: USER    DPF = ligand_dock.biased.dpf
DOCKED: USER  
DOCKED: USER    Estimated Free Energy of Binding    =   -8.71 kcal/mol  [=(1)+(2)+(3)-(4)]
DOCKED: USER    Estimated Inhibition Constant, Ki   =  412.46 nM (nanomolar)  [Temperature = 298.15 K]
DOCKED: USER    
DOCKED: USER    (1) Final Intermolecular Energy     =  -10.50 kcal/mol
DOCKED: USER        vdW + Hbond + desolv Energy     =  -10.50 kcal/mol
DOCKED: USER        Electrostatic Energy            =   +0.00 kcal/mol
DOCKED: USER    (2) Final Total Internal Energy     =   -1.93 kcal/mol
DOCKED: USER    (3) Torsional Free Energy           =   +1.79 kcal/mol
DOCKED: USER    (4) Unbound System's Energy  [=(2)] =   -1.93 kcal/mol
DOCKED: USER    
DOCKED: USER    
DOCKED: USER    NEWDPF move ligand.pdbqt
DOCKED: USER    NEWDPF about -0.023000 0.069000 -0.054000
DOCKED: USER    NEWDPF tran0 19.556375 -10.830059 0.628268
DOCKED: USER    NEWDPF quaternion0 0.649697 0.184590 0.625567 0.390494
DOCKED: USER    NEWDPF axisangle0 0.705728 0.200509 0.679517 134.029485
DOCKED: USER    NEWDPF quat0 0.705728 0.200509 0.679517 134.029485
DOCKED: USER    NEWDPF dihe0 -102.93 178.34 -4.65 -106.68 -109.89 -10.82 
DOCKED: USER  keepresnum = 1 
DOCKED: USER  
DOCKED: REMARK  Name = 
DOCKED: REMARK  6 active torsions:
DOCKED: REMARK  status: ('A' for Active; 'I' for Inactive)
DOCKED: REMARK    1  A    between atoms: C_2  and  C_5
DOCKED: REMARK    2  A    between atoms: C_5  and  C_6
DOCKED: REMARK    3  A    between atoms: C_6  and  C_7
DOCKED: REMARK    4  A    between atoms: C_7  and  C_8
DOCKED: REMARK    5  A    between atoms: C_8  and  C_9
DOCKED: REMARK    6  A    between atoms: C_9  and  N_10
DOCKED: REMARK                            x       y       z     vdW  Elec       q    Type
DOCKED: REMARK                         _______ _______ _______ _____ _____    ______ ____
DOCKED: USER                              x       y       z     vdW  Elec       q    Type
DOCKED: USER                           _______ _______ _______ _____ _____    ______ ____
DOCKED: ROOT
DOCKED: ATOM      1  N   UNL     1      19.924 -11.182  -0.138 -0.53 -0.00    +0.000 N 
DOCKED: ATOM      2  C   UNL     1      18.600 -11.167  -0.704 -0.47 -0.00    +0.000 C 
DOCKED: ATOM      3  C   UNL     1      18.361 -10.515  -2.013 -0.28 -0.00    +0.000 A 
DOCKED: ATOM      4  C   UNL     1      17.080 -10.521  -2.591 -0.15 -0.00    +0.000 A 
DOCKED: ATOM      5  C   UNL     1      16.854  -9.906  -3.823 -0.22 -0.00    +0.000 A 
DOCKED: ATOM      6  C   UNL     1      17.899  -9.276  -4.497 -0.20 -0.00    +0.000 A 
DOCKED: ATOM      7  C   UNL     1      19.187  -9.255  -3.941 -0.24 -0.00    +0.000 A 
DOCKED: ATOM      8  C   UNL     1      20.237  -8.620  -4.618 -0.23 -0.00    +0.000 A 
DOCKED: ATOM      9  C   UNL     1      21.517  -8.596  -4.064 -0.30 -0.00    +0.000 A 
DOCKED: ATOM     10  C   UNL     1      21.763  -9.206  -2.833 -0.26 -0.00    +0.000 A 
DOCKED: ATOM     11  C   UNL     1      20.726  -9.851  -2.134 -0.50 -0.00    +0.000 A 
DOCKED: ATOM     12  C   UNL     1      19.426  -9.878  -2.689 -0.29 -0.00    +0.000 A 
DOCKED: ATOM     13  O   UNL     1      17.642 -11.708  -0.086 -0.47 -0.00    +0.000 OA
DOCKED: ATOM     14  C   UNL     1      20.987 -10.497  -0.828 -0.66 -0.00    +0.000 C 
DOCKED: ATOM     15  O   UNL     1      22.141 -10.445  -0.319 -0.74 -0.00    +0.000 OA
DOCKED: ENDROOT
DOCKED: BRANCH   1  16
DOCKED: ATOM     16  C   UNL     1      20.165 -11.794   1.176 -0.72 -0.00    +0.000 C 
DOCKED: BRANCH  16  17
DOCKED: ATOM     17  C   UNL     1      20.198 -10.716   2.264 -0.68 -0.00    +0.000 C 
DOCKED: BRANCH  17  18
DOCKED: ATOM     18  C   UNL     1      18.805 -10.123   2.497 -0.59 -0.00    +0.000 C 
DOCKED: BRANCH  18  19
DOCKED: ATOM     19  C   UNL     1      17.905 -11.113   3.253 -0.32 +0.00    +0.000 C 
DOCKED: BRANCH  19  20
DOCKED: ATOM     20  C   UNL     1      16.512 -10.534   3.535 -0.49 +0.00    +0.000 C 
DOCKED: BRANCH  20  22
DOCKED: ATOM     21  O   UNL     1      14.244 -10.887   2.870 -0.43 +0.00    +0.000 OA
DOCKED: ATOM     22  C   UNL     1      15.452 -11.206   2.710 -0.51 +0.00    +0.000 C 
DOCKED: ATOM     23  N   UNL     1      15.810 -12.179   1.726 -0.44 +0.00    +0.000 N 
DOCKED: ATOM     24  O   UNL     1      14.857 -12.771   0.971 -0.75 +0.00    +0.000 OA
DOCKED: ATOM     25  H   UNL     1      16.756 -12.418   1.596 -0.02 +0.00    +0.000 HD
DOCKED: ENDBRANCH  20  22
DOCKED: ENDBRANCH  19  20
DOCKED: ENDBRANCH  18  19
DOCKED: ENDBRANCH  17  18
DOCKED: ENDBRANCH  16  17
DOCKED: ENDBRANCH   1  16
DOCKED: TORSDOF 6
DOCKED: TER
DOCKED: ENDMDL
________________________________________________________________________________


	BEGINNING GENETIC ALGORITHM DOCKING 93 of 100
Run: 93 Seed: 182790197 893842631 [ Run 93 of 100 GA/GALS ]
Beginning LAMARCKIAN GENETIC ALGORITHM (LGA), with a maximum of 2500000 energy evaluations.

Final-Value: -12.348


	FINAL GENETIC ALGORITHM DOCKED STATE
	_______________________________________________


Detailed state:  trans 16.702 -9.991 -0.006 quatxyzw 0.880862 -0.136670 -0.353492 0.283633 center -0.023 0.069 -0.054 ntor 6 172.5822 45.8887 -29.7168 171.5037 70.5901 148.7425
State:	 16.702  -9.991  -0.006   0.919 -0.143 -0.369 147.046    172.58   45.89  -29.72  171.50   70.59  148.74

DOCKED: MODEL       93
DOCKED: USER    Run = 93
DOCKED: USER    DPF = ligand_dock.biased.dpf
DOCKED: USER  
DOCKED: USER    Estimated Free Energy of Binding    =   -8.71 kcal/mol  [=(1)+(2)+(3)-(4)]
DOCKED: USER    Estimated Inhibition Constant, Ki   =  411.99 nM (nanomolar)  [Temperature = 298.15 K]
DOCKED: USER    
DOCKED: USER    (1) Final Intermolecular Energy     =  -10.50 kcal/mol
DOCKED: USER        vdW + Hbond + desolv Energy     =  -10.50 kcal/mol
DOCKED: USER        Electrostatic Energy            =   +0.00 kcal/mol
DOCKED: USER    (2) Final Total Internal Energy     =   -1.85 kcal/mol
DOCKED: USER    (3) Torsional Free Energy           =   +1.79 kcal/mol
DOCKED: USER    (4) Unbound System's Energy  [=(2)] =   -1.85 kcal/mol
DOCKED: USER    
DOCKED: USER    
DOCKED: USER    NEWDPF move ligand.pdbqt
DOCKED: USER    NEWDPF about -0.023000 0.069000 -0.054000
DOCKED: USER    NEWDPF tran0 16.701833 -9.991459 -0.005980
DOCKED: USER    NEWDPF quaternion0 0.880862 -0.136670 -0.353492 0.283633
DOCKED: USER    NEWDPF axisangle0 0.918585 -0.142523 -0.368631 147.045708
DOCKED: USER    NEWDPF quat0 0.918585 -0.142523 -0.368631 147.045708
DOCKED: USER    NEWDPF dihe0 172.58 45.89 -29.72 171.50 70.59 148.74 
DOCKED: USER  keepresnum = 1 
DOCKED: USER  
DOCKED: REMARK  Name = 
DOCKED: REMARK  6 active torsions:
DOCKED: REMARK  status: ('A' for Active; 'I' for Inactive)
DOCKED: REMARK    1  A    between atoms: C_2  and  C_5
DOCKED: REMARK    2  A    between atoms: C_5  and  C_6
DOCKED: REMARK    3  A    between atoms: C_6  and  C_7
DOCKED: REMARK    4  A    between atoms: C_7  and  C_8
DOCKED: REMARK    5  A    between atoms: C_8  and  C_9
DOCKED: REMARK    6  A    between atoms: C_9  and  N_10
DOCKED: REMARK                            x       y       z     vdW  Elec       q    Type
DOCKED: REMARK                         _______ _______ _______ _____ _____    ______ ____
DOCKED: USER                              x       y       z     vdW  Elec       q    Type
DOCKED: USER                           _______ _______ _______ _____ _____    ______ ____
DOCKED: ROOT
DOCKED: ATOM      1  N   UNL     1      16.016 -10.577   0.173 -0.29 +0.00    +0.000 N 
DOCKED: ATOM      2  C   UNL     1      16.351 -10.443   1.567 -0.39 +0.00    +0.000 C 
DOCKED: ATOM      3  C   UNL     1      15.302 -10.084   2.550 -0.34 +0.00    +0.000 A 
DOCKED: ATOM      4  C   UNL     1      15.609  -9.981   3.918 -0.40 +0.00    +0.000 A 
DOCKED: ATOM      5  C   UNL     1      14.622  -9.642   4.844 -0.38 +0.00    +0.000 A 
DOCKED: ATOM      6  C   UNL     1      13.315  -9.400   4.422 -0.30 +0.00    +0.000 A 
DOCKED: ATOM      7  C   UNL     1      12.983  -9.496   3.063 -0.21 +0.00    +0.000 A 
DOCKED: ATOM      8  C   UNL     1      11.669  -9.251   2.639 -0.14 +0.00    +0.000 A 
DOCKED: ATOM      9  C   UNL     1      11.339  -9.342   1.287 -0.12 +0.00    +0.000 A 
DOCKED: ATOM     10  C   UNL     1      12.313  -9.681   0.346 -0.15 +0.00    +0.000 A 
DOCKED: ATOM     11  C   UNL     1      13.637  -9.932   0.746 -0.19 +0.00    +0.000 A 
DOCKED: ATOM     12  C   UNL     1      13.980  -9.841   2.114 -0.24 +0.00    +0.000 A 
DOCKED: ATOM     13  O   UNL     1      17.538 -10.630   1.954 -0.47 +0.00    +0.000 OA
DOCKED: ATOM     14  C   UNL     1      14.670 -10.291  -0.253 -0.28 +0.00    +0.000 C 
DOCKED: ATOM     15  O   UNL     1      14.370 -10.341  -1.478 -0.26 -0.00    +0.000 OA
DOCKED: ENDROOT
DOCKED: BRANCH   1  16
DOCKED: ATOM     16  C   UNL     1      17.056 -10.897  -0.814 -0.36 -0.00    +0.000 C 
DOCKED: BRANCH  16  17
DOCKED: ATOM     17  C   UNL     1      17.688 -12.256  -0.496 -0.44 -0.00    +0.000 C 
DOCKED: BRANCH  17  18
DOCKED: ATOM     18  C   UNL     1      19.124 -12.092   0.013 -0.46 -0.00    +0.000 C 
DOCKED: BRANCH  18  19
DOCKED: ATOM     19  C   UNL     1      19.595 -10.637  -0.130 -0.55 -0.00    +0.000 C 
DOCKED: BRANCH  19  20
DOCKED: ATOM     20  C   UNL     1      20.678 -10.272   0.894 -0.62 -0.00    +0.000 C 
DOCKED: BRANCH  20  22
DOCKED: ATOM     21  O   UNL     1      21.350 -12.212   2.117 -1.36 -0.00    +0.000 OA
DOCKED: ATOM     22  C   UNL     1      20.636 -11.174   2.094 -0.71 -0.00    +0.000 C 
DOCKED: ATOM     23  N   UNL     1      19.819 -10.843   3.219 -0.68 -0.00    +0.000 N 
DOCKED: ATOM     24  O   UNL     1      19.795 -11.647   4.307 -1.04 -0.00    +0.000 OA
DOCKED: ATOM     25  H   UNL     1      19.272 -10.025   3.203 -0.13 -0.00    +0.000 HD
DOCKED: ENDBRANCH  20  22
DOCKED: ENDBRANCH  19  20
DOCKED: ENDBRANCH  18  19
DOCKED: ENDBRANCH  17  18
DOCKED: ENDBRANCH  16  17
DOCKED: ENDBRANCH   1  16
DOCKED: TORSDOF 6
DOCKED: TER
DOCKED: ENDMDL
________________________________________________________________________________


	BEGINNING GENETIC ALGORITHM DOCKING 94 of 100
Run: 94 Seed: 1207760887 1788315223 [ Run 94 of 100 GA/GALS ]
Beginning LAMARCKIAN GENETIC ALGORITHM (LGA), with a maximum of 2500000 energy evaluations.

Final-Value: -12.949


	FINAL GENETIC ALGORITHM DOCKED STATE
	_______________________________________________


Detailed state:  trans 16.569 -12.648 -0.898 quatxyzw 0.365377 -0.880234 -0.078203 -0.292528 center -0.023 0.069 -0.054 ntor 6 145.7975 -170.8294 168.6900 53.9163 -146.9693 167.4480
State:	 16.569 -12.648  -0.898   0.382 -0.920 -0.082 -145.981    145.80 -170.83  168.69   53.92 -146.97  167.45

DOCKED: MODEL       94
DOCKED: USER    Run = 94
DOCKED: USER    DPF = ligand_dock.biased.dpf
DOCKED: USER  
DOCKED: USER    Estimated Free Energy of Binding    =   -8.90 kcal/mol  [=(1)+(2)+(3)-(4)]
DOCKED: USER    Estimated Inhibition Constant, Ki   =  300.34 nM (nanomolar)  [Temperature = 298.15 K]
DOCKED: USER    
DOCKED: USER    (1) Final Intermolecular Energy     =  -10.69 kcal/mol
DOCKED: USER        vdW + Hbond + desolv Energy     =  -10.69 kcal/mol
DOCKED: USER        Electrostatic Energy            =   +0.00 kcal/mol
DOCKED: USER    (2) Final Total Internal Energy     =   -2.26 kcal/mol
DOCKED: USER    (3) Torsional Free Energy           =   +1.79 kcal/mol
DOCKED: USER    (4) Unbound System's Energy  [=(2)] =   -2.26 kcal/mol
DOCKED: USER    
DOCKED: USER    
DOCKED: USER    NEWDPF move ligand.pdbqt
DOCKED: USER    NEWDPF about -0.023000 0.069000 -0.054000
DOCKED: USER    NEWDPF tran0 16.569369 -12.648347 -0.897926
DOCKED: USER    NEWDPF quaternion0 0.365377 -0.880234 -0.078203 -0.292528
DOCKED: USER    NEWDPF axisangle0 0.382090 -0.920499 -0.081780 -145.981257
DOCKED: USER    NEWDPF quat0 0.382090 -0.920499 -0.081780 -145.981257
DOCKED: USER    NEWDPF dihe0 145.80 -170.83 168.69 53.92 -146.97 167.45 
DOCKED: USER  keepresnum = 1 
DOCKED: USER  
DOCKED: REMARK  Name = 
DOCKED: REMARK  6 active torsions:
DOCKED: REMARK  status: ('A' for Active; 'I' for Inactive)
DOCKED: REMARK    1  A    between atoms: C_2  and  C_5
DOCKED: REMARK    2  A    between atoms: C_5  and  C_6
DOCKED: REMARK    3  A    between atoms: C_6  and  C_7
DOCKED: REMARK    4  A    between atoms: C_7  and  C_8
DOCKED: REMARK    5  A    between atoms: C_8  and  C_9
DOCKED: REMARK    6  A    between atoms: C_9  and  N_10
DOCKED: REMARK                            x       y       z     vdW  Elec       q    Type
DOCKED: REMARK                         _______ _______ _______ _____ _____    ______ ____
DOCKED: USER                              x       y       z     vdW  Elec       q    Type
DOCKED: USER                           _______ _______ _______ _____ _____    ______ ____
DOCKED: ROOT
DOCKED: ATOM      1  N   UNL     1      16.530 -11.730  -0.856 -0.32 +0.00    +0.000 N 
DOCKED: ATOM      2  C   UNL     1      17.964 -11.737  -0.729 -0.42 -0.00    +0.000 C 
DOCKED: ATOM      3  C   UNL     1      18.792 -10.913  -1.640 -0.38 -0.00    +0.000 A 
DOCKED: ATOM      4  C   UNL     1      20.191 -10.887  -1.506 -0.39 -0.00    +0.000 A 
DOCKED: ATOM      5  C   UNL     1      20.972 -10.111  -2.364 -0.51 -0.00    +0.000 A 
DOCKED: ATOM      6  C   UNL     1      20.373  -9.352  -3.368 -0.37 -0.00    +0.000 A 
DOCKED: ATOM      7  C   UNL     1      18.979  -9.362  -3.523 -0.21 -0.00    +0.000 A 
DOCKED: ATOM      8  C   UNL     1      18.376  -8.600  -4.533 -0.17 -0.00    +0.000 A 
DOCKED: ATOM      9  C   UNL     1      16.990  -8.612  -4.690 -0.15 -0.00    +0.000 A 
DOCKED: ATOM     10  C   UNL     1      16.192  -9.381  -3.842 -0.19 -0.00    +0.000 A 
DOCKED: ATOM     11  C   UNL     1      16.772 -10.153  -2.819 -0.22 -0.00    +0.000 A 
DOCKED: ATOM     12  C   UNL     1      18.176 -10.146  -2.655 -0.20 -0.00    +0.000 A 
DOCKED: ATOM     13  O   UNL     1      18.517 -12.446   0.157 -0.63 -0.00    +0.000 OA
DOCKED: ATOM     14  C   UNL     1      15.925 -10.969  -1.920 -0.21 -0.00    +0.000 C 
DOCKED: ATOM     15  O   UNL     1      14.675 -10.998  -2.088 -0.33 -0.00    +0.000 OA
DOCKED: ENDROOT
DOCKED: BRANCH   1  16
DOCKED: ATOM     16  C   UNL     1      15.701 -12.572   0.018 -0.54 +0.00    +0.000 C 
DOCKED: BRANCH  16  17
DOCKED: ATOM     17  C   UNL     1      15.531 -11.906   1.387 -0.47 +0.00    +0.000 C 
DOCKED: BRANCH  17  18
DOCKED: ATOM     18  C   UNL     1      15.503 -10.379   1.259 -0.33 +0.00    +0.000 C 
DOCKED: BRANCH  18  19
DOCKED: ATOM     19  C   UNL     1      16.555  -9.732   2.172 -0.40 +0.00    +0.000 C 
DOCKED: BRANCH  19  20
DOCKED: ATOM     20  C   UNL     1      17.215 -10.750   3.113 -0.48 +0.00    +0.000 C 
DOCKED: BRANCH  20  22
DOCKED: ATOM     21  O   UNL     1      19.413  -9.814   3.181 -0.63 -0.00    +0.000 OA
DOCKED: ATOM     22  C   UNL     1      18.701 -10.817   2.907 -0.60 -0.00    +0.000 C 
DOCKED: ATOM     23  N   UNL     1      19.312 -12.019   2.434 -0.61 -0.00    +0.000 N 
DOCKED: ATOM     24  O   UNL     1      20.653 -12.085   2.265 -1.88 -0.00    +0.000 OA
DOCKED: ATOM     25  H   UNL     1      18.754 -12.805   2.232 -0.04 +0.00    +0.000 HD
DOCKED: ENDBRANCH  20  22
DOCKED: ENDBRANCH  19  20
DOCKED: ENDBRANCH  18  19
DOCKED: ENDBRANCH  17  18
DOCKED: ENDBRANCH  16  17
DOCKED: ENDBRANCH   1  16
DOCKED: TORSDOF 6
DOCKED: TER
DOCKED: ENDMDL
________________________________________________________________________________


	BEGINNING GENETIC ALGORITHM DOCKING 95 of 100
Run: 95 Seed: 1036018177 735053321 [ Run 95 of 100 GA/GALS ]
Beginning LAMARCKIAN GENETIC ALGORITHM (LGA), with a maximum of 2500000 energy evaluations.

Final-Value: -12.511


	FINAL GENETIC ALGORITHM DOCKED STATE
	_______________________________________________


Detailed state:  trans 14.166 -11.866 0.227 quatxyzw -0.303318 0.008287 0.741684 0.598192 center -0.023 0.069 -0.054 ntor 6 -179.5489 147.4943 35.6558 -20.2973 161.7476 174.9126
State:	 14.166 -11.866   0.227  -0.379  0.010  0.926 106.519   -179.55  147.49   35.66  -20.30  161.75  174.91

DOCKED: MODEL       95
DOCKED: USER    Run = 95
DOCKED: USER    DPF = ligand_dock.biased.dpf
DOCKED: USER  
DOCKED: USER    Estimated Free Energy of Binding    =   -8.86 kcal/mol  [=(1)+(2)+(3)-(4)]
DOCKED: USER    Estimated Inhibition Constant, Ki   =  320.54 nM (nanomolar)  [Temperature = 298.15 K]
DOCKED: USER    
DOCKED: USER    (1) Final Intermolecular Energy     =  -10.65 kcal/mol
DOCKED: USER        vdW + Hbond + desolv Energy     =  -10.65 kcal/mol
DOCKED: USER        Electrostatic Energy            =   +0.00 kcal/mol
DOCKED: USER    (2) Final Total Internal Energy     =   -1.86 kcal/mol
DOCKED: USER    (3) Torsional Free Energy           =   +1.79 kcal/mol
DOCKED: USER    (4) Unbound System's Energy  [=(2)] =   -1.86 kcal/mol
DOCKED: USER    
DOCKED: USER    
DOCKED: USER    NEWDPF move ligand.pdbqt
DOCKED: USER    NEWDPF about -0.023000 0.069000 -0.054000
DOCKED: USER    NEWDPF tran0 14.165989 -11.865985 0.227112
DOCKED: USER    NEWDPF quaternion0 -0.303318 0.008287 0.741684 0.598192
DOCKED: USER    NEWDPF axisangle0 -0.378507 0.010341 0.925540 106.518958
DOCKED: USER    NEWDPF quat0 -0.378507 0.010341 0.925540 106.518958
DOCKED: USER    NEWDPF dihe0 -179.55 147.49 35.66 -20.30 161.75 174.91 
DOCKED: USER  keepresnum = 1 
DOCKED: USER  
DOCKED: REMARK  Name = 
DOCKED: REMARK  6 active torsions:
DOCKED: REMARK  status: ('A' for Active; 'I' for Inactive)
DOCKED: REMARK    1  A    between atoms: C_2  and  C_5
DOCKED: REMARK    2  A    between atoms: C_5  and  C_6
DOCKED: REMARK    3  A    between atoms: C_6  and  C_7
DOCKED: REMARK    4  A    between atoms: C_7  and  C_8
DOCKED: REMARK    5  A    between atoms: C_8  and  C_9
DOCKED: REMARK    6  A    between atoms: C_9  and  N_10
DOCKED: REMARK                            x       y       z     vdW  Elec       q    Type
DOCKED: REMARK                         _______ _______ _______ _____ _____    ______ ____
DOCKED: USER                              x       y       z     vdW  Elec       q    Type
DOCKED: USER                           _______ _______ _______ _____ _____    ______ ____
DOCKED: ROOT
DOCKED: ATOM      1  N   UNL     1      14.880 -11.509   0.684 -0.35 +0.00    +0.000 N 
DOCKED: ATOM      2  C   UNL     1      14.659 -10.290  -0.050 -0.28 +0.00    +0.000 C 
DOCKED: ATOM      3  C   UNL     1      14.514  -9.006   0.674 -0.22 +0.00    +0.000 A 
DOCKED: ATOM      4  C   UNL     1      14.329  -7.804  -0.032 -0.21 -0.00    +0.000 A 
DOCKED: ATOM      5  C   UNL     1      14.192  -6.594   0.650 -0.17 -0.00    +0.000 A 
DOCKED: ATOM      6  C   UNL     1      14.236  -6.562   2.043 -0.21 +0.00    +0.000 A 
DOCKED: ATOM      7  C   UNL     1      14.419  -7.747   2.771 -0.24 +0.00    +0.000 A 
DOCKED: ATOM      8  C   UNL     1      14.461  -7.715   4.171 -0.32 +0.00    +0.000 A 
DOCKED: ATOM      9  C   UNL     1      14.640  -8.894   4.896 -0.31 +0.00    +0.000 A 
DOCKED: ATOM     10  C   UNL     1      14.780 -10.114   4.232 -0.41 +0.00    +0.000 A 
DOCKED: ATOM     11  C   UNL     1      14.741 -10.173   2.827 -0.34 +0.00    +0.000 A 
DOCKED: ATOM     12  C   UNL     1      14.560  -8.982   2.087 -0.24 +0.00    +0.000 A 
DOCKED: ATOM     13  O   UNL     1      14.586 -10.314  -1.310 -0.26 -0.00    +0.000 OA
DOCKED: ATOM     14  C   UNL     1      14.889 -11.467   2.124 -0.48 +0.00    +0.000 C 
DOCKED: ATOM     15  O   UNL     1      15.019 -12.533   2.787 -0.54 +0.00    +0.000 OA
DOCKED: ENDROOT
DOCKED: BRANCH   1  16
DOCKED: ATOM     16  C   UNL     1      14.989 -12.793  -0.023 -0.54 +0.00    +0.000 C 
DOCKED: BRANCH  16  17
DOCKED: ATOM     17  C   UNL     1      16.438 -13.039  -0.453 -0.40 +0.00    +0.000 C 
DOCKED: BRANCH  17  18
DOCKED: ATOM     18  C   UNL     1      17.246 -11.737  -0.444 -0.44 -0.00    +0.000 C 
DOCKED: BRANCH  18  19
DOCKED: ATOM     19  C   UNL     1      18.753 -12.025  -0.383 -0.50 -0.00    +0.000 C 
DOCKED: BRANCH  19  20
DOCKED: ATOM     20  C   UNL     1      19.500 -11.033   0.519 -0.61 -0.00    +0.000 C 
DOCKED: BRANCH  20  22
DOCKED: ATOM     21  O   UNL     1      20.261 -11.981   2.577 -1.93 -0.00    +0.000 OA
DOCKED: ATOM     22  C   UNL     1      19.338 -11.372   1.973 -0.68 -0.00    +0.000 C 
DOCKED: ATOM     23  N   UNL     1      18.159 -10.980   2.680 -0.50 +0.00    +0.000 N 
DOCKED: ATOM     24  O   UNL     1      18.021 -11.270   3.995 -0.45 +0.00    +0.000 OA
DOCKED: ATOM     25  H   UNL     1      17.444 -10.494   2.209 -0.01 +0.00    +0.000 HD
DOCKED: ENDBRANCH  20  22
DOCKED: ENDBRANCH  19  20
DOCKED: ENDBRANCH  18  19
DOCKED: ENDBRANCH  17  18
DOCKED: ENDBRANCH  16  17
DOCKED: ENDBRANCH   1  16
DOCKED: TORSDOF 6
DOCKED: TER
DOCKED: ENDMDL
________________________________________________________________________________


	BEGINNING GENETIC ALGORITHM DOCKING 96 of 100
Run: 96 Seed: 2090429378 219766084 [ Run 96 of 100 GA/GALS ]
Beginning LAMARCKIAN GENETIC ALGORITHM (LGA), with a maximum of 2500000 energy evaluations.

Final-Value: -13.247


	FINAL GENETIC ALGORITHM DOCKED STATE
	_______________________________________________


Detailed state:  trans 19.275 -12.296 0.909 quatxyzw -0.208607 0.040144 0.133300 0.968041 center -0.023 0.069 -0.054 ntor 6 -69.3554 -177.9967 -12.0609 -101.3794 66.4461 -178.3607
State:	 19.275 -12.296   0.909  -0.832  0.160  0.532 29.049    -69.36 -178.00  -12.06 -101.38   66.45 -178.36

DOCKED: MODEL       96
DOCKED: USER    Run = 96
DOCKED: USER    DPF = ligand_dock.biased.dpf
DOCKED: USER  
DOCKED: USER    Estimated Free Energy of Binding    =   -9.69 kcal/mol  [=(1)+(2)+(3)-(4)]
DOCKED: USER    Estimated Inhibition Constant, Ki   =   78.34 nM (nanomolar)  [Temperature = 298.15 K]
DOCKED: USER    
DOCKED: USER    (1) Final Intermolecular Energy     =  -11.48 kcal/mol
DOCKED: USER        vdW + Hbond + desolv Energy     =  -11.48 kcal/mol
DOCKED: USER        Electrostatic Energy            =   +0.00 kcal/mol
DOCKED: USER    (2) Final Total Internal Energy     =   -1.76 kcal/mol
DOCKED: USER    (3) Torsional Free Energy           =   +1.79 kcal/mol
DOCKED: USER    (4) Unbound System's Energy  [=(2)] =   -1.76 kcal/mol
DOCKED: USER    
DOCKED: USER    
DOCKED: USER    NEWDPF move ligand.pdbqt
DOCKED: USER    NEWDPF about -0.023000 0.069000 -0.054000
DOCKED: USER    NEWDPF tran0 19.274841 -12.296293 0.908960
DOCKED: USER    NEWDPF quaternion0 -0.208607 0.040144 0.133300 0.968041
DOCKED: USER    NEWDPF axisangle0 -0.831789 0.160068 0.531512 29.048939
DOCKED: USER    NEWDPF quat0 -0.831789 0.160068 0.531512 29.048939
DOCKED: USER    NEWDPF dihe0 -69.36 -178.00 -12.06 -101.38 66.45 -178.36 
DOCKED: USER  keepresnum = 1 
DOCKED: USER  
DOCKED: REMARK  Name = 
DOCKED: REMARK  6 active torsions:
DOCKED: REMARK  status: ('A' for Active; 'I' for Inactive)
DOCKED: REMARK    1  A    between atoms: C_2  and  C_5
DOCKED: REMARK    2  A    between atoms: C_5  and  C_6
DOCKED: REMARK    3  A    between atoms: C_6  and  C_7
DOCKED: REMARK    4  A    between atoms: C_7  and  C_8
DOCKED: REMARK    5  A    between atoms: C_8  and  C_9
DOCKED: REMARK    6  A    between atoms: C_9  and  N_10
DOCKED: REMARK                            x       y       z     vdW  Elec       q    Type
DOCKED: REMARK                         _______ _______ _______ _____ _____    ______ ____
DOCKED: USER                              x       y       z     vdW  Elec       q    Type
DOCKED: USER                           _______ _______ _______ _____ _____    ______ ____
DOCKED: ROOT
DOCKED: ATOM      1  N   UNL     1      18.886 -11.488   1.112 -0.51 -0.00    +0.000 N 
DOCKED: ATOM      2  C   UNL     1      18.098 -11.637  -0.083 -0.50 -0.00    +0.000 C 
DOCKED: ATOM      3  C   UNL     1      16.624 -11.514  -0.019 -0.37 +0.00    +0.000 A 
DOCKED: ATOM      4  C   UNL     1      15.845 -11.627  -1.184 -0.23 +0.00    +0.000 A 
DOCKED: ATOM      5  C   UNL     1      14.456 -11.511  -1.123 -0.34 +0.00    +0.000 A 
DOCKED: ATOM      6  C   UNL     1      13.821 -11.283   0.097 -0.33 +0.00    +0.000 A 
DOCKED: ATOM      7  C   UNL     1      14.575 -11.168   1.274 -0.35 +0.00    +0.000 A 
DOCKED: ATOM      8  C   UNL     1      13.936 -10.941   2.501 -0.36 +0.00    +0.000 A 
DOCKED: ATOM      9  C   UNL     1      14.685 -10.829   3.672 -0.37 +0.00    +0.000 A 
DOCKED: ATOM     10  C   UNL     1      16.076 -10.941   3.632 -0.47 +0.00    +0.000 A 
DOCKED: ATOM     11  C   UNL     1      16.740 -11.168   2.413 -0.39 +0.00    +0.000 A 
DOCKED: ATOM     12  C   UNL     1      15.988 -11.283   1.222 -0.36 +0.00    +0.000 A 
DOCKED: ATOM     13  O   UNL     1      18.662 -11.875  -1.187 -0.48 -0.00    +0.000 OA
DOCKED: ATOM     14  C   UNL     1      18.216 -11.287   2.371 -0.51 +0.00    +0.000 C 
DOCKED: ATOM     15  O   UNL     1      18.884 -11.216   3.440 -0.71 -0.00    +0.000 OA
DOCKED: ENDROOT
DOCKED: BRANCH   1  16
DOCKED: ATOM     16  C   UNL     1      20.347 -11.644   1.066 -0.72 -0.00    +0.000 C 
DOCKED: BRANCH  16  17
DOCKED: ATOM     17  C   UNL     1      21.020 -10.280   0.882 -0.56 -0.00    +0.000 C 
DOCKED: BRANCH  17  18
DOCKED: ATOM     18  C   UNL     1      21.719 -10.187  -0.479 -0.65 -0.00    +0.000 C 
DOCKED: BRANCH  18  19
DOCKED: ATOM     19  C   UNL     1      20.706  -9.905  -1.599 -0.59 -0.00    +0.000 C 
DOCKED: BRANCH  19  20
DOCKED: ATOM     20  C   UNL     1      21.391  -9.590  -2.936 -0.51 -0.00    +0.000 C 
DOCKED: BRANCH  20  22
DOCKED: ATOM     21  O   UNL     1      21.993 -10.893  -4.847 -0.53 -0.00    +0.000 OA
DOCKED: ATOM     22  C   UNL     1      21.129 -10.656  -3.961 -0.52 -0.00    +0.000 C 
DOCKED: ATOM     23  N   UNL     1      19.924 -11.423  -3.915 -0.45 -0.00    +0.000 N 
DOCKED: ATOM     24  O   UNL     1      19.696 -12.396  -4.828 -0.65 -0.00    +0.000 OA
DOCKED: ATOM     25  H   UNL     1      19.256 -11.244  -3.214 -0.02 -0.00    +0.000 HD
DOCKED: ENDBRANCH  20  22
DOCKED: ENDBRANCH  19  20
DOCKED: ENDBRANCH  18  19
DOCKED: ENDBRANCH  17  18
DOCKED: ENDBRANCH  16  17
DOCKED: ENDBRANCH   1  16
DOCKED: TORSDOF 6
DOCKED: TER
DOCKED: ENDMDL
________________________________________________________________________________


	BEGINNING GENETIC ALGORITHM DOCKING 97 of 100
Run: 97 Seed: 1859114825 2127411055 [ Run 97 of 100 GA/GALS ]
Beginning LAMARCKIAN GENETIC ALGORITHM (LGA), with a maximum of 2500000 energy evaluations.

Final-Value: -12.221


	FINAL GENETIC ALGORITHM DOCKED STATE
	_______________________________________________


Detailed state:  trans 16.368 -9.575 1.551 quatxyzw 0.697243 -0.407191 -0.161444 0.567436 center -0.023 0.069 -0.054 ntor 6 -171.5378 -132.4850 93.5777 -122.0982 25.7357 156.0860
State:	 16.368  -9.575   1.551   0.847 -0.495 -0.196 110.857   -171.54 -132.49   93.58 -122.10   25.74  156.09

DOCKED: MODEL       97
DOCKED: USER    Run = 97
DOCKED: USER    DPF = ligand_dock.biased.dpf
DOCKED: USER  
DOCKED: USER    Estimated Free Energy of Binding    =   -8.65 kcal/mol  [=(1)+(2)+(3)-(4)]
DOCKED: USER    Estimated Inhibition Constant, Ki   =  457.61 nM (nanomolar)  [Temperature = 298.15 K]
DOCKED: USER    
DOCKED: USER    (1) Final Intermolecular Energy     =  -10.44 kcal/mol
DOCKED: USER        vdW + Hbond + desolv Energy     =  -10.44 kcal/mol
DOCKED: USER        Electrostatic Energy            =   +0.00 kcal/mol
DOCKED: USER    (2) Final Total Internal Energy     =   -1.78 kcal/mol
DOCKED: USER    (3) Torsional Free Energy           =   +1.79 kcal/mol
DOCKED: USER    (4) Unbound System's Energy  [=(2)] =   -1.78 kcal/mol
DOCKED: USER    
DOCKED: USER    
DOCKED: USER    NEWDPF move ligand.pdbqt
DOCKED: USER    NEWDPF about -0.023000 0.069000 -0.054000
DOCKED: USER    NEWDPF tran0 16.367749 -9.574814 1.551478
DOCKED: USER    NEWDPF quaternion0 0.697243 -0.407191 -0.161444 0.567436
DOCKED: USER    NEWDPF axisangle0 0.846767 -0.494513 -0.196065 110.856788
DOCKED: USER    NEWDPF quat0 0.846767 -0.494513 -0.196065 110.856788
DOCKED: USER    NEWDPF dihe0 -171.54 -132.49 93.58 -122.10 25.74 156.09 
DOCKED: USER  keepresnum = 1 
DOCKED: USER  
DOCKED: REMARK  Name = 
DOCKED: REMARK  6 active torsions:
DOCKED: REMARK  status: ('A' for Active; 'I' for Inactive)
DOCKED: REMARK    1  A    between atoms: C_2  and  C_5
DOCKED: REMARK    2  A    between atoms: C_5  and  C_6
DOCKED: REMARK    3  A    between atoms: C_6  and  C_7
DOCKED: REMARK    4  A    between atoms: C_7  and  C_8
DOCKED: REMARK    5  A    between atoms: C_8  and  C_9
DOCKED: REMARK    6  A    between atoms: C_9  and  N_10
DOCKED: REMARK                            x       y       z     vdW  Elec       q    Type
DOCKED: REMARK                         _______ _______ _______ _____ _____    ______ ____
DOCKED: USER                              x       y       z     vdW  Elec       q    Type
DOCKED: USER                           _______ _______ _______ _____ _____    ______ ____
DOCKED: ROOT
DOCKED: ATOM      1  N   UNL     1      15.459  -9.439   1.520 -0.29 +0.00    +0.000 N 
DOCKED: ATOM      2  C   UNL     1      15.395  -9.986   2.851 -0.42 +0.00    +0.000 C 
DOCKED: ATOM      3  C   UNL     1      14.717  -9.232   3.930 -0.35 +0.00    +0.000 A 
DOCKED: ATOM      4  C   UNL     1      14.621  -9.769   5.226 -0.30 +0.00    +0.000 A 
DOCKED: ATOM      5  C   UNL     1      13.982  -9.059   6.244 -0.41 +0.00    +0.000 A 
DOCKED: ATOM      6  C   UNL     1      13.431  -7.804   5.987 -0.31 +0.00    +0.000 A 
DOCKED: ATOM      7  C   UNL     1      13.514  -7.246   4.703 -0.28 +0.00    +0.000 A 
DOCKED: ATOM      8  C   UNL     1      12.962  -5.984   4.445 -0.21 +0.00    +0.000 A 
DOCKED: ATOM      9  C   UNL     1      13.047  -5.427   3.170 -0.13 +0.00    +0.000 A 
DOCKED: ATOM     10  C   UNL     1      13.681  -6.122   2.139 -0.17 +0.00    +0.000 A 
DOCKED: ATOM     11  C   UNL     1      14.243  -7.390   2.371 -0.22 +0.00    +0.000 A 
DOCKED: ATOM     12  C   UNL     1      14.161  -7.961   3.662 -0.26 +0.00    +0.000 A 
DOCKED: ATOM     13  O   UNL     1      15.919 -11.107   3.100 -0.52 +0.00    +0.000 OA
DOCKED: ATOM     14  C   UNL     1      14.916  -8.127   1.277 -0.25 +0.00    +0.000 C 
DOCKED: ATOM     15  O   UNL     1      15.016  -7.603   0.133 -0.29 -0.00    +0.000 OA
DOCKED: ENDROOT
DOCKED: BRANCH   1  16
DOCKED: ATOM     16  C   UNL     1      16.161 -10.163   0.451 -0.30 +0.00    +0.000 C 
DOCKED: BRANCH  16  17
DOCKED: ATOM     17  C   UNL     1      15.400 -11.442   0.089 -0.39 +0.00    +0.000 C 
DOCKED: BRANCH  17  18
DOCKED: ATOM     18  C   UNL     1      16.341 -12.496  -0.504 -0.43 +0.00    +0.000 C 
DOCKED: BRANCH  18  19
DOCKED: ATOM     19  C   UNL     1      17.471 -12.839   0.478 -0.43 +0.00    +0.000 C 
DOCKED: BRANCH  19  20
DOCKED: ATOM     20  C   UNL     1      18.631 -11.837   0.404 -0.57 -0.00    +0.000 C 
DOCKED: BRANCH  20  22
DOCKED: ATOM     21  O   UNL     1      20.619 -12.355   1.626 -1.60 -0.00    +0.000 OA
DOCKED: ATOM     22  C   UNL     1      19.463 -11.854   1.654 -0.71 -0.00    +0.000 C 
DOCKED: ATOM     23  N   UNL     1      18.963 -11.277   2.863 -0.58 -0.00    +0.000 N 
DOCKED: ATOM     24  O   UNL     1      19.720 -11.277   3.985 -1.02 -0.00    +0.000 OA
DOCKED: ATOM     25  H   UNL     1      18.064 -10.876   2.879 -0.01 +0.00    +0.000 HD
DOCKED: ENDBRANCH  20  22
DOCKED: ENDBRANCH  19  20
DOCKED: ENDBRANCH  18  19
DOCKED: ENDBRANCH  17  18
DOCKED: ENDBRANCH  16  17
DOCKED: ENDBRANCH   1  16
DOCKED: TORSDOF 6
DOCKED: TER
DOCKED: ENDMDL
________________________________________________________________________________


	BEGINNING GENETIC ALGORITHM DOCKING 98 of 100
Run: 98 Seed: 534465110 1763261069 [ Run 98 of 100 GA/GALS ]
Beginning LAMARCKIAN GENETIC ALGORITHM (LGA), with a maximum of 2500000 energy evaluations.

Final-Value: -12.892


	FINAL GENETIC ALGORITHM DOCKED STATE
	_______________________________________________


Detailed state:  trans 15.868 -10.774 -1.150 quatxyzw -0.072665 0.061350 0.995259 -0.020365 center -0.023 0.069 -0.054 ntor 6 -92.7162 173.5800 -19.8219 -85.9944 103.3765 6.7945
State:	 15.868 -10.774  -1.150  -0.073  0.061  0.995 -177.666    -92.72  173.58  -19.82  -85.99  103.38    6.79

DOCKED: MODEL       98
DOCKED: USER    Run = 98
DOCKED: USER    DPF = ligand_dock.biased.dpf
DOCKED: USER  
DOCKED: USER    Estimated Free Energy of Binding    =   -8.71 kcal/mol  [=(1)+(2)+(3)-(4)]
DOCKED: USER    Estimated Inhibition Constant, Ki   =  414.61 nM (nanomolar)  [Temperature = 298.15 K]
DOCKED: USER    
DOCKED: USER    (1) Final Intermolecular Energy     =  -10.50 kcal/mol
DOCKED: USER        vdW + Hbond + desolv Energy     =  -10.50 kcal/mol
DOCKED: USER        Electrostatic Energy            =   +0.00 kcal/mol
DOCKED: USER    (2) Final Total Internal Energy     =   -2.40 kcal/mol
DOCKED: USER    (3) Torsional Free Energy           =   +1.79 kcal/mol
DOCKED: USER    (4) Unbound System's Energy  [=(2)] =   -2.40 kcal/mol
DOCKED: USER    
DOCKED: USER    
DOCKED: USER    NEWDPF move ligand.pdbqt
DOCKED: USER    NEWDPF about -0.023000 0.069000 -0.054000
DOCKED: USER    NEWDPF tran0 15.867594 -10.774405 -1.149939
DOCKED: USER    NEWDPF quaternion0 -0.072665 0.061350 0.995259 -0.020365
DOCKED: USER    NEWDPF axisangle0 -0.072680 0.061362 0.995466 -177.666177
DOCKED: USER    NEWDPF quat0 -0.072680 0.061362 0.995466 -177.666177
DOCKED: USER    NEWDPF dihe0 -92.72 173.58 -19.82 -85.99 103.38 6.79 
DOCKED: USER  keepresnum = 1 
DOCKED: USER  
DOCKED: REMARK  Name = 
DOCKED: REMARK  6 active torsions:
DOCKED: REMARK  status: ('A' for Active; 'I' for Inactive)
DOCKED: REMARK    1  A    between atoms: C_2  and  C_5
DOCKED: REMARK    2  A    between atoms: C_5  and  C_6
DOCKED: REMARK    3  A    between atoms: C_6  and  C_7
DOCKED: REMARK    4  A    between atoms: C_7  and  C_8
DOCKED: REMARK    5  A    between atoms: C_8  and  C_9
DOCKED: REMARK    6  A    between atoms: C_9  and  N_10
DOCKED: REMARK                            x       y       z     vdW  Elec       q    Type
DOCKED: REMARK                         _______ _______ _______ _____ _____    ______ ____
DOCKED: USER                              x       y       z     vdW  Elec       q    Type
DOCKED: USER                           _______ _______ _______ _____ _____    ______ ____
DOCKED: ROOT
DOCKED: ATOM      1  N   UNL     1      16.429 -11.497  -1.059 -0.29 +0.00    +0.000 N 
DOCKED: ATOM      2  C   UNL     1      17.335 -10.826  -1.954 -0.15 -0.00    +0.000 C 
DOCKED: ATOM      3  C   UNL     1      18.750 -10.627  -1.564 -0.33 -0.00    +0.000 A 
DOCKED: ATOM      4  C   UNL     1      19.652 -10.001  -2.442 -0.34 -0.00    +0.000 A 
DOCKED: ATOM      5  C   UNL     1      20.985  -9.813  -2.075 -0.52 -0.00    +0.000 A 
DOCKED: ATOM      6  C   UNL     1      21.440 -10.243  -0.829 -0.60 -0.00    +0.000 A 
DOCKED: ATOM      7  C   UNL     1      20.559 -10.869   0.066 -0.59 -0.00    +0.000 A 
DOCKED: ATOM      8  C   UNL     1      21.015 -11.300   1.319 -0.48 -0.00    +0.000 A 
DOCKED: ATOM      9  C   UNL     1      20.140 -11.920   2.210 -0.68 -0.00    +0.000 A 
DOCKED: ATOM     10  C   UNL     1      18.803 -12.118   1.861 -0.43 -0.00    +0.000 A 
DOCKED: ATOM     11  C   UNL     1      18.321 -11.696   0.609 -0.48 -0.00    +0.000 A 
DOCKED: ATOM     12  C   UNL     1      19.202 -11.066  -0.299 -0.46 -0.00    +0.000 A 
DOCKED: ATOM     13  O   UNL     1      16.925 -10.406  -3.072 -0.28 -0.00    +0.000 OA
DOCKED: ATOM     14  C   UNL     1      16.902 -11.906   0.239 -0.48 +0.00    +0.000 C 
DOCKED: ATOM     15  O   UNL     1      16.109 -12.440   1.063 -0.98 +0.00    +0.000 OA
DOCKED: ENDROOT
DOCKED: BRANCH   1  16
DOCKED: ATOM     16  C   UNL     1      15.015 -11.668  -1.421 -0.37 +0.00    +0.000 C 
DOCKED: BRANCH  16  17
DOCKED: ATOM     17  C   UNL     1      14.236 -10.380  -1.135 -0.29 -0.00    +0.000 C 
DOCKED: BRANCH  17  18
DOCKED: ATOM     18  C   UNL     1      13.956 -10.226   0.364 -0.25 +0.00    +0.000 C 
DOCKED: BRANCH  18  19
DOCKED: ATOM     19  C   UNL     1      15.036  -9.368   1.039 -0.29 +0.00    +0.000 C 
DOCKED: BRANCH  19  20
DOCKED: ATOM     20  C   UNL     1      14.594  -8.852   2.416 -0.29 +0.00    +0.000 C 
DOCKED: BRANCH  20  22
DOCKED: ATOM     21  O   UNL     1      14.910  -9.388   4.723 -0.46 +0.00    +0.000 OA
DOCKED: ATOM     22  C   UNL     1      15.264  -9.599   3.532 -0.43 +0.00    +0.000 C 
DOCKED: ATOM     23  N   UNL     1      16.274 -10.570   3.249 -0.45 +0.00    +0.000 N 
DOCKED: ATOM     24  O   UNL     1      16.866 -11.255   4.255 -0.56 +0.00    +0.000 OA
DOCKED: ATOM     25  H   UNL     1      16.541 -10.741   2.317 -0.00 +0.00    +0.000 HD
DOCKED: ENDBRANCH  20  22
DOCKED: ENDBRANCH  19  20
DOCKED: ENDBRANCH  18  19
DOCKED: ENDBRANCH  17  18
DOCKED: ENDBRANCH  16  17
DOCKED: ENDBRANCH   1  16
DOCKED: TORSDOF 6
DOCKED: TER
DOCKED: ENDMDL
________________________________________________________________________________


	BEGINNING GENETIC ALGORITHM DOCKING 99 of 100
Run: 99 Seed: 357110498 65112073 [ Run 99 of 100 GA/GALS ]
Beginning LAMARCKIAN GENETIC ALGORITHM (LGA), with a maximum of 2500000 energy evaluations.

Final-Value: -12.955


	FINAL GENETIC ALGORITHM DOCKED STATE
	_______________________________________________


Detailed state:  trans 20.030 -11.610 -3.523 quatxyzw 0.185657 -0.289651 -0.061561 -0.936933 center -0.023 0.069 -0.054 ntor 6 -179.1649 -168.1266 20.5403 -134.9902 -82.2619 -163.2781
State:	 20.030 -11.610  -3.523   0.531 -0.829 -0.176 -40.914   -179.16 -168.13   20.54 -134.99  -82.26 -163.28

DOCKED: MODEL       99
DOCKED: USER    Run = 99
DOCKED: USER    DPF = ligand_dock.biased.dpf
DOCKED: USER  
DOCKED: USER    Estimated Free Energy of Binding    =   -9.27 kcal/mol  [=(1)+(2)+(3)-(4)]
DOCKED: USER    Estimated Inhibition Constant, Ki   =  160.84 nM (nanomolar)  [Temperature = 298.15 K]
DOCKED: USER    
DOCKED: USER    (1) Final Intermolecular Energy     =  -11.06 kcal/mol
DOCKED: USER        vdW + Hbond + desolv Energy     =  -11.06 kcal/mol
DOCKED: USER        Electrostatic Energy            =   +0.00 kcal/mol
DOCKED: USER    (2) Final Total Internal Energy     =   -1.90 kcal/mol
DOCKED: USER    (3) Torsional Free Energy           =   +1.79 kcal/mol
DOCKED: USER    (4) Unbound System's Energy  [=(2)] =   -1.90 kcal/mol
DOCKED: USER    
DOCKED: USER    
DOCKED: USER    NEWDPF move ligand.pdbqt
DOCKED: USER    NEWDPF about -0.023000 0.069000 -0.054000
DOCKED: USER    NEWDPF tran0 20.030314 -11.610442 -3.523164
DOCKED: USER    NEWDPF quaternion0 0.185657 -0.289651 -0.061561 -0.936933
DOCKED: USER    NEWDPF axisangle0 0.531196 -0.828738 -0.176135 -40.914464
DOCKED: USER    NEWDPF quat0 0.531196 -0.828738 -0.176135 -40.914464
DOCKED: USER    NEWDPF dihe0 -179.16 -168.13 20.54 -134.99 -82.26 -163.28 
DOCKED: USER  keepresnum = 1 
DOCKED: USER  
DOCKED: REMARK  Name = 
DOCKED: REMARK  6 active torsions:
DOCKED: REMARK  status: ('A' for Active; 'I' for Inactive)
DOCKED: REMARK    1  A    between atoms: C_2  and  C_5
DOCKED: REMARK    2  A    between atoms: C_5  and  C_6
DOCKED: REMARK    3  A    between atoms: C_6  and  C_7
DOCKED: REMARK    4  A    between atoms: C_7  and  C_8
DOCKED: REMARK    5  A    between atoms: C_8  and  C_9
DOCKED: REMARK    6  A    between atoms: C_9  and  N_10
DOCKED: REMARK                            x       y       z     vdW  Elec       q    Type
DOCKED: REMARK                         _______ _______ _______ _____ _____    ______ ____
DOCKED: USER                              x       y       z     vdW  Elec       q    Type
DOCKED: USER                           _______ _______ _______ _____ _____    ______ ____
DOCKED: ROOT
DOCKED: ATOM      1  N   UNL     1      19.594 -10.807  -3.624 -0.39 -0.00    +0.000 N 
DOCKED: ATOM      2  C   UNL     1      19.498 -11.107  -5.029 -0.45 -0.00    +0.000 C 
DOCKED: ATOM      3  C   UNL     1      18.183 -11.053  -5.709 -0.32 -0.00    +0.000 A 
DOCKED: ATOM      4  C   UNL     1      18.080 -11.314  -7.087 -0.32 -0.00    +0.000 A 
DOCKED: ATOM      5  C   UNL     1      16.842 -11.263  -7.729 -0.30 -0.00    +0.000 A 
DOCKED: ATOM      6  C   UNL     1      15.689 -10.953  -7.009 -0.22 -0.00    +0.000 A 
DOCKED: ATOM      7  C   UNL     1      15.764 -10.690  -5.633 -0.22 -0.00    +0.000 A 
DOCKED: ATOM      8  C   UNL     1      14.605 -10.381  -4.910 -0.20 -0.00    +0.000 A 
DOCKED: ATOM      9  C   UNL     1      14.679 -10.123  -3.541 -0.22 -0.00    +0.000 A 
DOCKED: ATOM     10  C   UNL     1      15.908 -10.168  -2.881 -0.24 -0.00    +0.000 A 
DOCKED: ATOM     11  C   UNL     1      17.087 -10.475  -3.585 -0.10 -0.00    +0.000 A 
DOCKED: ATOM     12  C   UNL     1      17.019 -10.738  -4.972 -0.18 -0.00    +0.000 A 
DOCKED: ATOM     13  O   UNL     1      20.532 -11.419  -5.681 -0.49 -0.00    +0.000 OA
DOCKED: ATOM     14  C   UNL     1      18.390 -10.523  -2.885 -0.33 -0.00    +0.000 C 
DOCKED: ATOM     15  O   UNL     1      18.445 -10.318  -1.641 -0.34 -0.00    +0.000 OA
DOCKED: ENDROOT
DOCKED: BRANCH   1  16
DOCKED: ATOM     16  C   UNL     1      20.888 -10.893  -2.931 -0.43 -0.00    +0.000 C 
DOCKED: BRANCH  16  17
DOCKED: ATOM     17  C   UNL     1      21.391  -9.492  -2.573 -0.52 -0.00    +0.000 C 
DOCKED: BRANCH  17  18
DOCKED: ATOM     18  C   UNL     1      21.056  -9.139  -1.119 -0.61 -0.00    +0.000 C 
DOCKED: BRANCH  18  19
DOCKED: ATOM     19  C   UNL     1      21.386 -10.310  -0.180 -0.71 -0.00    +0.000 C 
DOCKED: BRANCH  19  20
DOCKED: ATOM     20  C   UNL     1      20.572 -10.260   1.120 -0.56 -0.00    +0.000 C 
DOCKED: BRANCH  20  22
DOCKED: ATOM     21  O   UNL     1      20.212 -12.397   2.127 -1.88 -0.00    +0.000 OA
DOCKED: ATOM     22  C   UNL     1      19.782 -11.519   1.332 -0.71 -0.00    +0.000 C 
DOCKED: ATOM     23  N   UNL     1      18.534 -11.710   0.663 -0.49 -0.00    +0.000 N 
DOCKED: ATOM     24  O   UNL     1      17.814 -12.838   0.867 -0.82 +0.00    +0.000 OA
DOCKED: ATOM     25  H   UNL     1      18.195 -11.018   0.051 -0.00 -0.00    +0.000 HD
DOCKED: ENDBRANCH  20  22
DOCKED: ENDBRANCH  19  20
DOCKED: ENDBRANCH  18  19
DOCKED: ENDBRANCH  17  18
DOCKED: ENDBRANCH  16  17
DOCKED: ENDBRANCH   1  16
DOCKED: TORSDOF 6
DOCKED: TER
DOCKED: ENDMDL
________________________________________________________________________________


	BEGINNING GENETIC ALGORITHM DOCKING 100 of 100
Run: 100 Seed: 772404374 419778803 [ Run 100 of 100 GA/GALS ]
Beginning LAMARCKIAN GENETIC ALGORITHM (LGA), with a maximum of 2500000 energy evaluations.

Final-Value: -12.826


	FINAL GENETIC ALGORITHM DOCKED STATE
	_______________________________________________


Detailed state:  trans 15.532 -10.879 -0.748 quatxyzw -0.007774 -0.061459 -0.998075 0.002823 center -0.023 0.069 -0.054 ntor 6 -120.1098 -170.6749 132.7902 54.7180 -118.2327 -25.2796
State:	 15.532 -10.879  -0.748  -0.008 -0.061 -0.998 179.676   -120.11 -170.67  132.79   54.72 -118.23  -25.28

DOCKED: MODEL      100
DOCKED: USER    Run = 100
DOCKED: USER    DPF = ligand_dock.biased.dpf
DOCKED: USER  
DOCKED: USER    Estimated Free Energy of Binding    =   -8.63 kcal/mol  [=(1)+(2)+(3)-(4)]
DOCKED: USER    Estimated Inhibition Constant, Ki   =  470.33 nM (nanomolar)  [Temperature = 298.15 K]
DOCKED: USER    
DOCKED: USER    (1) Final Intermolecular Energy     =  -10.42 kcal/mol
DOCKED: USER        vdW + Hbond + desolv Energy     =  -10.42 kcal/mol
DOCKED: USER        Electrostatic Energy            =   +0.00 kcal/mol
DOCKED: USER    (2) Final Total Internal Energy     =   -2.40 kcal/mol
DOCKED: USER    (3) Torsional Free Energy           =   +1.79 kcal/mol
DOCKED: USER    (4) Unbound System's Energy  [=(2)] =   -2.40 kcal/mol
DOCKED: USER    
DOCKED: USER    
DOCKED: USER    NEWDPF move ligand.pdbqt
DOCKED: USER    NEWDPF about -0.023000 0.069000 -0.054000
DOCKED: USER    NEWDPF tran0 15.531707 -10.879343 -0.748421
DOCKED: USER    NEWDPF quaternion0 -0.007774 -0.061459 -0.998075 0.002823
DOCKED: USER    NEWDPF axisangle0 -0.007774 -0.061459 -0.998079 179.676473
DOCKED: USER    NEWDPF quat0 -0.007774 -0.061459 -0.998079 179.676473
DOCKED: USER    NEWDPF dihe0 -120.11 -170.67 132.79 54.72 -118.23 -25.28 
DOCKED: USER  keepresnum = 1 
DOCKED: USER  
DOCKED: REMARK  Name = 
DOCKED: REMARK  6 active torsions:
DOCKED: REMARK  status: ('A' for Active; 'I' for Inactive)
DOCKED: REMARK    1  A    between atoms: C_2  and  C_5
DOCKED: REMARK    2  A    between atoms: C_5  and  C_6
DOCKED: REMARK    3  A    between atoms: C_6  and  C_7
DOCKED: REMARK    4  A    between atoms: C_7  and  C_8
DOCKED: REMARK    5  A    between atoms: C_8  and  C_9
DOCKED: REMARK    6  A    between atoms: C_9  and  N_10
DOCKED: REMARK                            x       y       z     vdW  Elec       q    Type
DOCKED: REMARK                         _______ _______ _______ _____ _____    ______ ____
DOCKED: USER                              x       y       z     vdW  Elec       q    Type
DOCKED: USER                           _______ _______ _______ _____ _____    ______ ____
DOCKED: ROOT
DOCKED: ATOM      1  N   UNL     1      16.118 -11.588  -0.752 -0.33 +0.00    +0.000 N 
DOCKED: ATOM      2  C   UNL     1      16.850 -10.895  -1.780 -0.19 -0.00    +0.000 C 
DOCKED: ATOM      3  C   UNL     1      18.304 -10.660  -1.624 -0.29 -0.00    +0.000 A 
DOCKED: ATOM      4  C   UNL     1      19.036 -10.013  -2.635 -0.23 -0.00    +0.000 A 
DOCKED: ATOM      5  C   UNL     1      20.406  -9.790  -2.488 -0.44 -0.00    +0.000 A 
DOCKED: ATOM      6  C   UNL     1      21.067 -10.208  -1.333 -0.57 -0.00    +0.000 A 
DOCKED: ATOM      7  C   UNL     1      20.359 -10.855  -0.310 -0.55 -0.00    +0.000 A 
DOCKED: ATOM      8  C   UNL     1      21.023 -11.273   0.852 -0.55 -0.00    +0.000 A 
DOCKED: ATOM      9  C   UNL     1      20.319 -11.913   1.872 -0.68 -0.00    +0.000 A 
DOCKED: ATOM     10  C   UNL     1      18.949 -12.145   1.743 -0.53 -0.00    +0.000 A 
DOCKED: ATOM     11  C   UNL     1      18.260 -11.737   0.587 -0.48 -0.00    +0.000 A 
DOCKED: ATOM     12  C   UNL     1      18.966 -11.086  -0.450 -0.44 -0.00    +0.000 A 
DOCKED: ATOM     13  O   UNL     1      16.254 -10.486  -2.815 -0.28 -0.00    +0.000 OA
DOCKED: ATOM     14  C   UNL     1      16.806 -11.982   0.451 -0.49 +0.00    +0.000 C 
DOCKED: ATOM     15  O   UNL     1      16.170 -12.535   1.391 -0.92 +0.00    +0.000 OA
DOCKED: ENDROOT
DOCKED: BRANCH   1  16
DOCKED: ATOM     16  C   UNL     1      14.669 -11.794  -0.881 -0.42 +0.00    +0.000 C 
DOCKED: BRANCH  16  17
DOCKED: ATOM     17  C   UNL     1      13.922 -10.983   0.182 -0.34 +0.00    +0.000 C 
DOCKED: BRANCH  17  18
DOCKED: ATOM     18  C   UNL     1      14.175  -9.481   0.009 -0.23 +0.00    +0.000 C 
DOCKED: BRANCH  18  19
DOCKED: ATOM     19  C   UNL     1      14.715  -8.861   1.307 -0.27 +0.00    +0.000 C 
DOCKED: BRANCH  19  20
DOCKED: ATOM     20  C   UNL     1      13.954  -9.350   2.546 -0.27 +0.00    +0.000 C 
DOCKED: BRANCH  20  22
DOCKED: ATOM     21  O   UNL     1      14.510 -10.151   4.729 -0.50 +0.00    +0.000 OA
DOCKED: ATOM     22  C   UNL     1      14.864 -10.035   3.525 -0.44 +0.00    +0.000 C 
DOCKED: ATOM     23  N   UNL     1      16.111 -10.584   3.091 -0.44 +0.00    +0.000 N 
DOCKED: ATOM     24  O   UNL     1      16.923 -11.217   3.969 -0.54 +0.00    +0.000 OA
DOCKED: ATOM     25  H   UNL     1      16.379 -10.503   2.148 -0.00 +0.00    +0.000 HD
DOCKED: ENDBRANCH  20  22
DOCKED: ENDBRANCH  19  20
DOCKED: ENDBRANCH  18  19
DOCKED: ENDBRANCH  17  18
DOCKED: ENDBRANCH  16  17
DOCKED: ENDBRANCH   1  16
DOCKED: TORSDOF 6
DOCKED: TER
DOCKED: ENDMDL
________________________________________________________________________________

DPF>                           # do this many hybrid GA-LS runs

DPF> analysis                             # perform a ranked cluster analysis


		CLUSTER ANALYSIS OF CONFORMATIONS
		_________________________________

Number of conformations = 100

RMSD cluster analysis will be performed using the ligand atoms only (25 / 25 total atoms).

Outputting structurally similar clusters, ranked in order of increasing energy.


________________________________________________________________________________

Number of distinct conformational clusters found = 17,  out of 100 runs,
Using an rmsd-tolerance of 2.0 A


	CLUSTERING HISTOGRAM
	____________________

________________________________________________________________________________
     |           |     |           |     |                                    
Clus | Lowest    | Run | Mean      | Num | Histogram                          
-ter | Binding   |     | Binding   | in  |                                    
Rank | Energy    |     | Energy    | Clus|    5    10   15   20   25   30   35
_____|___________|_____|___________|_____|____:____|____:____|____:____|____:___
   1 |    -11.11 |   4 |     -9.95 |  12 |############
   2 |    -10.42 |  33 |    -10.00 |   4 |####
   3 |    -10.38 |  71 |     -9.95 |   4 |####
   4 |    -10.34 |  65 |     -9.55 |  18 |##################
   5 |    -10.24 |  88 |    -10.24 |   1 |#
   6 |    -10.20 |  72 |     -9.55 |  12 |############
   7 |    -10.12 |  47 |     -9.75 |   3 |###
   8 |     -9.96 |  48 |     -9.94 |   2 |##
   9 |     -9.86 |  49 |     -9.27 |   5 |#####
  10 |     -9.49 |   8 |     -8.91 |  25 |#########################
  11 |     -9.48 |  13 |     -9.48 |   1 |#
  12 |     -9.47 |  78 |     -9.11 |   5 |#####
  13 |     -9.27 |  99 |     -9.08 |   2 |##
  14 |     -9.02 |  17 |     -9.02 |   1 |#
  15 |     -8.82 |  35 |     -8.82 |   1 |#
  16 |     -8.77 |  75 |     -8.74 |   2 |##
  17 |     -8.52 |  34 |     -8.52 |   2 |##
_____|___________|_____|___________|_____|______________________________________


Number of multi-member conformational clusters found = 13, out of 100 runs.

	RMSD TABLE
	__________

_____________________________________________________________________
     |      |      |           |         |                 |
Rank | Sub- | Run  | Binding   | Cluster | Reference       | Grep
     | Rank |      | Energy    | RMSD    | RMSD            | Pattern
_____|______|______|___________|_________|_________________|___________
   1      1      4      -11.11      0.00     17.89           RANKING
   1      2     39      -10.71      0.62     17.74           RANKING
   1      3     55      -10.51      0.82     17.36           RANKING
   1      4     59      -10.30      0.47     17.83           RANKING
   1      5      1      -10.13      1.40     18.05           RANKING
   1      6     53      -10.08      0.82     17.57           RANKING
   1      7     37       -9.96      1.97     17.18           RANKING
   1      8     64       -9.72      1.89     17.45           RANKING
   1      9     68       -9.57      1.74     16.75           RANKING
   1     10      7       -9.56      1.69     16.85           RANKING
   1     11     24       -8.99      1.91     16.80           RANKING
   1     12     93       -8.71      1.39     17.43           RANKING
   2      1     33      -10.42      0.00     22.44           RANKING
   2      2      3      -10.04      0.53     22.25           RANKING
   2      3     69       -9.79      1.14     22.32           RANKING
   2      4     67       -9.75      1.23     22.42           RANKING
   3      1     71      -10.38      0.00     18.29           RANKING
   3      2     63       -9.90      1.37     18.62           RANKING
   3      3     61       -9.80      0.93     18.39           RANKING
   3      4     56       -9.73      1.31     18.01           RANKING
   4      1     65      -10.34      0.00     19.43           RANKING
   4      2     28      -10.30      0.29     19.36           RANKING
   4      3     26      -10.16      0.57     19.33           RANKING
   4      4     12       -9.93      1.28     18.60           RANKING
   4      5     77       -9.91      0.50     19.16           RANKING
   4      6     22       -9.82      1.23     19.26           RANKING
   4      7      6       -9.82      1.17     19.16           RANKING
   4      8     96       -9.69      1.17     19.10           RANKING
   4      9     52       -9.56      1.30     18.99           RANKING
   4     10     18       -9.54      1.32     19.33           RANKING
   4     11     15       -9.51      1.83     18.28           RANKING
   4     12     21       -9.30      1.58     18.86           RANKING
   4     13     81       -9.19      1.36     18.89           RANKING
   4     14     84       -9.17      1.70     18.58           RANKING
   4     15     58       -9.16      1.78     18.69           RANKING
   4     16     83       -9.11      1.67     18.77           RANKING
   4     17     36       -8.90      1.99     18.15           RANKING
   4     18     40       -8.45      1.82     18.56           RANKING
   5      1     88      -10.24      0.00     19.73           RANKING
   6      1     72      -10.20      0.00     20.90           RANKING
   6      2     16      -10.16      1.07     20.88           RANKING
   6      3     76      -10.04      1.16     21.21           RANKING
   6      4     89       -9.83      1.01     20.87           RANKING
   6      5     29       -9.83      1.18     21.54           RANKING
   6      6     91       -9.77      1.18     20.67           RANKING
   6      7     79       -9.76      1.11     20.57           RANKING
   6      8     70       -9.70      1.08     20.90           RANKING
   6      9     74       -9.40      0.92     20.84           RANKING
   6     10     50       -8.66      1.77     20.25           RANKING
   6     11     38       -8.62      1.87     20.00           RANKING
   6     12     27       -8.56      1.87     20.06           RANKING
   7      1     47      -10.12      0.00     22.69           RANKING
   7      2     11       -9.72      1.10     23.08           RANKING
   7      3     41       -9.41      1.30     21.25           RANKING
   8      1     48       -9.96      0.00     18.40           RANKING
   8      2     85       -9.92      0.28     18.35           RANKING
   9      1     49       -9.86      0.00     17.16           RANKING
   9      2     87       -9.52      0.55     17.09           RANKING
   9      3     60       -9.46      1.54     16.80           RANKING
   9      4     95       -8.86      1.02     17.20           RANKING
   9      5     97       -8.65      1.66     16.85           RANKING
  10      1      8       -9.49      0.00     19.60           RANKING
  10      2     30       -9.15      1.43     19.64           RANKING
  10      3      2       -9.14      1.75     19.33           RANKING
  10      4     25       -9.13      0.59     19.58           RANKING
  10      5     43       -9.12      1.08     19.45           RANKING
  10      6      5       -9.12      1.60     18.69           RANKING
  10      7     90       -9.06      1.33     19.64           RANKING
  10      8     86       -9.01      1.03     19.51           RANKING
  10      9     10       -8.93      1.91     19.35           RANKING
  10     10     31       -8.93      1.82     19.31           RANKING
  10     11     45       -8.92      1.87     19.39           RANKING
  10     12     94       -8.90      1.09     19.26           RANKING
  10     13     19       -8.88      1.34     19.43           RANKING
  10     14     73       -8.86      1.93     19.34           RANKING
  10     15     42       -8.84      1.91     19.31           RANKING
  10     16     20       -8.83      1.90     19.33           RANKING
  10     17     32       -8.82      1.60     19.21           RANKING
  10     18     66       -8.75      1.91     19.32           RANKING
  10     19     62       -8.74      1.94     19.22           RANKING
  10     20     46       -8.72      1.61     18.55           RANKING
  10     21     98       -8.71      1.90     19.29           RANKING
  10     22      9       -8.71      1.91     19.25           RANKING
  10     23     23       -8.66      1.74     19.23           RANKING
  10     24    100       -8.63      1.91     19.13           RANKING
  10     25     80       -8.63      1.80     19.24           RANKING
  11      1     13       -9.48      0.00     19.01           RANKING
  12      1     78       -9.47      0.00     20.49           RANKING
  12      2     82       -9.08      1.77     20.14           RANKING
  12      3     54       -9.02      1.92     20.03           RANKING
  12      4     44       -8.98      1.80     20.19           RANKING
  12      5     14       -8.97      1.14     19.94           RANKING
  13      1     99       -9.27      0.00     19.42           RANKING
  13      2     51       -8.89      0.97     19.95           RANKING
  14      1     17       -9.02      0.00     16.72           RANKING
  15      1     35       -8.82      0.00     19.35           RANKING
  16      1     75       -8.77      0.00     19.23           RANKING
  16      2     92       -8.71      1.17     19.77           RANKING
  17      1     34       -8.52      0.00     16.94           RANKING
  17      2     57       -8.51      0.74     17.07           RANKING
_______________________________________________________________________



	INFORMATION ENTROPY ANALYSIS FOR THIS CLUSTERING
	________________________________________________


Information entropy for this clustering = 0.50  (rmstol = 2.00 Angstrom)

_______________________________________________________________________


	STATISTICAL MECHANICAL ANALYSIS
	_______________________________


Partition function, Q =   101.60            at Temperature, T = 298.15 K
Free energy,        A ~ -2737.87 kcal/mol   at Temperature, T = 298.15 K
Internal energy,    U =    -9.40 kcal/mol   at Temperature, T = 298.15 K
Entropy,            S =     9.15 kcal/mol/K at Temperature, T = 298.15 K

_______________________________________________________________________


	LOWEST ENERGY DOCKED CONFORMATION from EACH CLUSTER
	___________________________________________________



Keeping original residue number (specified in the input PDBQ file) for outputting.

MODEL        4
USER    Run = 4
USER    Cluster Rank = 1
USER    Number of conformations in this cluster = 12
USER  
USER    RMSD from reference structure       = 17.888 A
USER  
USER    Estimated Free Energy of Binding    =  -11.11 kcal/mol  [=(1)+(2)+(3)-(4)]
USER    Estimated Inhibition Constant, Ki   =    7.18 nM (nanomolar)  [Temperature = 298.15 K]
USER    
USER    (1) Final Intermolecular Energy     =  -12.90 kcal/mol
USER        vdW + Hbond + desolv Energy     =  -12.90 kcal/mol
USER        Electrostatic Energy            =   +0.00 kcal/mol
USER    (2) Final Total Internal Energy     =   -1.28 kcal/mol
USER    (3) Torsional Free Energy           =   +1.79 kcal/mol
USER    (4) Unbound System's Energy  [=(2)] =   -1.28 kcal/mol
USER    
USER    
USER  
USER    DPF = ligand_dock.biased.dpf
USER    NEWDPF move	ligand.pdbqt
USER    NEWDPF about	-0.023000 0.069000 -0.054000
USER    NEWDPF tran0	16.606106 -12.922706 1.414874
USER    NEWDPF axisangle0	0.365421 -0.343343 0.865207 40.904545
USER    NEWDPF quaternion0	0.127688 -0.119973 0.302327 0.936964
USER    NEWDPF dihe0	-167.94 12.97 136.23 -59.11 -133.05 -174.77 
USER  
USER                              x       y       z    vdW   Elec        q     RMS 
ATOM      1  N   UNL     1      16.491 -12.034   1.208 -0.44 +0.00    +0.000    17.888
ATOM      2  C   UNL     1      15.188 -12.385   0.705 -0.51 +0.00    +0.000    17.888
ATOM      3  C   UNL     1      13.989 -11.658   1.182 -0.40 +0.00    +0.000    17.888
ATOM      4  C   UNL     1      12.715 -11.971   0.676 -0.33 +0.00    +0.000    17.888
ATOM      5  C   UNL     1      11.585 -11.287   1.126 -0.36 +0.00    +0.000    17.888
ATOM      6  C   UNL     1      11.706 -10.283   2.086 -0.14 +0.00    +0.000    17.888
ATOM      7  C   UNL     1      12.965  -9.953   2.608 -0.21 +0.00    +0.000    17.888
ATOM      8  C   UNL     1      13.086  -8.945   3.574 -0.23 +0.00    +0.000    17.888
ATOM      9  C   UNL     1      14.338  -8.619   4.096 -0.32 +0.00    +0.000    17.888
ATOM     10  C   UNL     1      15.480  -9.292   3.658 -0.37 +0.00    +0.000    17.888
ATOM     11  C   UNL     1      15.386 -10.306   2.688 -0.37 +0.00    +0.000    17.888
ATOM     12  C   UNL     1      14.120 -10.642   2.156 -0.32 +0.00    +0.000    17.888
ATOM     13  O   UNL     1      15.066 -13.314  -0.141 -0.81 +0.00    +0.000    17.888
ATOM     14  C   UNL     1      16.597 -11.019   2.225 -0.46 +0.00    +0.000    17.888
ATOM     15  O   UNL     1      17.722 -10.739   2.724 -0.54 +0.00    +0.000    17.888
ATOM     16  C   UNL     1      17.683 -12.773   0.768 -0.44 +0.00    +0.000    17.888
ATOM     17  C   UNL     1      18.392 -12.013  -0.357 -0.52 -0.00    +0.000    17.888
ATOM     18  C   UNL     1      18.545 -10.528  -0.009 -0.34 -0.00    +0.000    17.888
ATOM     19  C   UNL     1      20.024 -10.113  -0.009 -0.54 -0.00    +0.000    17.888
ATOM     20  C   UNL     1      20.928 -11.180   0.625 -0.67 -0.00    +0.000    17.888
ATOM     21  O   UNL     1      20.009 -12.667   2.255 -1.62 -0.00    +0.000    17.888
ATOM     22  C   UNL     1      20.488 -11.525   2.018 -0.77 -0.00    +0.000    17.888
ATOM     23  N   UNL     1      20.641 -10.581   3.080 -0.64 -0.00    +0.000    17.888
ATOM     24  O   UNL     1      20.261 -10.899   4.339 -0.95 -0.00    +0.000    17.888
ATOM     25  H   UNL     1      21.026  -9.694   2.895 -0.60 -0.00    +0.000    17.888
TER
ENDMDL
MODEL       33
USER    Run = 33
USER    Cluster Rank = 2
USER    Number of conformations in this cluster = 4
USER  
USER    RMSD from reference structure       = 22.439 A
USER  
USER    Estimated Free Energy of Binding    =  -10.42 kcal/mol  [=(1)+(2)+(3)-(4)]
USER    Estimated Inhibition Constant, Ki   =   23.07 nM (nanomolar)  [Temperature = 298.15 K]
USER    
USER    (1) Final Intermolecular Energy     =  -12.21 kcal/mol
USER        vdW + Hbond + desolv Energy     =  -12.21 kcal/mol
USER        Electrostatic Energy            =   +0.00 kcal/mol
USER    (2) Final Total Internal Energy     =   -0.97 kcal/mol
USER    (3) Torsional Free Energy           =   +1.79 kcal/mol
USER    (4) Unbound System's Energy  [=(2)] =   -0.97 kcal/mol
USER    
USER    
USER  
USER    DPF = ligand_dock.biased.dpf
USER    NEWDPF move	ligand.pdbqt
USER    NEWDPF about	-0.023000 0.069000 -0.054000
USER    NEWDPF tran0	19.706868 -10.260516 -4.481628
USER    NEWDPF axisangle0	0.118960 0.830950 0.543480 150.463007
USER    NEWDPF quaternion0	0.115030 0.803498 0.525526 0.254914
USER    NEWDPF dihe0	4.48 -175.69 175.98 -53.33 -139.43 160.08 
USER  
USER                              x       y       z    vdW   Elec        q     RMS 
ATOM      1  N   UNL     1      20.546  -9.990  -4.219 -0.35 -0.00    +0.000    22.439
ATOM      2  C   UNL     1      21.069 -11.107  -4.962 -0.53 -0.00    +0.000    22.439
ATOM      3  C   UNL     1      22.133 -10.892  -5.971 -0.41 -0.00    +0.000    22.439
ATOM      4  C   UNL     1      22.674 -11.979  -6.680 -0.34 -0.00    +0.000    22.439
ATOM      5  C   UNL     1      23.676 -11.777  -7.631 -0.45 -0.00    +0.000    22.439
ATOM      6  C   UNL     1      24.152 -10.492  -7.890 -0.30 -0.00    +0.000    22.439
ATOM      7  C   UNL     1      23.627  -9.392  -7.197 -0.23 -0.00    +0.000    22.439
ATOM      8  C   UNL     1      24.105  -8.100  -7.459 -0.17 -0.00    +0.000    22.439
ATOM      9  C   UNL     1      23.581  -7.005  -6.772 -0.13 -0.00    +0.000    22.439
ATOM     10  C   UNL     1      22.579  -7.187  -5.817 -0.14 -0.00    +0.000    22.439
ATOM     11  C   UNL     1      22.084  -8.472  -5.535 -0.21 -0.00    +0.000    22.439
ATOM     12  C   UNL     1      22.610  -9.587  -6.228 -0.24 -0.00    +0.000    22.439
ATOM     13  O   UNL     1      20.622 -12.269  -4.756 -0.62 -0.00    +0.000    22.439
ATOM     14  C   UNL     1      21.022  -8.664  -4.522 -0.32 -0.00    +0.000    22.439
ATOM     15  O   UNL     1      20.532  -7.665  -3.927 -0.29 -0.00    +0.000    22.439
ATOM     16  C   UNL     1      19.466 -10.186  -3.242 -0.40 -0.00    +0.000    22.439
ATOM     17  C   UNL     1      20.002 -10.897  -1.996 -0.42 -0.00    +0.000    22.439
ATOM     18  C   UNL     1      21.385 -10.362  -1.607 -0.62 -0.00    +0.000    22.439
ATOM     19  C   UNL     1      21.410  -9.922  -0.136 -0.70 -0.00    +0.000    22.439
ATOM     20  C   UNL     1      20.051 -10.111   0.552 -0.56 -0.00    +0.000    22.439
ATOM     21  O   UNL     1      20.171 -12.352   1.376 -1.63 -0.00    +0.000    22.439
ATOM     22  C   UNL     1      20.122 -11.124   1.658 -0.73 -0.00    +0.000    22.439
ATOM     23  N   UNL     1      20.168 -10.703   3.023 -0.69 -0.00    +0.000    22.439
ATOM     24  O   UNL     1      20.249 -11.616   4.019 -1.19 -0.00    +0.000    22.439
ATOM     25  H   UNL     1      20.141  -9.743   3.240 -0.54 -0.00    +0.000    22.439
TER
ENDMDL
MODEL       71
USER    Run = 71
USER    Cluster Rank = 3
USER    Number of conformations in this cluster = 4
USER  
USER    RMSD from reference structure       = 18.294 A
USER  
USER    Estimated Free Energy of Binding    =  -10.38 kcal/mol  [=(1)+(2)+(3)-(4)]
USER    Estimated Inhibition Constant, Ki   =   24.80 nM (nanomolar)  [Temperature = 298.15 K]
USER    
USER    (1) Final Intermolecular Energy     =  -12.17 kcal/mol
USER        vdW + Hbond + desolv Energy     =  -12.17 kcal/mol
USER        Electrostatic Energy            =   +0.00 kcal/mol
USER    (2) Final Total Internal Energy     =   -1.25 kcal/mol
USER    (3) Torsional Free Energy           =   +1.79 kcal/mol
USER    (4) Unbound System's Energy  [=(2)] =   -1.25 kcal/mol
USER    
USER    
USER  
USER    DPF = ligand_dock.biased.dpf
USER    NEWDPF move	ligand.pdbqt
USER    NEWDPF about	-0.023000 0.069000 -0.054000
USER    NEWDPF tran0	18.209718 -11.339395 -2.796928
USER    NEWDPF axisangle0	-0.931755 -0.151434 0.330002 71.590686
USER    NEWDPF quaternion0	-0.544976 -0.088572 0.193015 0.811111
USER    NEWDPF dihe0	-15.51 -152.05 -153.37 77.79 -45.91 169.68 
USER  
USER                              x       y       z    vdW   Elec        q     RMS 
ATOM      1  N   UNL     1      17.964 -10.905  -2.024 -0.29 -0.00    +0.000    18.294
ATOM      2  C   UNL     1      17.015 -10.166  -2.816 -0.25 -0.00    +0.000    18.294
ATOM      3  C   UNL     1      15.592 -10.116  -2.410 -0.24 -0.00    +0.000    18.294
ATOM      4  C   UNL     1      14.661  -9.373  -3.157 -0.19 -0.00    +0.000    18.294
ATOM      5  C   UNL     1      13.320  -9.325  -2.775 -0.17 -0.00    +0.000    18.294
ATOM      6  C   UNL     1      12.885 -10.017  -1.645 -0.22 -0.00    +0.000    18.294
ATOM      7  C   UNL     1      13.793 -10.766  -0.883 -0.28 +0.00    +0.000    18.294
ATOM      8  C   UNL     1      13.355 -11.463   0.251 -0.35 +0.00    +0.000    18.294
ATOM      9  C   UNL     1      14.257 -12.211   1.007 -0.39 +0.00    +0.000    18.294
ATOM     10  C   UNL     1      15.603 -12.271   0.642 -0.44 +0.00    +0.000    18.294
ATOM     11  C   UNL     1      16.068 -11.579  -0.492 -0.34 +0.00    +0.000    18.294
ATOM     12  C   UNL     1      15.159 -10.820  -1.263 -0.28 -0.00    +0.000    18.294
ATOM     13  O   UNL     1      17.394  -9.563  -3.858 -0.26 -0.00    +0.000    18.294
ATOM     14  C   UNL     1      17.495 -11.643  -0.880 -0.34 -0.00    +0.000    18.294
ATOM     15  O   UNL     1      18.299 -12.347  -0.208 -0.58 -0.00    +0.000    18.294
ATOM     16  C   UNL     1      19.372 -10.992  -2.438 -0.41 -0.00    +0.000    18.294
ATOM     17  C   UNL     1      20.131  -9.736  -1.998 -0.44 -0.00    +0.000    18.294
ATOM     18  C   UNL     1      21.472 -10.101  -1.351 -0.60 -0.00    +0.000    18.294
ATOM     19  C   UNL     1      21.386 -10.007   0.180 -0.66 -0.00    +0.000    18.294
ATOM     20  C   UNL     1      19.975 -10.306   0.704 -0.59 -0.00    +0.000    18.294
ATOM     21  O   UNL     1      19.879 -12.393   1.865 -1.80 -0.00    +0.000    18.294
ATOM     22  C   UNL     1      20.008 -11.142   1.950 -0.73 -0.00    +0.000    18.294
ATOM     23  N   UNL     1      20.218 -10.531   3.225 -0.69 -0.00    +0.000    18.294
ATOM     24  O   UNL     1      20.265 -11.287   4.347 -1.04 -0.00    +0.000    18.294
ATOM     25  H   UNL     1      20.330  -9.555   3.288 -0.58 -0.00    +0.000    18.294
TER
ENDMDL
MODEL       65
USER    Run = 65
USER    Cluster Rank = 4
USER    Number of conformations in this cluster = 18
USER  
USER    RMSD from reference structure       = 19.434 A
USER  
USER    Estimated Free Energy of Binding    =  -10.34 kcal/mol  [=(1)+(2)+(3)-(4)]
USER    Estimated Inhibition Constant, Ki   =   26.38 nM (nanomolar)  [Temperature = 298.15 K]
USER    
USER    (1) Final Intermolecular Energy     =  -12.13 kcal/mol
USER        vdW + Hbond + desolv Energy     =  -12.13 kcal/mol
USER        Electrostatic Energy            =   +0.00 kcal/mol
USER    (2) Final Total Internal Energy     =   -1.04 kcal/mol
USER    (3) Torsional Free Energy           =   +1.79 kcal/mol
USER    (4) Unbound System's Energy  [=(2)] =   -1.04 kcal/mol
USER    
USER    
USER  
USER    DPF = ligand_dock.biased.dpf
USER    NEWDPF move	ligand.pdbqt
USER    NEWDPF about	-0.023000 0.069000 -0.054000
USER    NEWDPF tran0	19.594331 -12.252123 1.283447
USER    NEWDPF axisangle0	0.503903 -0.014859 -0.863633 -11.204332
USER    NEWDPF quaternion0	0.049191 -0.001451 -0.084308 -0.995224
USER    NEWDPF dihe0	-177.45 24.01 20.67 -11.35 98.46 170.97 
USER  
USER                              x       y       z    vdW   Elec        q     RMS 
ATOM      1  N   UNL     1      19.130 -11.458   1.275 -0.54 -0.00    +0.000    19.434
ATOM      2  C   UNL     1      18.271 -12.045   0.279 -0.55 -0.00    +0.000    19.434
ATOM      3  C   UNL     1      16.802 -12.038   0.471 -0.43 +0.00    +0.000    19.434
ATOM      4  C   UNL     1      15.951 -12.580  -0.508 -0.42 +0.00    +0.000    19.434
ATOM      5  C   UNL     1      14.567 -12.574  -0.327 -0.42 +0.00    +0.000    19.434
ATOM      6  C   UNL     1      14.011 -12.031   0.830 -0.41 +0.00    +0.000    19.434
ATOM      7  C   UNL     1      14.838 -11.486   1.823 -0.41 +0.00    +0.000    19.434
ATOM      8  C   UNL     1      14.279 -10.942   2.987 -0.37 +0.00    +0.000    19.434
ATOM      9  C   UNL     1      15.102 -10.403   3.976 -0.44 +0.00    +0.000    19.434
ATOM     10  C   UNL     1      16.488 -10.398   3.813 -0.26 +0.00    +0.000    19.434
ATOM     11  C   UNL     1      17.074 -10.937   2.653 -0.42 +0.00    +0.000    19.434
ATOM     12  C   UNL     1      16.246 -11.486   1.648 -0.39 +0.00    +0.000    19.434
ATOM     13  O   UNL     1      18.768 -12.566  -0.757 -0.42 -0.00    +0.000    19.434
ATOM     14  C   UNL     1      18.545 -10.933   2.481 -0.59 -0.00    +0.000    19.434
ATOM     15  O   UNL     1      19.284 -10.470   3.394 -0.67 -0.00    +0.000    19.434
ATOM     16  C   UNL     1      20.590 -11.492   1.111 -0.73 -0.00    +0.000    19.434
ATOM     17  C   UNL     1      21.049 -10.335   0.217 -0.70 -0.00    +0.000    19.434
ATOM     18  C   UNL     1      20.870 -10.679  -1.266 -0.55 -0.00    +0.000    19.434
ATOM     19  C   UNL     1      21.068  -9.435  -2.145 -0.56 -0.00    +0.000    19.434
ATOM     20  C   UNL     1      20.356  -9.561  -3.499 -0.42 -0.00    +0.000    19.434
ATOM     21  O   UNL     1      19.663 -11.776  -4.068 -0.53 -0.00    +0.000    19.434
ATOM     22  C   UNL     1      20.576 -10.909  -4.121 -0.51 -0.00    +0.000    19.434
ATOM     23  N   UNL     1      21.800 -11.202  -4.800 -0.52 -0.00    +0.000    19.434
ATOM     24  O   UNL     1      21.991 -12.412  -5.375 -0.83 -0.00    +0.000    19.434
ATOM     25  H   UNL     1      22.507 -10.519  -4.850 -0.03 -0.00    +0.000    19.434
TER
ENDMDL
MODEL       88
USER    Run = 88
USER    Cluster Rank = 5
USER    Number of conformations in this cluster = 1
USER  
USER    RMSD from reference structure       = 19.728 A
USER  
USER    Estimated Free Energy of Binding    =  -10.24 kcal/mol  [=(1)+(2)+(3)-(4)]
USER    Estimated Inhibition Constant, Ki   =   31.31 nM (nanomolar)  [Temperature = 298.15 K]
USER    
USER    (1) Final Intermolecular Energy     =  -12.03 kcal/mol
USER        vdW + Hbond + desolv Energy     =  -12.03 kcal/mol
USER        Electrostatic Energy            =   +0.00 kcal/mol
USER    (2) Final Total Internal Energy     =   -0.89 kcal/mol
USER    (3) Torsional Free Energy           =   +1.79 kcal/mol
USER    (4) Unbound System's Energy  [=(2)] =   -0.89 kcal/mol
USER    
USER    
USER  
USER    DPF = ligand_dock.biased.dpf
USER    NEWDPF move	ligand.pdbqt
USER    NEWDPF about	-0.023000 0.069000 -0.054000
USER    NEWDPF tran0	20.442705 -9.813963 -1.842623
USER    NEWDPF axisangle0	-0.834128 -0.025116 0.550998 -146.249539
USER    NEWDPF quaternion0	-0.798210 -0.024034 0.527272 -0.290289
USER    NEWDPF dihe0	112.14 163.91 -85.82 -20.27 -105.08 -9.38 
USER  
USER                              x       y       z    vdW   Elec        q     RMS 
ATOM      1  N   UNL     1      20.063 -10.634  -1.673 -0.47 -0.00    +0.000    19.728
ATOM      2  C   UNL     1      20.743 -10.617  -0.404 -0.66 -0.00    +0.000    19.728
ATOM      3  C   UNL     1      19.983 -10.842   0.847 -0.59 -0.00    +0.000    19.728
ATOM      4  C   UNL     1      20.641 -10.858   2.090 -0.56 -0.00    +0.000    19.728
ATOM      5  C   UNL     1      19.925 -11.070   3.269 -0.64 -0.00    +0.000    19.728
ATOM      6  C   UNL     1      18.545 -11.267   3.229 -0.39 -0.00    +0.000    19.728
ATOM      7  C   UNL     1      17.866 -11.255   2.002 -0.44 +0.00    +0.000    19.728
ATOM      8  C   UNL     1      16.479 -11.451   1.962 -0.38 +0.00    +0.000    19.728
ATOM      9  C   UNL     1      15.802 -11.435   0.743 -0.36 +0.00    +0.000    19.728
ATOM     10  C   UNL     1      16.500 -11.226  -0.448 -0.32 +0.00    +0.000    19.728
ATOM     11  C   UNL     1      17.892 -11.027  -0.434 -0.36 -0.00    +0.000    19.728
ATOM     12  C   UNL     1      18.585 -11.041   0.798 -0.46 -0.00    +0.000    19.728
ATOM     13  O   UNL     1      21.987 -10.408  -0.356 -0.75 -0.00    +0.000    19.728
ATOM     14  C   UNL     1      18.633 -10.804  -1.697 -0.40 -0.00    +0.000    19.728
ATOM     15  O   UNL     1      18.008 -10.761  -2.794 -0.29 -0.00    +0.000    19.728
ATOM     16  C   UNL     1      20.801 -10.376  -2.918 -0.53 -0.00    +0.000    19.728
ATOM     17  C   UNL     1      20.648  -8.908  -3.329 -0.42 -0.00    +0.000    19.728
ATOM     18  C   UNL     1      21.502  -7.994  -2.443 -0.42 -0.00    +0.000    19.728
ATOM     19  C   UNL     1      21.749  -6.641  -3.127 -0.33 -0.00    +0.000    19.728
ATOM     20  C   UNL     1      20.771  -5.560  -2.646 -0.36 -0.00    +0.000    19.728
ATOM     21  O   UNL     1      22.599  -4.521  -1.509 -0.80 +0.00    +0.000    19.728
ATOM     22  C   UNL     1      21.357  -4.732  -1.539 -0.44 +0.00    +0.000    19.728
ATOM     23  N   UNL     1      20.510  -4.157  -0.540 -0.47 +0.00    +0.000    19.728
ATOM     24  O   UNL     1      21.036  -3.397   0.448 -1.12 +0.00    +0.000    19.728
ATOM     25  H   UNL     1      19.539  -4.314  -0.572 -0.06 -0.00    +0.000    19.728
TER
ENDMDL
MODEL       72
USER    Run = 72
USER    Cluster Rank = 6
USER    Number of conformations in this cluster = 12
USER  
USER    RMSD from reference structure       = 20.905 A
USER  
USER    Estimated Free Energy of Binding    =  -10.20 kcal/mol  [=(1)+(2)+(3)-(4)]
USER    Estimated Inhibition Constant, Ki   =   33.49 nM (nanomolar)  [Temperature = 298.15 K]
USER    
USER    (1) Final Intermolecular Energy     =  -11.99 kcal/mol
USER        vdW + Hbond + desolv Energy     =  -11.99 kcal/mol
USER        Electrostatic Energy            =   +0.00 kcal/mol
USER    (2) Final Total Internal Energy     =   -0.94 kcal/mol
USER    (3) Torsional Free Energy           =   +1.79 kcal/mol
USER    (4) Unbound System's Energy  [=(2)] =   -0.94 kcal/mol
USER    
USER    
USER  
USER    DPF = ligand_dock.biased.dpf
USER    NEWDPF move	ligand.pdbqt
USER    NEWDPF about	-0.023000 0.069000 -0.054000
USER    NEWDPF tran0	20.173341 -9.281349 -2.107536
USER    NEWDPF axisangle0	-0.809545 -0.096661 0.579046 -147.836918
USER    NEWDPF quaternion0	-0.777866 -0.092878 0.556387 -0.277005
USER    NEWDPF dihe0	-107.17 147.10 -166.31 -99.99 -89.60 175.98 
USER  
USER                              x       y       z    vdW   Elec        q     RMS 
ATOM      1  N   UNL     1      19.918 -10.156  -1.982 -0.43 -0.00    +0.000    20.905
ATOM      2  C   UNL     1      20.629 -10.118  -0.730 -0.64 -0.00    +0.000    20.905
ATOM      3  C   UNL     1      19.948 -10.523   0.521 -0.55 -0.00    +0.000    20.905
ATOM      4  C   UNL     1      20.640 -10.519   1.745 -0.48 -0.00    +0.000    20.905
ATOM      5  C   UNL     1      19.999 -10.901   2.924 -0.65 -0.00    +0.000    20.905
ATOM      6  C   UNL     1      18.660 -11.290   2.903 -0.46 -0.00    +0.000    20.905
ATOM      7  C   UNL     1      17.947 -11.301   1.696 -0.45 +0.00    +0.000    20.905
ATOM      8  C   UNL     1      16.601 -11.690   1.675 -0.38 +0.00    +0.000    20.905
ATOM      9  C   UNL     1      15.890 -11.697   0.475 -0.38 +0.00    +0.000    20.905
ATOM     10  C   UNL     1      16.514 -11.320  -0.715 -0.31 +0.00    +0.000    20.905
ATOM     11  C   UNL     1      17.865 -10.927  -0.721 -0.34 -0.00    +0.000    20.905
ATOM     12  C   UNL     1      18.591 -10.916   0.491 -0.44 -0.00    +0.000    20.905
ATOM     13  O   UNL     1      21.832  -9.737  -0.698 -0.68 -0.00    +0.000    20.905
ATOM     14  C   UNL     1      18.526 -10.526  -1.984 -0.35 -0.00    +0.000    20.905
ATOM     15  O   UNL     1      17.867 -10.507  -3.061 -0.32 -0.00    +0.000    20.905
ATOM     16  C   UNL     1      20.573  -9.721  -3.224 -0.47 -0.00    +0.000    20.905
ATOM     17  C   UNL     1      21.307 -10.898  -3.875 -0.51 -0.00    +0.000    20.905
ATOM     18  C   UNL     1      20.394 -11.646  -4.853 -0.52 -0.00    +0.000    20.905
ATOM     19  C   UNL     1      20.316 -10.913  -6.201 -0.36 -0.00    +0.000    20.905
ATOM     20  C   UNL     1      21.450  -9.894  -6.376 -0.31 -0.00    +0.000    20.905
ATOM     21  O   UNL     1      23.734  -9.849  -7.077 -0.33 -0.00    +0.000    20.905
ATOM     22  C   UNL     1      22.741 -10.557  -6.758 -0.37 -0.00    +0.000    20.905
ATOM     23  N   UNL     1      22.859 -11.981  -6.731 -0.53 -0.00    +0.000    20.905
ATOM     24  O   UNL     1      24.028 -12.578  -7.060 -1.14 +0.00    +0.000    20.905
ATOM     25  H   UNL     1      22.085 -12.531  -6.471 -0.58 -0.00    +0.000    20.905
TER
ENDMDL
MODEL       47
USER    Run = 47
USER    Cluster Rank = 7
USER    Number of conformations in this cluster = 3
USER  
USER    RMSD from reference structure       = 22.692 A
USER  
USER    Estimated Free Energy of Binding    =  -10.12 kcal/mol  [=(1)+(2)+(3)-(4)]
USER    Estimated Inhibition Constant, Ki   =   38.44 nM (nanomolar)  [Temperature = 298.15 K]
USER    
USER    (1) Final Intermolecular Energy     =  -11.91 kcal/mol
USER        vdW + Hbond + desolv Energy     =  -11.91 kcal/mol
USER        Electrostatic Energy            =   +0.00 kcal/mol
USER    (2) Final Total Internal Energy     =   -0.67 kcal/mol
USER    (3) Torsional Free Energy           =   +1.79 kcal/mol
USER    (4) Unbound System's Energy  [=(2)] =   -0.67 kcal/mol
USER    
USER    
USER  
USER    DPF = ligand_dock.biased.dpf
USER    NEWDPF move	ligand.pdbqt
USER    NEWDPF about	-0.023000 0.069000 -0.054000
USER    NEWDPF tran0	20.236032 -10.424277 -5.129899
USER    NEWDPF axisangle0	0.563890 0.095611 0.820296 178.509037
USER    NEWDPF quaternion0	0.563843 0.095603 0.820227 0.013011
USER    NEWDPF dihe0	128.36 -87.70 17.14 79.78 71.49 -6.60 
USER  
USER                              x       y       z    vdW   Elec        q     RMS 
ATOM      1  N   UNL     1      20.467 -11.176  -5.607 -0.42 -0.00    +0.000    22.692
ATOM      2  C   UNL     1      19.779 -10.597  -6.731 -0.32 -0.00    +0.000    22.692
ATOM      3  C   UNL     1      20.469 -10.470  -8.036 -0.23 -0.00    +0.000    22.692
ATOM      4  C   UNL     1      19.799  -9.935  -9.150 -0.14 -0.00    +0.000    22.692
ATOM      5  C   UNL     1      20.449  -9.815 -10.379 -0.11 -0.00    +0.000    22.692
ATOM      6  C   UNL     1      21.774 -10.224 -10.517 -0.11 -0.00    +0.000    22.692
ATOM      7  C   UNL     1      22.466 -10.760  -9.421 -0.19 -0.00    +0.000    22.692
ATOM      8  C   UNL     1      23.799 -11.169  -9.560 -0.20 -0.00    +0.000    22.692
ATOM      9  C   UNL     1      24.488 -11.699  -8.469 -0.40 -0.00    +0.000    22.692
ATOM     10  C   UNL     1      23.855 -11.828  -7.231 -0.40 -0.00    +0.000    22.692
ATOM     11  C   UNL     1      22.518 -11.426  -7.067 -0.38 -0.00    +0.000    22.692
ATOM     12  C   UNL     1      21.813 -10.887  -8.167 -0.26 -0.00    +0.000    22.692
ATOM     13  O   UNL     1      18.589 -10.196  -6.607 -0.24 -0.00    +0.000    22.692
ATOM     14  C   UNL     1      21.847 -11.562  -5.754 -0.52 -0.00    +0.000    22.692
ATOM     15  O   UNL     1      22.487 -12.014  -4.764 -0.50 -0.00    +0.000    22.692
ATOM     16  C   UNL     1      19.804 -11.274  -4.298 -0.50 -0.00    +0.000    22.692
ATOM     17  C   UNL     1      20.158 -10.060  -3.434 -0.44 -0.00    +0.000    22.692
ATOM     18  C   UNL     1      21.101 -10.453  -2.290 -0.57 -0.00    +0.000    22.692
ATOM     19  C   UNL     1      20.327 -10.624  -0.975 -0.57 -0.00    +0.000    22.692
ATOM     20  C   UNL     1      21.239 -10.521   0.255 -0.66 -0.00    +0.000    22.692
ATOM     21  O   UNL     1      20.203 -12.395   1.316 -1.58 -0.00    +0.000    22.692
ATOM     22  C   UNL     1      20.653 -11.225   1.445 -0.73 -0.00    +0.000    22.692
ATOM     23  N   UNL     1      20.633 -10.589   2.724 -0.62 -0.00    +0.000    22.692
ATOM     24  O   UNL     1      20.119 -11.230   3.800 -1.22 -0.00    +0.000    22.692
ATOM     25  H   UNL     1      20.995  -9.679   2.825 -0.60 -0.00    +0.000    22.692
TER
ENDMDL
MODEL       48
USER    Run = 48
USER    Cluster Rank = 8
USER    Number of conformations in this cluster = 2
USER  
USER    RMSD from reference structure       = 18.402 A
USER  
USER    Estimated Free Energy of Binding    =   -9.96 kcal/mol  [=(1)+(2)+(3)-(4)]
USER    Estimated Inhibition Constant, Ki   =   49.83 nM (nanomolar)  [Temperature = 298.15 K]
USER    
USER    (1) Final Intermolecular Energy     =  -11.75 kcal/mol
USER        vdW + Hbond + desolv Energy     =  -11.75 kcal/mol
USER        Electrostatic Energy            =   +0.00 kcal/mol
USER    (2) Final Total Internal Energy     =   -0.89 kcal/mol
USER    (3) Torsional Free Energy           =   +1.79 kcal/mol
USER    (4) Unbound System's Energy  [=(2)] =   -0.89 kcal/mol
USER    
USER    
USER  
USER    DPF = ligand_dock.biased.dpf
USER    NEWDPF move	ligand.pdbqt
USER    NEWDPF about	-0.023000 0.069000 -0.054000
USER    NEWDPF tran0	15.227023 -11.921137 2.406345
USER    NEWDPF axisangle0	-0.171244 0.953697 -0.247258 166.418251
USER    NEWDPF quaternion0	-0.170043 0.947007 -0.245524 0.118246
USER    NEWDPF dihe0	124.75 -127.78 -75.29 -2.73 -138.99 146.65 
USER  
USER                              x       y       z    vdW   Elec        q     RMS 
ATOM      1  N   UNL     1      15.513 -11.149   1.996 -0.38 +0.00    +0.000    18.402
ATOM      2  C   UNL     1      16.632 -11.157   2.902 -0.43 +0.00    +0.000    18.402
ATOM      3  C   UNL     1      18.013 -11.061   2.373 -0.45 +0.00    +0.000    18.402
ATOM      4  C   UNL     1      19.113 -11.036   3.249 -0.55 -0.00    +0.000    18.402
ATOM      5  C   UNL     1      20.414 -10.946   2.751 -0.59 -0.00    +0.000    18.402
ATOM      6  C   UNL     1      20.639 -10.879   1.377 -0.62 -0.00    +0.000    18.402
ATOM      7  C   UNL     1      19.559 -10.903   0.483 -0.53 -0.00    +0.000    18.402
ATOM      8  C   UNL     1      19.785 -10.838  -0.899 -0.46 -0.00    +0.000    18.402
ATOM      9  C   UNL     1      18.711 -10.865  -1.789 -0.36 -0.00    +0.000    18.402
ATOM     10  C   UNL     1      17.403 -10.955  -1.311 -0.26 -0.00    +0.000    18.402
ATOM     11  C   UNL     1      17.149 -11.020   0.071 -0.34 -0.00    +0.000    18.402
ATOM     12  C   UNL     1      18.232 -10.994   0.979 -0.43 -0.00    +0.000    18.402
ATOM     13  O   UNL     1      16.439 -11.249   4.146 -0.62 +0.00    +0.000    18.402
ATOM     14  C   UNL     1      15.761 -11.115   0.578 -0.37 +0.00    +0.000    18.402
ATOM     15  O   UNL     1      14.797 -11.170  -0.235 -0.32 +0.00    +0.000    18.402
ATOM     16  C   UNL     1      14.141 -11.281   2.507 -0.45 +0.00    +0.000    18.402
ATOM     17  C   UNL     1      13.830 -10.145   3.487 -0.35 +0.00    +0.000    18.402
ATOM     18  C   UNL     1      14.396  -8.812   2.986 -0.31 +0.00    +0.000    18.402
ATOM     19  C   UNL     1      14.031  -7.666   3.941 -0.30 +0.00    +0.000    18.402
ATOM     20  C   UNL     1      15.240  -7.170   4.745 -0.44 +0.00    +0.000    18.402
ATOM     21  O   UNL     1      13.884  -5.606   5.939 -1.04 +0.00    +0.000    18.402
ATOM     22  C   UNL     1      14.984  -5.827   5.366 -0.45 +0.00    +0.000    18.402
ATOM     23  N   UNL     1      15.991  -4.813   5.338 -0.45 -0.00    +0.000    18.402
ATOM     24  O   UNL     1      15.767  -3.609   5.912 -0.64 +0.00    +0.000    18.402
ATOM     25  H   UNL     1      16.854  -4.992   4.899 -0.60 -0.00    +0.000    18.402
TER
ENDMDL
MODEL       49
USER    Run = 49
USER    Cluster Rank = 9
USER    Number of conformations in this cluster = 5
USER  
USER    RMSD from reference structure       = 17.160 A
USER  
USER    Estimated Free Energy of Binding    =   -9.86 kcal/mol  [=(1)+(2)+(3)-(4)]
USER    Estimated Inhibition Constant, Ki   =   59.43 nM (nanomolar)  [Temperature = 298.15 K]
USER    
USER    (1) Final Intermolecular Energy     =  -11.65 kcal/mol
USER        vdW + Hbond + desolv Energy     =  -11.65 kcal/mol
USER        Electrostatic Energy            =   +0.00 kcal/mol
USER    (2) Final Total Internal Energy     =   -1.18 kcal/mol
USER    (3) Torsional Free Energy           =   +1.79 kcal/mol
USER    (4) Unbound System's Energy  [=(2)] =   -1.18 kcal/mol
USER    
USER    
USER  
USER    DPF = ligand_dock.biased.dpf
USER    NEWDPF move	ligand.pdbqt
USER    NEWDPF about	-0.023000 0.069000 -0.054000
USER    NEWDPF tran0	13.860815 -11.805353 0.462549
USER    NEWDPF axisangle0	-0.274116 0.032023 0.961163 103.963655
USER    NEWDPF quaternion0	-0.215953 0.025228 0.757219 0.615911
USER    NEWDPF dihe0	166.92 -90.08 -39.78 -95.22 171.35 174.98 
USER  
USER                              x       y       z    vdW   Elec        q     RMS 
ATOM      1  N   UNL     1      14.623 -11.397   0.777 -0.34 +0.00    +0.000    17.160
ATOM      2  C   UNL     1      14.310 -10.289  -0.088 -0.27 +0.00    +0.000    17.160
ATOM      3  C   UNL     1      14.247  -8.915   0.461 -0.21 +0.00    +0.000    17.160
ATOM      4  C   UNL     1      13.974  -7.822  -0.379 -0.20 -0.00    +0.000    17.160
ATOM      5  C   UNL     1      13.914  -6.527   0.138 -0.18 -0.00    +0.000    17.160
ATOM      6  C   UNL     1      14.123  -6.302   1.498 -0.19 -0.00    +0.000    17.160
ATOM      7  C   UNL     1      14.396  -7.376   2.358 -0.23 +0.00    +0.000    17.160
ATOM      8  C   UNL     1      14.605  -7.150   3.725 -0.30 +0.00    +0.000    17.160
ATOM      9  C   UNL     1      14.873  -8.218   4.581 -0.30 +0.00    +0.000    17.160
ATOM     10  C   UNL     1      14.938  -9.520   4.082 -0.38 +0.00    +0.000    17.160
ATOM     11  C   UNL     1      14.734  -9.773   2.714 -0.31 +0.00    +0.000    17.160
ATOM     12  C   UNL     1      14.461  -8.696   1.841 -0.23 +0.00    +0.000    17.160
ATOM     13  O   UNL     1      14.089 -10.488  -1.315 -0.27 -0.00    +0.000    17.160
ATOM     14  C   UNL     1      14.802 -11.155   2.186 -0.45 +0.00    +0.000    17.160
ATOM     15  O   UNL     1      15.015 -12.120   2.972 -0.60 +0.00    +0.000    17.160
ATOM     16  C   UNL     1      14.652 -12.769   0.249 -0.49 +0.00    +0.000    17.160
ATOM     17  C   UNL     1      16.042 -13.091  -0.309 -0.52 +0.00    +0.000    17.160
ATOM     18  C   UNL     1      16.923 -11.838  -0.355 -0.44 +0.00    +0.000    17.160
ATOM     19  C   UNL     1      17.613 -11.602   0.997 -0.51 +0.00    +0.000    17.160
ATOM     20  C   UNL     1      19.037 -11.053   0.836 -0.57 -0.00    +0.000    17.160
ATOM     21  O   UNL     1      20.491 -12.393   2.178 -1.86 -0.00    +0.000    17.160
ATOM     22  C   UNL     1      19.872 -11.302   2.058 -0.73 -0.00    +0.000    17.160
ATOM     23  N   UNL     1      19.994 -10.297   3.068 -0.61 -0.00    +0.000    17.160
ATOM     24  O   UNL     1      20.760 -10.515   4.162 -0.93 -0.00    +0.000    17.160
ATOM     25  H   UNL     1      19.519  -9.441   2.967 -0.54 -0.00    +0.000    17.160
TER
ENDMDL
MODEL        8
USER    Run = 8
USER    Cluster Rank = 10
USER    Number of conformations in this cluster = 25
USER  
USER    RMSD from reference structure       = 19.604 A
USER  
USER    Estimated Free Energy of Binding    =   -9.49 kcal/mol  [=(1)+(2)+(3)-(4)]
USER    Estimated Inhibition Constant, Ki   =  110.40 nM (nanomolar)  [Temperature = 298.15 K]
USER    
USER    (1) Final Intermolecular Energy     =  -11.28 kcal/mol
USER        vdW + Hbond + desolv Energy     =  -11.28 kcal/mol
USER        Electrostatic Energy            =   +0.00 kcal/mol
USER    (2) Final Total Internal Energy     =   -1.93 kcal/mol
USER    (3) Torsional Free Energy           =   +1.79 kcal/mol
USER    (4) Unbound System's Energy  [=(2)] =   -1.93 kcal/mol
USER    
USER    
USER  
USER    DPF = ligand_dock.biased.dpf
USER    NEWDPF move	ligand.pdbqt
USER    NEWDPF about	-0.023000 0.069000 -0.054000
USER    NEWDPF tran0	15.664099 -11.419639 -0.088440
USER    NEWDPF axisangle0	0.252361 0.066681 0.965333 162.053369
USER    NEWDPF quaternion0	0.249272 0.065865 0.953518 0.155974
USER    NEWDPF dihe0	113.38 -163.27 35.19 -82.21 87.65 6.31 
USER  
USER                              x       y       z    vdW   Elec        q     RMS 
ATOM      1  N   UNL     1      16.347 -11.940  -0.418 -0.38 +0.00    +0.000    19.604
ATOM      2  C   UNL     1      16.272 -11.161  -1.627 -0.16 -0.00    +0.000    19.604
ATOM      3  C   UNL     1      17.492 -10.527  -2.177 -0.21 -0.00    +0.000    19.604
ATOM      4  C   UNL     1      17.437  -9.790  -3.373 -0.20 -0.00    +0.000    19.604
ATOM      5  C   UNL     1      18.587  -9.192  -3.892 -0.20 -0.00    +0.000    19.604
ATOM      6  C   UNL     1      19.806  -9.317  -3.227 -0.29 -0.00    +0.000    19.604
ATOM      7  C   UNL     1      19.887 -10.046  -2.032 -0.39 -0.00    +0.000    19.604
ATOM      8  C   UNL     1      21.113 -10.170  -1.363 -0.57 -0.00    +0.000    19.604
ATOM      9  C   UNL     1      21.193 -10.892  -0.173 -0.56 -0.00    +0.000    19.604
ATOM     10  C   UNL     1      20.054 -11.499   0.362 -0.51 -0.00    +0.000    19.604
ATOM     11  C   UNL     1      18.813 -11.389  -0.291 -0.45 -0.00    +0.000    19.604
ATOM     12  C   UNL     1      18.724 -10.659  -1.497 -0.33 -0.00    +0.000    19.604
ATOM     13  O   UNL     1      15.166 -11.016  -2.218 -0.31 -0.00    +0.000    19.604
ATOM     14  C   UNL     1      17.606 -12.032   0.276 -0.53 +0.00    +0.000    19.604
ATOM     15  O   UNL     1      17.681 -12.658   1.370 -0.80 +0.00    +0.000    19.604
ATOM     16  C   UNL     1      15.136 -12.543   0.156 -0.53 +0.00    +0.000    19.604
ATOM     17  C   UNL     1      14.361 -11.502   0.969 -0.42 +0.00    +0.000    19.604
ATOM     18  C   UNL     1      14.774 -11.532   2.444 -0.50 +0.00    +0.000    19.604
ATOM     19  C   UNL     1      15.805 -10.435   2.749 -0.45 +0.00    +0.000    19.604
ATOM     20  C   UNL     1      16.884 -10.906   3.733 -0.37 +0.00    +0.000    19.604
ATOM     21  O   UNL     1      18.482  -9.636   2.489 -0.60 -0.00    +0.000    19.604
ATOM     22  C   UNL     1      18.267 -10.649   3.208 -0.42 -0.00    +0.000    19.604
ATOM     23  N   UNL     1      19.344 -11.525   3.547 -0.63 -0.00    +0.000    19.604
ATOM     24  O   UNL     1      20.594 -11.284   3.088 -1.45 -0.00    +0.000    19.604
ATOM     25  H   UNL     1      19.176 -12.309   4.118 -0.03 -0.00    +0.000    19.604
TER
ENDMDL
MODEL       13
USER    Run = 13
USER    Cluster Rank = 11
USER    Number of conformations in this cluster = 1
USER  
USER    RMSD from reference structure       = 19.014 A
USER  
USER    Estimated Free Energy of Binding    =   -9.48 kcal/mol  [=(1)+(2)+(3)-(4)]
USER    Estimated Inhibition Constant, Ki   =  111.89 nM (nanomolar)  [Temperature = 298.15 K]
USER    
USER    (1) Final Intermolecular Energy     =  -11.27 kcal/mol
USER        vdW + Hbond + desolv Energy     =  -11.27 kcal/mol
USER        Electrostatic Energy            =   +0.00 kcal/mol
USER    (2) Final Total Internal Energy     =   -0.74 kcal/mol
USER    (3) Torsional Free Energy           =   +1.79 kcal/mol
USER    (4) Unbound System's Energy  [=(2)] =   -0.74 kcal/mol
USER    
USER    
USER  
USER    DPF = ligand_dock.biased.dpf
USER    NEWDPF move	ligand.pdbqt
USER    NEWDPF about	-0.023000 0.069000 -0.054000
USER    NEWDPF tran0	17.221903 -12.283625 1.030103
USER    NEWDPF axisangle0	-0.309612 0.942824 -0.123385 143.819100
USER    NEWDPF quaternion0	-0.294307 0.896218 -0.117285 0.310518
USER    NEWDPF dihe0	-165.37 -83.20 -170.66 9.53 19.67 170.30 
USER  
USER                              x       y       z    vdW   Elec        q     RMS 
ATOM      1  N   UNL     1      17.216 -11.424   0.704 -0.40 +0.00    +0.000    19.014
ATOM      2  C   UNL     1      18.628 -11.376   0.982 -0.56 -0.00    +0.000    19.014
ATOM      3  C   UNL     1      19.579 -10.974  -0.080 -0.50 -0.00    +0.000    19.014
ATOM      4  C   UNL     1      20.957 -10.893   0.187 -0.61 -0.00    +0.000    19.014
ATOM      5  C   UNL     1      21.853 -10.516  -0.814 -0.43 -0.00    +0.000    19.014
ATOM      6  C   UNL     1      21.392 -10.215  -2.095 -0.51 -0.00    +0.000    19.014
ATOM      7  C   UNL     1      20.022 -10.289  -2.387 -0.43 -0.00    +0.000    19.014
ATOM      8  C   UNL     1      19.559  -9.988  -3.675 -0.33 -0.00    +0.000    19.014
ATOM      9  C   UNL     1      18.197 -10.065  -3.968 -0.26 -0.00    +0.000    19.014
ATOM     10  C   UNL     1      17.285 -10.440  -2.980 -0.13 -0.00    +0.000    19.014
ATOM     11  C   UNL     1      17.724 -10.746  -1.679 -0.23 -0.00    +0.000    19.014
ATOM     12  C   UNL     1      19.103 -10.671  -1.376 -0.38 -0.00    +0.000    19.014
ATOM     13  O   UNL     1      19.057 -11.677   2.130 -1.09 -0.00    +0.000    19.014
ATOM     14  C   UNL     1      16.756 -11.144  -0.632 -0.37 -0.00    +0.000    19.014
ATOM     15  O   UNL     1      15.530 -11.241  -0.913 -0.33 +0.00    +0.000    19.014
ATOM     16  C   UNL     1      16.267 -11.855   1.741 -0.44 +0.00    +0.000    19.014
ATOM     17  C   UNL     1      15.930 -10.685   2.670 -0.47 +0.00    +0.000    19.014
ATOM     18  C   UNL     1      15.358 -11.184   4.001 -0.50 +0.00    +0.000    19.014
ATOM     19  C   UNL     1      14.797 -10.018   4.830 -0.39 +0.00    +0.000    19.014
ATOM     20  C   UNL     1      14.670  -8.728   4.008 -0.39 +0.00    +0.000    19.014
ATOM     21  O   UNL     1      15.776  -6.731   4.716 -0.55 +0.00    +0.000    19.014
ATOM     22  C   UNL     1      14.793  -7.504   4.869 -0.42 +0.00    +0.000    19.014
ATOM     23  N   UNL     1      13.786  -7.196   5.836 -0.44 +0.00    +0.000    19.014
ATOM     24  O   UNL     1      13.888  -6.084   6.600 -1.10 +0.00    +0.000    19.014
ATOM     25  H   UNL     1      13.013  -7.796   5.945 -0.02 +0.00    +0.000    19.014
TER
ENDMDL
MODEL       78
USER    Run = 78
USER    Cluster Rank = 12
USER    Number of conformations in this cluster = 5
USER  
USER    RMSD from reference structure       = 20.492 A
USER  
USER    Estimated Free Energy of Binding    =   -9.47 kcal/mol  [=(1)+(2)+(3)-(4)]
USER    Estimated Inhibition Constant, Ki   =  113.58 nM (nanomolar)  [Temperature = 298.15 K]
USER    
USER    (1) Final Intermolecular Energy     =  -11.26 kcal/mol
USER        vdW + Hbond + desolv Energy     =  -11.26 kcal/mol
USER        Electrostatic Energy            =   +0.00 kcal/mol
USER    (2) Final Total Internal Energy     =   -1.23 kcal/mol
USER    (3) Torsional Free Energy           =   +1.79 kcal/mol
USER    (4) Unbound System's Energy  [=(2)] =   -1.23 kcal/mol
USER    
USER    
USER  
USER    DPF = ligand_dock.biased.dpf
USER    NEWDPF move	ligand.pdbqt
USER    NEWDPF about	-0.023000 0.069000 -0.054000
USER    NEWDPF tran0	18.926986 -11.396750 -1.144449
USER    NEWDPF axisangle0	0.273739 -0.950466 0.147243 -110.199110
USER    NEWDPF quaternion0	0.224507 -0.779523 0.120761 -0.572152
USER    NEWDPF dihe0	-179.09 166.42 86.03 158.38 24.99 -36.13 
USER  
USER                              x       y       z    vdW   Elec        q     RMS 
ATOM      1  N   UNL     1      18.798 -10.626  -1.630 -0.37 -0.00    +0.000    20.492
ATOM      2  C   UNL     1      20.152 -10.769  -2.097 -0.45 -0.00    +0.000    20.492
ATOM      3  C   UNL     1      20.441 -10.746  -3.550 -0.43 -0.00    +0.000    20.492
ATOM      4  C   UNL     1      21.763 -10.852  -4.017 -0.41 -0.00    +0.000    20.492
ATOM      5  C   UNL     1      22.035 -10.832  -5.386 -0.38 -0.00    +0.000    20.492
ATOM      6  C   UNL     1      20.998 -10.706  -6.308 -0.33 -0.00    +0.000    20.492
ATOM      7  C   UNL     1      19.670 -10.599  -5.868 -0.32 -0.00    +0.000    20.492
ATOM      8  C   UNL     1      18.627 -10.474  -6.795 -0.27 -0.00    +0.000    20.492
ATOM      9  C   UNL     1      17.307 -10.372  -6.358 -0.23 -0.00    +0.000    20.492
ATOM     10  C   UNL     1      17.014 -10.390  -4.993 -0.22 -0.00    +0.000    20.492
ATOM     11  C   UNL     1      18.043 -10.513  -4.042 -0.23 -0.00    +0.000    20.492
ATOM     12  C   UNL     1      19.383 -10.618  -4.478 -0.35 -0.00    +0.000    20.492
ATOM     13  O   UNL     1      21.094 -10.914  -1.270 -0.62 -0.00    +0.000    20.492
ATOM     14  C   UNL     1      17.732 -10.532  -2.595 -0.23 -0.00    +0.000    20.492
ATOM     15  O   UNL     1      16.532 -10.470  -2.208 -0.31 -0.00    +0.000    20.492
ATOM     16  C   UNL     1      18.496 -10.684  -0.193 -0.38 -0.00    +0.000    20.492
ATOM     17  C   UNL     1      17.463 -11.780   0.088 -0.49 +0.00    +0.000    20.492
ATOM     18  C   UNL     1      16.684 -11.488   1.375 -0.45 +0.00    +0.000    20.492
ATOM     19  C   UNL     1      17.464 -10.526   2.283 -0.49 +0.00    +0.000    20.492
ATOM     20  C   UNL     1      18.374 -11.267   3.272 -0.39 +0.00    +0.000    20.492
ATOM     21  O   UNL     1      20.649 -10.535   3.242 -1.11 -0.00    +0.000    20.492
ATOM     22  C   UNL     1      19.792 -11.335   2.781 -0.74 -0.00    +0.000    20.492
ATOM     23  N   UNL     1      20.178 -12.322   1.821 -0.71 -0.00    +0.000    20.492
ATOM     24  O   UNL     1      21.459 -12.394   1.391 -0.99 -0.00    +0.000    20.492
ATOM     25  H   UNL     1      19.508 -12.953   1.471 -0.34 -0.00    +0.000    20.492
TER
ENDMDL
MODEL       99
USER    Run = 99
USER    Cluster Rank = 13
USER    Number of conformations in this cluster = 2
USER  
USER    RMSD from reference structure       = 19.419 A
USER  
USER    Estimated Free Energy of Binding    =   -9.27 kcal/mol  [=(1)+(2)+(3)-(4)]
USER    Estimated Inhibition Constant, Ki   =  160.84 nM (nanomolar)  [Temperature = 298.15 K]
USER    
USER    (1) Final Intermolecular Energy     =  -11.06 kcal/mol
USER        vdW + Hbond + desolv Energy     =  -11.06 kcal/mol
USER        Electrostatic Energy            =   +0.00 kcal/mol
USER    (2) Final Total Internal Energy     =   -1.90 kcal/mol
USER    (3) Torsional Free Energy           =   +1.79 kcal/mol
USER    (4) Unbound System's Energy  [=(2)] =   -1.90 kcal/mol
USER    
USER    
USER  
USER    DPF = ligand_dock.biased.dpf
USER    NEWDPF move	ligand.pdbqt
USER    NEWDPF about	-0.023000 0.069000 -0.054000
USER    NEWDPF tran0	20.030314 -11.610442 -3.523164
USER    NEWDPF axisangle0	0.531196 -0.828738 -0.176135 -40.914464
USER    NEWDPF quaternion0	0.185657 -0.289651 -0.061561 -0.936933
USER    NEWDPF dihe0	-179.16 -168.13 20.54 -134.99 -82.26 -163.28 
USER  
USER                              x       y       z    vdW   Elec        q     RMS 
ATOM      1  N   UNL     1      19.594 -10.807  -3.624 -0.39 -0.00    +0.000    19.419
ATOM      2  C   UNL     1      19.498 -11.107  -5.029 -0.45 -0.00    +0.000    19.419
ATOM      3  C   UNL     1      18.183 -11.053  -5.709 -0.32 -0.00    +0.000    19.419
ATOM      4  C   UNL     1      18.080 -11.314  -7.087 -0.32 -0.00    +0.000    19.419
ATOM      5  C   UNL     1      16.842 -11.263  -7.729 -0.30 -0.00    +0.000    19.419
ATOM      6  C   UNL     1      15.689 -10.953  -7.009 -0.22 -0.00    +0.000    19.419
ATOM      7  C   UNL     1      15.764 -10.690  -5.633 -0.22 -0.00    +0.000    19.419
ATOM      8  C   UNL     1      14.605 -10.381  -4.910 -0.20 -0.00    +0.000    19.419
ATOM      9  C   UNL     1      14.679 -10.123  -3.541 -0.22 -0.00    +0.000    19.419
ATOM     10  C   UNL     1      15.908 -10.168  -2.881 -0.24 -0.00    +0.000    19.419
ATOM     11  C   UNL     1      17.087 -10.475  -3.585 -0.10 -0.00    +0.000    19.419
ATOM     12  C   UNL     1      17.019 -10.738  -4.972 -0.18 -0.00    +0.000    19.419
ATOM     13  O   UNL     1      20.532 -11.419  -5.681 -0.49 -0.00    +0.000    19.419
ATOM     14  C   UNL     1      18.390 -10.523  -2.885 -0.33 -0.00    +0.000    19.419
ATOM     15  O   UNL     1      18.445 -10.318  -1.641 -0.34 -0.00    +0.000    19.419
ATOM     16  C   UNL     1      20.888 -10.893  -2.931 -0.43 -0.00    +0.000    19.419
ATOM     17  C   UNL     1      21.391  -9.492  -2.573 -0.52 -0.00    +0.000    19.419
ATOM     18  C   UNL     1      21.056  -9.139  -1.119 -0.61 -0.00    +0.000    19.419
ATOM     19  C   UNL     1      21.386 -10.310  -0.180 -0.71 -0.00    +0.000    19.419
ATOM     20  C   UNL     1      20.572 -10.260   1.120 -0.56 -0.00    +0.000    19.419
ATOM     21  O   UNL     1      20.212 -12.397   2.127 -1.88 -0.00    +0.000    19.419
ATOM     22  C   UNL     1      19.782 -11.519   1.332 -0.71 -0.00    +0.000    19.419
ATOM     23  N   UNL     1      18.534 -11.710   0.663 -0.49 -0.00    +0.000    19.419
ATOM     24  O   UNL     1      17.814 -12.838   0.867 -0.82 +0.00    +0.000    19.419
ATOM     25  H   UNL     1      18.195 -11.018   0.051 -0.00 -0.00    +0.000    19.419
TER
ENDMDL
MODEL       17
USER    Run = 17
USER    Cluster Rank = 14
USER    Number of conformations in this cluster = 1
USER  
USER    RMSD from reference structure       = 16.720 A
USER  
USER    Estimated Free Energy of Binding    =   -9.02 kcal/mol  [=(1)+(2)+(3)-(4)]
USER    Estimated Inhibition Constant, Ki   =  244.11 nM (nanomolar)  [Temperature = 298.15 K]
USER    
USER    (1) Final Intermolecular Energy     =  -10.81 kcal/mol
USER        vdW + Hbond + desolv Energy     =  -10.81 kcal/mol
USER        Electrostatic Energy            =   +0.00 kcal/mol
USER    (2) Final Total Internal Energy     =   -1.79 kcal/mol
USER    (3) Torsional Free Energy           =   +1.79 kcal/mol
USER    (4) Unbound System's Energy  [=(2)] =   -1.79 kcal/mol
USER    
USER    
USER  
USER    DPF = ligand_dock.biased.dpf
USER    NEWDPF move	ligand.pdbqt
USER    NEWDPF about	-0.023000 0.069000 -0.054000
USER    NEWDPF tran0	15.533205 -9.972773 2.082190
USER    NEWDPF axisangle0	0.848741 -0.303066 -0.433348 -163.279675
USER    NEWDPF quaternion0	0.839722 -0.299846 -0.428743 -0.145395
USER    NEWDPF dihe0	-169.59 -142.28 101.87 152.23 4.08 -23.47 
USER  
USER                              x       y       z    vdW   Elec        q     RMS 
ATOM      1  N   UNL     1      15.066 -10.147   2.855 -0.35 +0.00    +0.000    16.720
ATOM      2  C   UNL     1      15.785  -9.057   3.461 -0.42 +0.00    +0.000    16.720
ATOM      3  C   UNL     1      15.046  -7.971   4.146 -0.35 +0.00    +0.000    16.720
ATOM      4  C   UNL     1      15.737  -6.917   4.768 -0.30 +0.00    +0.000    16.720
ATOM      5  C   UNL     1      15.041  -5.894   5.413 -0.37 +0.00    +0.000    16.720
ATOM      6  C   UNL     1      13.647  -5.904   5.447 -0.35 +0.00    +0.000    16.720
ATOM      7  C   UNL     1      12.934  -6.943   4.832 -0.25 +0.00    +0.000    16.720
ATOM      8  C   UNL     1      11.532  -6.952   4.864 -0.19 +0.00    +0.000    16.720
ATOM      9  C   UNL     1      10.822  -7.984   4.251 -0.15 +0.00    +0.000    16.720
ATOM     10  C   UNL     1      11.501  -9.017   3.602 -0.08 +0.00    +0.000    16.720
ATOM     11  C   UNL     1      12.906  -9.031   3.556 -0.22 +0.00    +0.000    16.720
ATOM     12  C   UNL     1      13.633  -7.989   4.175 -0.26 +0.00    +0.000    16.720
ATOM     13  O   UNL     1      17.046  -9.023   3.408 -0.40 +0.00    +0.000    16.720
ATOM     14  C   UNL     1      13.626 -10.127   2.867 -0.32 +0.00    +0.000    16.720
ATOM     15  O   UNL     1      12.975 -11.041   2.288 -0.38 +0.00    +0.000    16.720
ATOM     16  C   UNL     1      15.788 -11.210   2.142 -0.46 +0.00    +0.000    16.720
ATOM     17  C   UNL     1      15.503 -11.127   0.639 -0.37 +0.00    +0.000    16.720
ATOM     18  C   UNL     1      16.167 -12.286  -0.114 -0.51 +0.00    +0.000    16.720
ATOM     19  C   UNL     1      17.416 -12.781   0.630 -0.49 +0.00    +0.000    16.720
ATOM     20  C   UNL     1      18.604 -11.822   0.476 -0.57 -0.00    +0.000    16.720
ATOM     21  O   UNL     1      20.648 -12.351   1.595 -1.57 -0.00    +0.000    16.720
ATOM     22  C   UNL     1      19.498 -11.843   1.682 -0.72 -0.00    +0.000    16.720
ATOM     23  N   UNL     1      19.065 -11.263   2.914 -0.59 -0.00    +0.000    16.720
ATOM     24  O   UNL     1      19.877 -11.268   3.996 -1.13 -0.00    +0.000    16.720
ATOM     25  H   UNL     1      18.170 -10.857   2.976 -0.02 +0.00    +0.000    16.720
TER
ENDMDL
MODEL       35
USER    Run = 35
USER    Cluster Rank = 15
USER    Number of conformations in this cluster = 1
USER  
USER    RMSD from reference structure       = 19.350 A
USER  
USER    Estimated Free Energy of Binding    =   -8.82 kcal/mol  [=(1)+(2)+(3)-(4)]
USER    Estimated Inhibition Constant, Ki   =  343.44 nM (nanomolar)  [Temperature = 298.15 K]
USER    
USER    (1) Final Intermolecular Energy     =  -10.61 kcal/mol
USER        vdW + Hbond + desolv Energy     =  -10.61 kcal/mol
USER        Electrostatic Energy            =   +0.00 kcal/mol
USER    (2) Final Total Internal Energy     =   -2.18 kcal/mol
USER    (3) Torsional Free Energy           =   +1.79 kcal/mol
USER    (4) Unbound System's Energy  [=(2)] =   -2.18 kcal/mol
USER    
USER    
USER  
USER    DPF = ligand_dock.biased.dpf
USER    NEWDPF move	ligand.pdbqt
USER    NEWDPF about	-0.023000 0.069000 -0.054000
USER    NEWDPF tran0	16.147288 -12.139352 -1.381207
USER    NEWDPF axisangle0	0.114113 -0.992827 0.035682 154.984332
USER    NEWDPF quaternion0	0.111405 -0.969263 0.034835 0.216573
USER    NEWDPF dihe0	179.51 159.82 -100.18 37.10 162.96 174.79 
USER  
USER                              x       y       z    vdW   Elec        q     RMS 
ATOM      1  N   UNL     1      16.493 -11.320  -1.146 -0.29 -0.00    +0.000    19.350
ATOM      2  C   UNL     1      16.917 -11.926   0.090 -0.48 +0.00    +0.000    19.350
ATOM      3  C   UNL     1      18.328 -11.810   0.526 -0.49 -0.00    +0.000    19.350
ATOM      4  C   UNL     1      18.747 -12.369   1.746 -0.40 -0.00    +0.000    19.350
ATOM      5  C   UNL     1      20.077 -12.261   2.157 -0.61 -0.00    +0.000    19.350
ATOM      6  C   UNL     1      21.007 -11.595   1.360 -0.53 -0.00    +0.000    19.350
ATOM      7  C   UNL     1      20.614 -11.029   0.139 -0.56 -0.00    +0.000    19.350
ATOM      8  C   UNL     1      21.551 -10.361  -0.663 -0.59 -0.00    +0.000    19.350
ATOM      9  C   UNL     1      21.161  -9.801  -1.879 -0.53 -0.00    +0.000    19.350
ATOM     10  C   UNL     1      19.836  -9.899  -2.307 -0.36 -0.00    +0.000    19.350
ATOM     11  C   UNL     1      18.877 -10.562  -1.521 -0.34 -0.00    +0.000    19.350
ATOM     12  C   UNL     1      19.265 -11.133  -0.287 -0.47 -0.00    +0.000    19.350
ATOM     13  O   UNL     1      16.088 -12.557   0.803 -1.00 +0.00    +0.000    19.350
ATOM     14  C   UNL     1      17.472 -10.666  -1.975 -0.22 -0.00    +0.000    19.350
ATOM     15  O   UNL     1      17.134 -10.183  -3.092 -0.29 -0.00    +0.000    19.350
ATOM     16  C   UNL     1      15.104 -11.460  -1.605 -0.34 +0.00    +0.000    19.350
ATOM     17  C   UNL     1      14.234 -10.350  -1.007 -0.28 +0.00    +0.000    19.350
ATOM     18  C   UNL     1      14.926  -9.692   0.192 -0.28 +0.00    +0.000    19.350
ATOM     19  C   UNL     1      13.909  -9.339   1.288 -0.22 +0.00    +0.000    19.350
ATOM     20  C   UNL     1      13.587 -10.538   2.191 -0.34 +0.00    +0.000    19.350
ATOM     21  O   UNL     1      14.091 -10.155   4.496 -0.45 +0.00    +0.000    19.350
ATOM     22  C   UNL     1      14.495 -10.595   3.386 -0.43 +0.00    +0.000    19.350
ATOM     23  N   UNL     1      15.798 -11.173   3.278 -0.50 +0.00    +0.000    19.350
ATOM     24  O   UNL     1      16.609 -11.240   4.359 -0.61 +0.00    +0.000    19.350
ATOM     25  H   UNL     1      16.106 -11.526   2.412 -0.01 +0.00    +0.000    19.350
TER
ENDMDL
MODEL       75
USER    Run = 75
USER    Cluster Rank = 16
USER    Number of conformations in this cluster = 2
USER  
USER    RMSD from reference structure       = 19.226 A
USER  
USER    Estimated Free Energy of Binding    =   -8.77 kcal/mol  [=(1)+(2)+(3)-(4)]
USER    Estimated Inhibition Constant, Ki   =  373.42 nM (nanomolar)  [Temperature = 298.15 K]
USER    
USER    (1) Final Intermolecular Energy     =  -10.56 kcal/mol
USER        vdW + Hbond + desolv Energy     =  -10.56 kcal/mol
USER        Electrostatic Energy            =   +0.00 kcal/mol
USER    (2) Final Total Internal Energy     =   -2.28 kcal/mol
USER    (3) Torsional Free Energy           =   +1.79 kcal/mol
USER    (4) Unbound System's Energy  [=(2)] =   -2.28 kcal/mol
USER    
USER    
USER  
USER    DPF = ligand_dock.biased.dpf
USER    NEWDPF move	ligand.pdbqt
USER    NEWDPF about	-0.023000 0.069000 -0.054000
USER    NEWDPF tran0	19.775184 -12.502762 0.758450
USER    NEWDPF axisangle0	0.655857 -0.754551 0.022450 -102.267251
USER    NEWDPF quaternion0	0.510658 -0.587502 0.017480 -0.627506
USER    NEWDPF dihe0	41.30 -58.45 166.10 -54.60 151.80 -161.54 
USER  
USER                              x       y       z    vdW   Elec        q     RMS 
ATOM      1  N   UNL     1      19.215 -11.773   0.764 -0.55 -0.00    +0.000    19.226
ATOM      2  C   UNL     1      20.159 -11.123  -0.109 -0.58 -0.00    +0.000    19.226
ATOM      3  C   UNL     1      19.699 -10.527  -1.385 -0.44 -0.00    +0.000    19.226
ATOM      4  C   UNL     1      20.605  -9.862  -2.230 -0.48 -0.00    +0.000    19.226
ATOM      5  C   UNL     1      20.172  -9.301  -3.433 -0.34 -0.00    +0.000    19.226
ATOM      6  C   UNL     1      18.833  -9.395  -3.812 -0.23 -0.00    +0.000    19.226
ATOM      7  C   UNL     1      17.911 -10.054  -2.986 -0.19 -0.00    +0.000    19.226
ATOM      8  C   UNL     1      16.565 -10.149  -3.368 -0.22 -0.00    +0.000    19.226
ATOM      9  C   UNL     1      15.648 -10.807  -2.550 -0.18 -0.00    +0.000    19.226
ATOM     10  C   UNL     1      16.061 -11.374  -1.343 -0.17 +0.00    +0.000    19.226
ATOM     11  C   UNL     1      17.405 -11.291  -0.936 -0.30 -0.00    +0.000    19.226
ATOM     12  C   UNL     1      18.340 -10.626  -1.761 -0.28 -0.00    +0.000    19.226
ATOM     13  O   UNL     1      21.378 -11.061   0.212 -0.76 -0.00    +0.000    19.226
ATOM     14  C   UNL     1      17.843 -11.893   0.344 -0.53 -0.00    +0.000    19.226
ATOM     15  O   UNL     1      17.012 -12.513   1.064 -0.94 +0.00    +0.000    19.226
ATOM     16  C   UNL     1      19.667 -12.399   2.014 -0.69 -0.00    +0.000    19.226
ATOM     17  C   UNL     1      19.150 -11.607   3.219 -0.54 -0.00    +0.000    19.226
ATOM     18  C   UNL     1      18.953 -10.129   2.866 -0.58 -0.00    +0.000    19.226
ATOM     19  C   UNL     1      17.525  -9.670   3.195 -0.16 +0.00    +0.000    19.226
ATOM     20  C   UNL     1      16.600 -10.846   3.536 -0.49 +0.00    +0.000    19.226
ATOM     21  O   UNL     1      14.788  -9.733   2.445 -0.31 +0.00    +0.000    19.226
ATOM     22  C   UNL     1      15.350 -10.831   2.704 -0.47 +0.00    +0.000    19.226
ATOM     23  N   UNL     1      14.815 -12.048   2.180 -0.50 +0.00    +0.000    19.226
ATOM     24  O   UNL     1      13.698 -12.033   1.416 -0.52 +0.00    +0.000    19.226
ATOM     25  H   UNL     1      15.263 -12.903   2.374 -0.10 +0.00    +0.000    19.226
TER
ENDMDL
MODEL       34
USER    Run = 34
USER    Cluster Rank = 17
USER    Number of conformations in this cluster = 2
USER  
USER    RMSD from reference structure       = 16.936 A
USER  
USER    Estimated Free Energy of Binding    =   -8.52 kcal/mol  [=(1)+(2)+(3)-(4)]
USER    Estimated Inhibition Constant, Ki   =  566.60 nM (nanomolar)  [Temperature = 298.15 K]
USER    
USER    (1) Final Intermolecular Energy     =  -10.31 kcal/mol
USER        vdW + Hbond + desolv Energy     =  -10.31 kcal/mol
USER        Electrostatic Energy            =   +0.00 kcal/mol
USER    (2) Final Total Internal Energy     =   -2.02 kcal/mol
USER    (3) Torsional Free Energy           =   +1.79 kcal/mol
USER    (4) Unbound System's Energy  [=(2)] =   -2.02 kcal/mol
USER    
USER    
USER  
USER    DPF = ligand_dock.biased.dpf
USER    NEWDPF move	ligand.pdbqt
USER    NEWDPF about	-0.023000 0.069000 -0.054000
USER    NEWDPF tran0	15.264761 -12.398990 1.148237
USER    NEWDPF axisangle0	0.562240 -0.816529 -0.131022 -86.067599
USER    NEWDPF quaternion0	0.383689 -0.557224 -0.089413 -0.730951
USER    NEWDPF dihe0	-115.98 -147.97 169.28 102.02 140.44 -165.17 
USER  
USER                              x       y       z    vdW   Elec        q     RMS 
ATOM      1  N   UNL     1      14.914 -11.549   1.163 -0.38 +0.00    +0.000    16.936
ATOM      2  C   UNL     1      15.703 -11.271  -0.009 -0.37 +0.00    +0.000    16.936
ATOM      3  C   UNL     1      15.059 -10.710  -1.219 -0.27 -0.00    +0.000    16.936
ATOM      4  C   UNL     1      15.824 -10.405  -2.359 -0.25 -0.00    +0.000    16.936
ATOM      5  C   UNL     1      15.218  -9.877  -3.500 -0.21 -0.00    +0.000    16.936
ATOM      6  C   UNL     1      13.843  -9.644  -3.523 -0.18 -0.00    +0.000    16.936
ATOM      7  C   UNL     1      13.058  -9.941  -2.399 -0.21 -0.00    +0.000    16.936
ATOM      8  C   UNL     1      11.676  -9.709  -2.423 -0.15 -0.00    +0.000    16.936
ATOM      9  C   UNL     1      10.894 -10.007  -1.307 -0.15 -0.00    +0.000    16.936
ATOM     10  C   UNL     1      11.482 -10.536  -0.157 -0.25 +0.00    +0.000    16.936
ATOM     11  C   UNL     1      12.867 -10.776  -0.107 -0.28 +0.00    +0.000    16.936
ATOM     12  C   UNL     1      13.665 -10.477  -1.234 -0.26 -0.00    +0.000    16.936
ATOM     13  O   UNL     1      16.943 -11.507  -0.008 -0.41 +0.00    +0.000    16.936
ATOM     14  C   UNL     1      13.490 -11.337   1.113 -0.41 +0.00    +0.000    16.936
ATOM     15  O   UNL     1      12.771 -11.632   2.108 -0.46 +0.00    +0.000    16.936
ATOM     16  C   UNL     1      15.536 -12.140   2.356 -0.30 +0.00    +0.000    16.936
ATOM     17  C   UNL     1      15.654 -11.091   3.466 -0.54 +0.00    +0.000    16.936
ATOM     18  C   UNL     1      16.054  -9.726   2.896 -0.43 +0.00    +0.000    16.936
ATOM     19  C   UNL     1      17.556  -9.683   2.576 -0.41 -0.00    +0.000    16.936
ATOM     20  C   UNL     1      18.293 -10.933   3.076 -0.51 -0.00    +0.000    16.936
ATOM     21  O   UNL     1      20.270 -12.156   2.521 -1.97 -0.00    +0.000    16.936
ATOM     22  C   UNL     1      19.379 -11.355   2.129 -0.69 -0.00    +0.000    16.936
ATOM     23  N   UNL     1      19.389 -10.879   0.782 -0.52 -0.00    +0.000    16.936
ATOM     24  O   UNL     1      20.359 -11.273  -0.076 -0.68 -0.00    +0.000    16.936
ATOM     25  H   UNL     1      18.686 -10.262   0.475 -0.01 -0.00    +0.000    16.936
TER
ENDMDL


AVSFLD: # AVS field file
AVSFLD: #
AVSFLD: # Created by AutoDock
AVSFLD: #
AVSFLD: ndim=2           # number of dimensions in the field
AVSFLD: nspace=1         # number of physical coordinates
AVSFLD: veclen=7         # vector size
AVSFLD: dim1=25          # atoms
AVSFLD: dim2=17          # conformations
AVSFLD: data=Real       # data type (byte,integer,Real,double)
AVSFLD: field=uniform    # field coordinate layout
AVSFLD: label= x y z vdW Elec q RMS
AVSFLD: variable 1 file = ligand_dock.biased.dlg.pdb filetype = ascii offset = 5 stride = 12
AVSFLD: variable 2 file = ligand_dock.biased.dlg.pdb filetype = ascii offset = 6 stride = 12
AVSFLD: variable 3 file = ligand_dock.biased.dlg.pdb filetype = ascii offset = 7 stride = 12
AVSFLD: variable 4 file = ligand_dock.biased.dlg.pdb filetype = ascii offset = 8 stride = 12
AVSFLD: variable 5 file = ligand_dock.biased.dlg.pdb filetype = ascii offset = 9 stride = 12
AVSFLD: variable 6 file = ligand_dock.biased.dlg.pdb filetype = ascii offset = 10 stride = 12
AVSFLD: variable 7 file = ligand_dock.biased.dlg.pdb filetype = ascii offset = 11 stride = 12
AVSFLD: # end of file

>>> Closing the docking parameter file (DPF)...
This docking finished at:			5:17 14" p.m., 11/03/2024


________________________________________________________________________________

autodock4: Successful Completion on "ThinkStation-P620"

Real= 10m 52.26s,  CPU= 10m 49.16s,  System= 0.17s
________________________________________________________________________________

