REMARK  Name = 
REMARK  8 active torsions:
REMARK  status: ('A' for Active; 'I' for Inactive)
REMARK    1  A    between atoms: C_2  and  C_5
REMARK    2  A    between atoms: C_5  and  C_6
REMARK    3  A    between atoms: C_6  and  C_7
REMARK    4  A    between atoms: C_7  and  C_8
REMARK    5  A    between atoms: C_8  and  C_9
REMARK    6  A    between atoms: C_9  and  C_10
REMARK    7  A    between atoms: C_10  and  C_11
REMARK    8  A    between atoms: N_12  and  C_13
REMARK                            x       y       z     vdW  Elec       q    Type
REMARK                         _______ _______ _______ _____ _____    ______ ____
ROOT
ATOM      1  C   UNL     1      -0.264  -0.905  -0.247  0.00  0.00     0.000 C 
ENDROOT
BRANCH   1   2
ATOM      2  C   UNL     1      -1.626  -0.904   0.379  0.00  0.00     0.000 C 
ATOM      3  N   UNL     1      -2.796  -1.005  -0.449  0.00  0.00     0.000 N 
ATOM      4  O   UNL     1      -1.730  -0.813   1.632  0.00  0.00     0.000 OA
ATOM      5  H   UNL     1      -2.672  -1.249  -1.395  0.00  0.00     0.000 HD
BRANCH   3   6
ATOM      6  C   UNL     1      -4.136  -0.774   0.017  0.00  0.00     0.000 A 
ATOM      7  C   UNL     1      -4.424   0.196   0.992  0.00  0.00     0.000 A 
ATOM      8  C   UNL     1      -5.743   0.408   1.398  0.00  0.00     0.000 A 
ATOM      9  C   UNL     1      -6.767  -0.340   0.816  0.00  0.00     0.000 A 
ATOM     10  N   UNL     1      -6.478  -1.259  -0.144  0.00  0.00     0.000 NA
ATOM     11  C   UNL     1      -5.202  -1.484  -0.556  0.00  0.00     0.000 A 
ATOM     22  CM  UNL     1      -5.486  -0.561   0.405  1.00  0.00     0.000 AC
ENDBRANCH   3   6
ENDBRANCH   1   2
BRANCH   1  12
ATOM     12  C   UNL     1       0.086   0.495  -0.766  0.00  0.00     0.000 C 
BRANCH  12  13
ATOM     13  C   UNL     1       1.388   0.525  -1.587  0.00  0.00     0.000 C 
BRANCH  13  14
ATOM     14  C   UNL     1       2.652   0.097  -0.819  0.00  0.00     0.000 C 
BRANCH  14  15
ATOM     15  C   UNL     1       2.974   1.020   0.369  0.00  0.00     0.000 C 
BRANCH  15  16
ATOM     16  C   UNL     1       4.298   0.650   1.049  0.00  0.00     0.000 C 
BRANCH  16  18
ATOM     17  O   UNL     1       5.884   2.167   0.100  0.00  0.00     0.000 OA
ATOM     18  C   UNL     1       5.481   0.975   0.184  0.00  0.00     0.000 C 
ATOM     19  N   UNL     1       6.134  -0.051  -0.566  0.00  0.00     0.000 N 
ATOM     20  O   UNL     1       7.192   0.245  -1.357  0.00  0.00     0.000 OA
ATOM     21  H   UNL     1       5.813  -0.980  -0.507  0.00  0.00     0.000 HD
ENDBRANCH  16  18
ENDBRANCH  15  16
ENDBRANCH  14  15
ENDBRANCH  13  14
ENDBRANCH  12  13
ENDBRANCH   1  12
TORSDOF 8