          AutoDock 4.2 Release 4.2.6   
         (C) 1989-2012 The Scripps Research Institute
        AutoDock comes with ABSOLUTELY NO WARRANTY.
        AutoDock is free software, and you are welcome
        to redistribute it under certain conditions;
        for details type 'autodock4 -C'

                     main.cc  $Revision: 1.213 $

                   Compiled on Feb 20 2022 at 09:48:33


This file was created at:			6:07 09" p.m., 11/08/2024
                   on host:		"ThinkStation-P620"
Current Working Directory = "/home/antonio/Documenti/buccheri/IDROSSAMICO HDAC/HDAC 8/DP (copia)/Ligand_9"

      ________________________________________________________________

                   SETTING UP DEFAULT PARAMETER LIBRARY
      ________________________________________________________________


Random number generator was seeded with values 355262, 1731085629.
Docking parameter file (DPF) used for this docking:		ligand_dock.biased.dpf
DPF> parameter_file ad4_arom_params.dat

Using read_parameter_library() to try to open and read "ad4_arom_params.dat".

DPF> autodock_parameter_version 4.2       # used by autodock to validate parameter set

	Autodock parameter version 4.2.
DPF> outlev 1                             # diagnostic output level

Output Level = 1  ADT-COMPATIBLE OUTPUT DURING DOCKING.
DPF> intelec                              # calculate internal electrostatics

Electrostatic energies will be calculated for all non-bonds between moving atoms.
DPF> seed pid time                        # seeds for random generator

Random number generator was seeded with values 355262, 1731085629.
DPF> ligand_types A C NA OA N HD AC

WARNING: pairwise distance, Rij, 0.00, is not a very reasonable value for the equilibrium separation of two atoms! (0.90 Angstroms <= Rij <= 6.00 Angstroms)

Perhaps you meant to use "intnbp_coeffs" instead of "intnbp_r_eps"?

DPF> fld receptor.maps.fld                # grid_data_file

Opening Grid Map Dimensions file:		receptor.maps.fld
Grid Point Spacing =				0.375 Angstroms

Even Number of User-specified Grid Points =	70 x-points
						70 y-points
						70 z-points

Coordinates of Central Grid Point of Maps =	(36.691, 12.592, 124.207)
Macromolecule file used to create Grid Maps =	receptor.pdbqt
Grid Parameter file used to create Grid Maps =	receptor.gpf
Minimum coordinates in grid = (23.566, -0.533, 111.082)
Maximum coordinates in grid = (49.816, 25.717, 137.332)

DPF> map receptor.A.map                   # atom-specific affinity map

DPF> map receptor.C.map                   # atom-specific affinity map

DPF> map receptor.NA.biased.map

DPF> map receptor.OA.biased.map

DPF> map receptor.N.map                   # atom-specific affinity map

DPF> map receptor.HD.map                  # atom-specific affinity map

DPF> map receptor.AC.biased.map

DPF> elecmap receptor.e.map               # electrostatics map

DPF> desolvmap receptor.d.map             # desolvation map

DPF> move ligand.dum.pdbqt

1,4-interactions will be _ignored_ in the non-bonded internal energy calculation.

Ligand PDBQT file = "ligand.dum.pdbqt"

INPUT LIGAND PDBQT FILE:
________________________

INPUT-LIGAND-PDBQT: REMARK  Name = 
INPUT-LIGAND-PDBQT: REMARK  8 active torsions:
INPUT-LIGAND-PDBQT: REMARK  status: ('A' for Active; 'I' for Inactive)
INPUT-LIGAND-PDBQT: REMARK    1  A    between atoms: C_2  and  C_5
INPUT-LIGAND-PDBQT: REMARK    2  A    between atoms: C_5  and  C_6
INPUT-LIGAND-PDBQT: REMARK    3  A    between atoms: C_6  and  C_7
INPUT-LIGAND-PDBQT: REMARK    4  A    between atoms: C_7  and  C_8
INPUT-LIGAND-PDBQT: REMARK    5  A    between atoms: C_8  and  C_9
INPUT-LIGAND-PDBQT: REMARK    6  A    between atoms: C_9  and  C_10
INPUT-LIGAND-PDBQT: REMARK    7  A    between atoms: C_10  and  C_11
INPUT-LIGAND-PDBQT: REMARK    8  A    between atoms: N_12  and  C_13
INPUT-LIGAND-PDBQT: REMARK                            x       y       z     vdW  Elec       q    Type
INPUT-LIGAND-PDBQT: REMARK                         _______ _______ _______ _____ _____    ______ ____
INPUT-LIGAND-PDBQT: ROOT
INPUT-LIGAND-PDBQT: ATOM      1  C   UNL     1      -0.264  -0.905  -0.247  0.00  0.00     0.000 C 
INPUT-LIGAND-PDBQT: ENDROOT
INPUT-LIGAND-PDBQT: BRANCH   1   2
INPUT-LIGAND-PDBQT: ATOM      2  C   UNL     1      -1.626  -0.904   0.379  0.00  0.00     0.000 C 
INPUT-LIGAND-PDBQT: ATOM      3  N   UNL     1      -2.796  -1.005  -0.449  0.00  0.00     0.000 N 
INPUT-LIGAND-PDBQT: ATOM      4  O   UNL     1      -1.730  -0.813   1.632  0.00  0.00     0.000 OA
INPUT-LIGAND-PDBQT: ATOM      5  H   UNL     1      -2.672  -1.249  -1.395  0.00  0.00     0.000 HD
INPUT-LIGAND-PDBQT: BRANCH   3   6
INPUT-LIGAND-PDBQT: ATOM      6  C   UNL     1      -4.136  -0.774   0.017  0.00  0.00     0.000 A 
INPUT-LIGAND-PDBQT: ATOM      7  C   UNL     1      -4.424   0.196   0.992  0.00  0.00     0.000 A 
INPUT-LIGAND-PDBQT: ATOM      8  C   UNL     1      -5.743   0.408   1.398  0.00  0.00     0.000 A 
INPUT-LIGAND-PDBQT: ATOM      9  C   UNL     1      -6.767  -0.340   0.816  0.00  0.00     0.000 A 
INPUT-LIGAND-PDBQT: ATOM     10  N   UNL     1      -6.478  -1.259  -0.144  0.00  0.00     0.000 NA
INPUT-LIGAND-PDBQT: ATOM     11  C   UNL     1      -5.202  -1.484  -0.556  0.00  0.00     0.000 A 
INPUT-LIGAND-PDBQT: ATOM     22  CM  UNL     1      -5.486  -0.561   0.405  1.00  0.00     0.000 AC
INPUT-LIGAND-PDBQT: ENDBRANCH   3   6
INPUT-LIGAND-PDBQT: ENDBRANCH   1   2
INPUT-LIGAND-PDBQT: BRANCH   1  12
INPUT-LIGAND-PDBQT: ATOM     12  C   UNL     1       0.086   0.495  -0.766  0.00  0.00     0.000 C 
INPUT-LIGAND-PDBQT: BRANCH  12  13
INPUT-LIGAND-PDBQT: ATOM     13  C   UNL     1       1.388   0.525  -1.587  0.00  0.00     0.000 C 
INPUT-LIGAND-PDBQT: BRANCH  13  14
INPUT-LIGAND-PDBQT: ATOM     14  C   UNL     1       2.652   0.097  -0.819  0.00  0.00     0.000 C 
INPUT-LIGAND-PDBQT: BRANCH  14  15
INPUT-LIGAND-PDBQT: ATOM     15  C   UNL     1       2.974   1.020   0.369  0.00  0.00     0.000 C 
INPUT-LIGAND-PDBQT: BRANCH  15  16
INPUT-LIGAND-PDBQT: ATOM     16  C   UNL     1       4.298   0.650   1.049  0.00  0.00     0.000 C 
INPUT-LIGAND-PDBQT: BRANCH  16  18
INPUT-LIGAND-PDBQT: ATOM     17  O   UNL     1       5.884   2.167   0.100  0.00  0.00     0.000 OA
INPUT-LIGAND-PDBQT: ATOM     18  C   UNL     1       5.481   0.975   0.184  0.00  0.00     0.000 C 
INPUT-LIGAND-PDBQT: ATOM     19  N   UNL     1       6.134  -0.051  -0.566  0.00  0.00     0.000 N 
INPUT-LIGAND-PDBQT: ATOM     20  O   UNL     1       7.192   0.245  -1.357  0.00  0.00     0.000 OA
INPUT-LIGAND-PDBQT: ATOM     21  H   UNL     1       5.813  -0.980  -0.507  0.00  0.00     0.000 HD
INPUT-LIGAND-PDBQT: ENDBRANCH  16  18
INPUT-LIGAND-PDBQT: ENDBRANCH  15  16
INPUT-LIGAND-PDBQT: ENDBRANCH  14  15
INPUT-LIGAND-PDBQT: ENDBRANCH  13  14
INPUT-LIGAND-PDBQT: ENDBRANCH  12  13
INPUT-LIGAND-PDBQT: ENDBRANCH   1  12
INPUT-LIGAND-PDBQT: TORSDOF 8________________________________________________________________________________

Total charge on ligand                               =	+0.000 e
REMARK  Name = 
REMARK  8 active torsions:
REMARK  status: ('A' for Active; 'I' for Inactive)
REMARK    1  A    between atoms: C_2  and  C_5
REMARK    2  A    between atoms: C_5  and  C_6
REMARK    3  A    between atoms: C_6  and  C_7
REMARK    4  A    between atoms: C_7  and  C_8
REMARK    5  A    between atoms: C_8  and  C_9
REMARK    6  A    between atoms: C_9  and  C_10
REMARK    7  A    between atoms: C_10  and  C_11
REMARK    8  A    between atoms: N_12  and  C_13
REMARK                            x       y       z     vdW  Elec       q    Type
REMARK                         _______ _______ _______ _____ _____    ______ ____


Number of Rotatable Bonds in Small Molecule =	8 torsions
Number of atoms in ligand:  22

Number of non-hydrogen atoms in ligand:  20

Number of vibrational degrees of freedom of ligand:  60


Number of torsional degrees of freedom = 8
Estimated loss of torsional free energy upon binding = +2.3864 kcal/mol


DPF> about 0.003 -0.142 -0.069            # small molecule center

Small molecule center of rotation =	(+0.003, -0.142, -0.069)

DPF> tran0 random                         # initial coordinates/A or random

Initial translation =			(44.891, 16.135, 112.949) Angstroms
DPF> quaternion0 random                   # initial orientation

Each run will begin with a new, random initial orientation.
Initial quaternion,  (x,y,z,w) =	( 0.093, -0.298, -0.066, 0.948 ),
DPF> dihe0 random                         # initial dihedrals (relative) or random

DPF> torsdof 8                            # torsional degrees of freedom

Number of torsional degrees of freedom = 8
Free energy coefficient for torsional degrees of freedom = 0.2983 as specified in parameter library "ad4_arom_params.dat".

Estimated loss of torsional free energy upon binding = +2.3864 kcal/mol

DPF> rmstol 2.0                           # cluster_tolerance/A

Maximum RMS tolerance for conformational cluster analysis = 2.00 Angstroms
DPF> extnrg 1000.0                        # external grid energy

External grid energy (beyond grid map walls) = 1000.00

DPF> e0max 0.0 10000                      # max initial energy; max number of retries

Using user-specified maximum number of retries for simanneal initialization, 10000 retries.
If the simanneal initial energy is greater than e0max, 0.000,
then a new, random initial state will be created.

DPF> ga_pop_size 150                      # number of individuals in population

A population of 150 individuals will be used
DPF> ga_num_evals 2500000                 # maximum number of energy evaluations

There will be at most 2500000 function evaluations used.
DPF> ga_num_generations 27000             # maximum number of generations

The GA will run for at most 27000 generations.
DPF> ga_elitism 1                         # number of top individuals to survive to next generation

The 1 best will be preserved each GA generation.
DPF> ga_mutation_rate 0.02                # rate of gene mutation

The mutation rate is 0.020000.
DPF> ga_crossover_rate 0.8                # rate of crossover

The crossover rate is 0.800000.
DPF> ga_window_size 10                    # 

The GA's selection window is 10 generations.
DPF> ga_cauchy_alpha 0.0                  # Alpha parameter of Cauchy distribution

The alpha parameter (for the Cauchy distribution) is being set to 0.000000.
DPF> ga_cauchy_beta 1.0                   # Beta parameter Cauchy distribution

The beta parameter (for the Cauchy distribution) is being set to 1.000000.
DPF> set_ga                               # set the above parameters for GA or LGA

DPF> sw_max_its 300                       # iterations of Solis & Wets local search

Solis & Wets algorithms will perform at most 300 iterations.
DPF> sw_max_succ 4                        # consecutive successes before changing rho

Solis & Wets algorithms expand rho every 4 in a row successes.
DPF> sw_max_fail 4                        # consecutive failures before changing rho

Solis & Wets algorithms contract rho every 4 in a row failures.
DPF> sw_rho 1.0                           # size of local search space to sample

rho is set to 1.000000.
DPF> sw_lb_rho 0.01                       # lower bound on rho

rho will never get smaller than 0.010000.
DPF> ls_search_freq 0.06                  # probability of performing local search on individual

Local search will be performed with frequency 0.060000.
DPF> set_psw1                             # set the above pseudo-Solis & Wets parameters

Creating a new Local Search object using the pseudo-Solis-Wets algorithm (pSW1) with the current settings.

DPF> unbound_model bound                  # state of unbound ligand

DPF> ga_run 100                           # do this many hybrid GA-LS runs

centering ligand on specified point: 0.003 -0.142 -0.069
Furthest true ligand atom from "about" center is 7.314 Angstroms (maxrad).
Number of requested GA dockings = 100 runs
Unbound model to be used is 'same as bound' [AutoDock 4.2 default].

	BEGINNING GENETIC ALGORITHM DOCKING 1 of 100
Run: 1 Seed: 1668639956 967584722 [ Run 1 of 100 GA/GALS ]
Beginning LAMARCKIAN GENETIC ALGORITHM (LGA), with a maximum of 2500000 energy evaluations.

Final-Value: -13.327


	FINAL GENETIC ALGORITHM DOCKED STATE
	_______________________________________________


Detailed state:  trans 38.318 12.994 121.465 quatxyzw -0.709221 -0.387245 -0.156396 0.567968 center 0.003 -0.142 -0.069 ntor 8 103.0262 5.2024 -129.1679 41.0830 147.5969 146.1450 -11.5344 -41.5729
State:	 38.318  12.994 121.465  -0.862 -0.470 -0.190 110.783    103.03    5.20 -129.17   41.08  147.60  146.14  -11.53  -41.57

DOCKED: MODEL        1
DOCKED: USER    Run = 1
DOCKED: USER    DPF = ligand_dock.biased.dpf
DOCKED: USER  
DOCKED: USER    Estimated Free Energy of Binding    =   -9.07 kcal/mol  [=(1)+(2)+(3)-(4)]
DOCKED: USER    Estimated Inhibition Constant, Ki   =  224.93 nM (nanomolar)  [Temperature = 298.15 K]
DOCKED: USER    
DOCKED: USER    (1) Final Intermolecular Energy     =  -11.46 kcal/mol
DOCKED: USER        vdW + Hbond + desolv Energy     =  -11.46 kcal/mol
DOCKED: USER        Electrostatic Energy            =   +0.00 kcal/mol
DOCKED: USER    (2) Final Total Internal Energy     =   -1.87 kcal/mol
DOCKED: USER    (3) Torsional Free Energy           =   +2.39 kcal/mol
DOCKED: USER    (4) Unbound System's Energy  [=(2)] =   -1.87 kcal/mol
DOCKED: USER    
DOCKED: USER    
DOCKED: USER    NEWDPF move ligand.dum.pdbqt
DOCKED: USER    NEWDPF about 0.003000 -0.142000 -0.069000
DOCKED: USER    NEWDPF tran0 38.318363 12.994384 121.465446
DOCKED: USER    NEWDPF quaternion0 -0.709221 -0.387245 -0.156396 0.567968
DOCKED: USER    NEWDPF axisangle0 -0.861698 -0.470500 -0.190020 110.782681
DOCKED: USER    NEWDPF quat0 -0.861698 -0.470500 -0.190020 110.782681
DOCKED: USER    NEWDPF dihe0 103.03 5.20 -129.17 41.08 147.60 146.14 -11.53 -41.57 
DOCKED: USER  keepresnum = 1 
DOCKED: USER  
DOCKED: REMARK  Name = 
DOCKED: REMARK  8 active torsions:
DOCKED: REMARK  status: ('A' for Active; 'I' for Inactive)
DOCKED: REMARK    1  A    between atoms: C_2  and  C_5
DOCKED: REMARK    2  A    between atoms: C_5  and  C_6
DOCKED: REMARK    3  A    between atoms: C_6  and  C_7
DOCKED: REMARK    4  A    between atoms: C_7  and  C_8
DOCKED: REMARK    5  A    between atoms: C_8  and  C_9
DOCKED: REMARK    6  A    between atoms: C_9  and  C_10
DOCKED: REMARK    7  A    between atoms: C_10  and  C_11
DOCKED: REMARK    8  A    between atoms: N_12  and  C_13
DOCKED: REMARK                            x       y       z     vdW  Elec       q    Type
DOCKED: REMARK                         _______ _______ _______ _____ _____    ______ ____
DOCKED: USER                              x       y       z     vdW  Elec       q    Type
DOCKED: USER                           _______ _______ _______ _____ _____    ______ ____
DOCKED: ROOT
DOCKED: ATOM      1  C   UNL     1      37.743  12.964 120.871 -0.49 -0.00    +0.000 C 
DOCKED: ENDROOT
DOCKED: BRANCH   1   2
DOCKED: ATOM      2  C   UNL     1      37.271  11.545 120.977 -0.46 -0.00    +0.000 C 
DOCKED: ATOM      3  N   UNL     1      36.453  11.143 122.089 -0.57 -0.00    +0.000 N 
DOCKED: ATOM      4  O   UNL     1      37.599  10.716 120.086 -0.57 -0.00    +0.000 OA
DOCKED: ATOM      5  H   UNL     1      36.076  11.848 122.663 -0.02 -0.00    +0.000 HD
DOCKED: BRANCH   3   6
DOCKED: ATOM      6  C   UNL     1      36.150   9.776 122.413 -0.61 -0.00    +0.000 A 
DOCKED: ATOM      7  C   UNL     1      34.979   9.149 121.957 -0.51 -0.00    +0.000 A 
DOCKED: ATOM      8  C   UNL     1      34.735   7.811 122.272 -0.60 -0.00    +0.000 A 
DOCKED: ATOM      9  C   UNL     1      35.670   7.104 123.029 -0.68 -0.00    +0.000 A 
DOCKED: ATOM     10  N   UNL     1      36.812   7.716 123.444 -2.42 -0.00    +0.000 NA
DOCKED: ATOM     11  C   UNL     1      37.072   9.017 123.151 -0.49 -0.00    +0.000 A 
DOCKED: ATOM     12  CM  UNL     1      35.928   8.409 122.730 +0.00 -0.00    +0.000 AC
DOCKED: ENDBRANCH   3   6
DOCKED: ENDBRANCH   1   2
DOCKED: BRANCH   1  12
DOCKED: ATOM     13  C   UNL     1      38.148  13.497 122.251 -0.42 -0.00    +0.000 C 
DOCKED: BRANCH  12  13
DOCKED: ATOM     14  C   UNL     1      38.732  14.920 122.199 -0.40 -0.00    +0.000 C 
DOCKED: BRANCH  13  14
DOCKED: ATOM     15  C   UNL     1      37.689  16.053 122.223 -0.27 -0.00    +0.000 C 
DOCKED: BRANCH  14  15
DOCKED: ATOM     16  C   UNL     1      37.258  16.443 123.648 -0.28 -0.00    +0.000 C 
DOCKED: BRANCH  15  16
DOCKED: ATOM     17  C   UNL     1      35.736  16.583 123.776 -0.39 -0.00    +0.000 C 
DOCKED: BRANCH  16  18
DOCKED: ATOM     18  O   UNL     1      33.795  15.192 123.892 -0.70 -0.00    +0.000 OA
DOCKED: ATOM     19  C   UNL     1      35.052  15.247 123.811 -0.57 -0.00    +0.000 C 
DOCKED: ATOM     20  N   UNL     1      35.817  14.041 123.783 -0.54 -0.00    +0.000 N 
DOCKED: ATOM     21  O   UNL     1      35.201  12.836 123.830 -0.43 -0.00    +0.000 OA
DOCKED: ATOM     22  H   UNL     1      36.799  14.085 123.729 -0.03 -0.00    +0.000 HD
DOCKED: ENDBRANCH  16  18
DOCKED: ENDBRANCH  15  16
DOCKED: ENDBRANCH  14  15
DOCKED: ENDBRANCH  13  14
DOCKED: ENDBRANCH  12  13
DOCKED: ENDBRANCH   1  12
DOCKED: TORSDOF 8DOCKED: TER
DOCKED: ENDMDL
________________________________________________________________________________


	BEGINNING GENETIC ALGORITHM DOCKING 2 of 100
Run: 2 Seed: 1744591183 1363574332 [ Run 2 of 100 GA/GALS ]
Beginning LAMARCKIAN GENETIC ALGORITHM (LGA), with a maximum of 2500000 energy evaluations.

Final-Value: -13.706


	FINAL GENETIC ALGORITHM DOCKED STATE
	_______________________________________________


Detailed state:  trans 36.340 16.118 123.620 quatxyzw -0.203560 -0.048498 -0.977838 0.006647 center 0.003 -0.142 -0.069 ntor 8 160.2498 163.7357 -178.0236 31.8034 -177.2604 -126.4971 -166.7817 -8.3082
State:	 36.340  16.118 123.620  -0.204 -0.048 -0.978 179.238    160.25  163.74 -178.02   31.80 -177.26 -126.50 -166.78   -8.31

DOCKED: MODEL        2
DOCKED: USER    Run = 2
DOCKED: USER    DPF = ligand_dock.biased.dpf
DOCKED: USER  
DOCKED: USER    Estimated Free Energy of Binding    =  -10.37 kcal/mol  [=(1)+(2)+(3)-(4)]
DOCKED: USER    Estimated Inhibition Constant, Ki   =   24.99 nM (nanomolar)  [Temperature = 298.15 K]
DOCKED: USER    
DOCKED: USER    (1) Final Intermolecular Energy     =  -12.76 kcal/mol
DOCKED: USER        vdW + Hbond + desolv Energy     =  -12.76 kcal/mol
DOCKED: USER        Electrostatic Energy            =   +0.00 kcal/mol
DOCKED: USER    (2) Final Total Internal Energy     =   -0.95 kcal/mol
DOCKED: USER    (3) Torsional Free Energy           =   +2.39 kcal/mol
DOCKED: USER    (4) Unbound System's Energy  [=(2)] =   -0.95 kcal/mol
DOCKED: USER    
DOCKED: USER    
DOCKED: USER    NEWDPF move ligand.dum.pdbqt
DOCKED: USER    NEWDPF about 0.003000 -0.142000 -0.069000
DOCKED: USER    NEWDPF tran0 36.339723 16.117817 123.620367
DOCKED: USER    NEWDPF quaternion0 -0.203560 -0.048498 -0.977838 0.006647
DOCKED: USER    NEWDPF axisangle0 -0.203565 -0.048499 -0.977860 179.238347
DOCKED: USER    NEWDPF quat0 -0.203565 -0.048499 -0.977860 179.238347
DOCKED: USER    NEWDPF dihe0 160.25 163.74 -178.02 31.80 -177.26 -126.50 -166.78 -8.31 
DOCKED: USER  keepresnum = 1 
DOCKED: USER  
DOCKED: REMARK  Name = 
DOCKED: REMARK  8 active torsions:
DOCKED: REMARK  status: ('A' for Active; 'I' for Inactive)
DOCKED: REMARK    1  A    between atoms: C_2  and  C_5
DOCKED: REMARK    2  A    between atoms: C_5  and  C_6
DOCKED: REMARK    3  A    between atoms: C_6  and  C_7
DOCKED: REMARK    4  A    between atoms: C_7  and  C_8
DOCKED: REMARK    5  A    between atoms: C_8  and  C_9
DOCKED: REMARK    6  A    between atoms: C_9  and  C_10
DOCKED: REMARK    7  A    between atoms: C_10  and  C_11
DOCKED: REMARK    8  A    between atoms: N_12  and  C_13
DOCKED: REMARK                            x       y       z     vdW  Elec       q    Type
DOCKED: REMARK                         _______ _______ _______ _____ _____    ______ ____
DOCKED: USER                              x       y       z     vdW  Elec       q    Type
DOCKED: USER                           _______ _______ _______ _____ _____    ______ ____
DOCKED: ROOT
DOCKED: ATOM      1  C   UNL     1      36.508  16.852 123.277 -0.30 -0.00    +0.000 C 
DOCKED: ENDROOT
DOCKED: BRANCH   1   2
DOCKED: ATOM      2  C   UNL     1      38.007  16.864 123.307 -0.26 -0.00    +0.000 C 
DOCKED: ATOM      3  N   UNL     1      38.750  16.670 122.093 -0.17 -0.00    +0.000 N 
DOCKED: ATOM      4  O   UNL     1      38.602  17.044 124.404 -0.23 -0.00    +0.000 OA
DOCKED: ATOM      5  H   UNL     1      38.259  16.709 121.240 +0.01 -0.00    +0.000 HD
DOCKED: BRANCH   3   6
DOCKED: ATOM      6  C   UNL     1      40.166  16.426 122.044 -0.22 -0.00    +0.000 A 
DOCKED: ATOM      7  C   UNL     1      40.975  16.960 121.027 -0.14 -0.00    +0.000 A 
DOCKED: ATOM      8  C   UNL     1      42.351  16.720 121.031 -0.19 -0.00    +0.000 A 
DOCKED: ATOM      9  C   UNL     1      42.911  15.962 122.060 -0.34 -0.00    +0.000 A 
DOCKED: ATOM     10  N   UNL     1      42.120  15.471 123.052 -1.01 +0.00    +0.000 NA
DOCKED: ATOM     11  C   UNL     1      40.779  15.690 123.070 -0.26 -0.00    +0.000 A 
DOCKED: ATOM     12  CM  UNL     1      41.566  16.186 122.075 +0.00 -0.00    +0.000 AC
DOCKED: ENDBRANCH   3   6
DOCKED: ENDBRANCH   1   2
DOCKED: BRANCH   1  12
DOCKED: ATOM     13  C   UNL     1      35.990  15.422 123.080 -0.42 -0.00    +0.000 C 
DOCKED: BRANCH  12  13
DOCKED: ATOM     14  C   UNL     1      37.022  14.348 123.468 -0.48 -0.00    +0.000 C 
DOCKED: BRANCH  13  14
DOCKED: ATOM     15  C   UNL     1      36.490  12.903 123.467 -0.64 -0.00    +0.000 C 
DOCKED: BRANCH  14  15
DOCKED: ATOM     16  C   UNL     1      37.249  11.985 122.494 -0.53 -0.00    +0.000 C 
DOCKED: BRANCH  15  16
DOCKED: ATOM     17  C   UNL     1      36.324  10.967 121.816 -0.49 -0.00    +0.000 C 
DOCKED: BRANCH  16  18
DOCKED: ATOM     18  O   UNL     1      37.066   8.853 120.979 -2.71 -0.00    +0.000 OA
DOCKED: ATOM     19  C   UNL     1      36.815   9.559 121.993 -0.66 -0.00    +0.000 C 
DOCKED: ATOM     20  N   UNL     1      36.972   9.006 123.301 -0.62 -0.00    +0.000 N 
DOCKED: ATOM     21  O   UNL     1      37.402   7.732 123.460 -2.61 -0.00    +0.000 OA
DOCKED: ATOM     22  H   UNL     1      36.768   9.555 124.093 -0.49 -0.00    +0.000 HD
DOCKED: ENDBRANCH  16  18
DOCKED: ENDBRANCH  15  16
DOCKED: ENDBRANCH  14  15
DOCKED: ENDBRANCH  13  14
DOCKED: ENDBRANCH  12  13
DOCKED: ENDBRANCH   1  12
DOCKED: TORSDOF 8DOCKED: TER
DOCKED: ENDMDL
________________________________________________________________________________


	BEGINNING GENETIC ALGORITHM DOCKING 3 of 100
Run: 3 Seed: 152698509 970373227 [ Run 3 of 100 GA/GALS ]
Beginning LAMARCKIAN GENETIC ALGORITHM (LGA), with a maximum of 2500000 energy evaluations.

Final-Value: -13.818


	FINAL GENETIC ALGORITHM DOCKED STATE
	_______________________________________________


Detailed state:  trans 37.310 14.103 120.460 quatxyzw -0.025750 -0.034444 0.998692 0.027651 center 0.003 -0.142 -0.069 ntor 8 176.7023 40.0019 -7.7288 145.2774 -129.7209 75.5437 -122.9468 108.3771
State:	 37.310  14.103 120.460  -0.026 -0.034  0.999 176.831    176.70   40.00   -7.73  145.28 -129.72   75.54 -122.95  108.38

DOCKED: MODEL        3
DOCKED: USER    Run = 3
DOCKED: USER    DPF = ligand_dock.biased.dpf
DOCKED: USER  
DOCKED: USER    Estimated Free Energy of Binding    =  -10.59 kcal/mol  [=(1)+(2)+(3)-(4)]
DOCKED: USER    Estimated Inhibition Constant, Ki   =   17.36 nM (nanomolar)  [Temperature = 298.15 K]
DOCKED: USER    
DOCKED: USER    (1) Final Intermolecular Energy     =  -12.97 kcal/mol
DOCKED: USER        vdW + Hbond + desolv Energy     =  -12.97 kcal/mol
DOCKED: USER        Electrostatic Energy            =   +0.00 kcal/mol
DOCKED: USER    (2) Final Total Internal Energy     =   -0.84 kcal/mol
DOCKED: USER    (3) Torsional Free Energy           =   +2.39 kcal/mol
DOCKED: USER    (4) Unbound System's Energy  [=(2)] =   -0.84 kcal/mol
DOCKED: USER    
DOCKED: USER    
DOCKED: USER    NEWDPF move ligand.dum.pdbqt
DOCKED: USER    NEWDPF about 0.003000 -0.142000 -0.069000
DOCKED: USER    NEWDPF tran0 37.310072 14.103403 120.459935
DOCKED: USER    NEWDPF quaternion0 -0.025750 -0.034444 0.998692 0.027651
DOCKED: USER    NEWDPF axisangle0 -0.025760 -0.034457 0.999074 176.831008
DOCKED: USER    NEWDPF quat0 -0.025760 -0.034457 0.999074 176.831008
DOCKED: USER    NEWDPF dihe0 176.70 40.00 -7.73 145.28 -129.72 75.54 -122.95 108.38 
DOCKED: USER  keepresnum = 1 
DOCKED: USER  
DOCKED: REMARK  Name = 
DOCKED: REMARK  8 active torsions:
DOCKED: REMARK  status: ('A' for Active; 'I' for Inactive)
DOCKED: REMARK    1  A    between atoms: C_2  and  C_5
DOCKED: REMARK    2  A    between atoms: C_5  and  C_6
DOCKED: REMARK    3  A    between atoms: C_6  and  C_7
DOCKED: REMARK    4  A    between atoms: C_7  and  C_8
DOCKED: REMARK    5  A    between atoms: C_8  and  C_9
DOCKED: REMARK    6  A    between atoms: C_9  and  C_10
DOCKED: REMARK    7  A    between atoms: C_10  and  C_11
DOCKED: REMARK    8  A    between atoms: N_12  and  C_13
DOCKED: REMARK                            x       y       z     vdW  Elec       q    Type
DOCKED: REMARK                         _______ _______ _______ _____ _____    ______ ____
DOCKED: USER                              x       y       z     vdW  Elec       q    Type
DOCKED: USER                           _______ _______ _______ _____ _____    ______ ____
DOCKED: ROOT
DOCKED: ATOM      1  C   UNL     1      37.542  14.890 120.348 -0.28 -0.00    +0.000 C 
DOCKED: ENDROOT
DOCKED: BRANCH   1   2
DOCKED: ATOM      2  C   UNL     1      38.869  14.918 121.045 -0.31 -0.00    +0.000 C 
DOCKED: ATOM      3  N   UNL     1      39.214  16.031 121.886 -0.22 -0.00    +0.000 N 
DOCKED: ATOM      4  O   UNL     1      39.672  13.960 120.882 -0.57 -0.00    +0.000 OA
DOCKED: ATOM      5  H   UNL     1      38.501  16.666 122.126 +0.00 -0.00    +0.000 HD
DOCKED: BRANCH   3   6
DOCKED: ATOM      6  C   UNL     1      40.534  16.273 122.400 -0.29 -0.00    +0.000 A 
DOCKED: ATOM      7  C   UNL     1      41.684  15.823 121.731 -0.32 -0.00    +0.000 A 
DOCKED: ATOM      8  C   UNL     1      42.950  16.102 122.250 -0.35 -0.00    +0.000 A 
DOCKED: ATOM      9  C   UNL     1      43.058  16.843 123.428 -0.24 -0.00    +0.000 A 
DOCKED: ATOM     10  N   UNL     1      41.938  17.294 124.054 -0.69 -0.00    +0.000 NA
DOCKED: ATOM     11  C   UNL     1      40.695  17.034 123.568 -0.26 -0.00    +0.000 A 
DOCKED: ATOM     12  CM  UNL     1      41.813  16.582 122.936 +0.00 -0.00    +0.000 AC
DOCKED: ENDBRANCH   3   6
DOCKED: ENDBRANCH   1   2
DOCKED: BRANCH   1  12
DOCKED: ATOM     13  C   UNL     1      37.298  13.513 119.718 -0.42 -0.00    +0.000 C 
DOCKED: BRANCH  12  13
DOCKED: ATOM     14  C   UNL     1      37.178  12.387 120.760 -0.52 -0.00    +0.000 C 
DOCKED: BRANCH  13  14
DOCKED: ATOM     15  C   UNL     1      36.976  12.861 122.211 -0.54 -0.00    +0.000 C 
DOCKED: BRANCH  14  15
DOCKED: ATOM     16  C   UNL     1      36.571  11.723 123.164 -0.69 -0.00    +0.000 C 
DOCKED: BRANCH  15  16
DOCKED: ATOM     17  C   UNL     1      35.773  10.624 122.450 -0.65 -0.00    +0.000 C 
DOCKED: BRANCH  16  18
DOCKED: ATOM     18  O   UNL     1      37.049   9.027 121.209 -2.70 -0.00    +0.000 OA
DOCKED: ATOM     19  C   UNL     1      36.561   9.352 122.326 -0.72 -0.00    +0.000 C 
DOCKED: ATOM     20  N   UNL     1      36.735   8.495 123.455 -0.66 -0.00    +0.000 N 
DOCKED: ATOM     21  O   UNL     1      37.433   7.341 123.339 -2.25 -0.00    +0.000 OA
DOCKED: ATOM     22  H   UNL     1      36.346   8.745 124.324 -0.29 -0.00    +0.000 HD
DOCKED: ENDBRANCH  16  18
DOCKED: ENDBRANCH  15  16
DOCKED: ENDBRANCH  14  15
DOCKED: ENDBRANCH  13  14
DOCKED: ENDBRANCH  12  13
DOCKED: ENDBRANCH   1  12
DOCKED: TORSDOF 8DOCKED: TER
DOCKED: ENDMDL
________________________________________________________________________________


	BEGINNING GENETIC ALGORITHM DOCKING 4 of 100
Run: 4 Seed: 1938069790 2123821177 [ Run 4 of 100 GA/GALS ]
Beginning LAMARCKIAN GENETIC ALGORITHM (LGA), with a maximum of 2500000 energy evaluations.

Final-Value: -13.802


	FINAL GENETIC ALGORITHM DOCKED STATE
	_______________________________________________


Detailed state:  trans 37.562 14.508 121.820 quatxyzw -0.699176 0.250438 0.665309 0.076144 center 0.003 -0.142 -0.069 ntor 8 -158.0653 -171.3446 -143.1447 -23.4081 73.1481 -179.0538 175.4087 179.9507
State:	 37.562  14.508 121.820  -0.701  0.251  0.667 171.266   -158.07 -171.34 -143.14  -23.41   73.15 -179.05  175.41  179.95

DOCKED: MODEL        4
DOCKED: USER    Run = 4
DOCKED: USER    DPF = ligand_dock.biased.dpf
DOCKED: USER  
DOCKED: USER    Estimated Free Energy of Binding    =  -10.37 kcal/mol  [=(1)+(2)+(3)-(4)]
DOCKED: USER    Estimated Inhibition Constant, Ki   =   25.00 nM (nanomolar)  [Temperature = 298.15 K]
DOCKED: USER    
DOCKED: USER    (1) Final Intermolecular Energy     =  -12.76 kcal/mol
DOCKED: USER        vdW + Hbond + desolv Energy     =  -12.76 kcal/mol
DOCKED: USER        Electrostatic Energy            =   +0.00 kcal/mol
DOCKED: USER    (2) Final Total Internal Energy     =   -1.04 kcal/mol
DOCKED: USER    (3) Torsional Free Energy           =   +2.39 kcal/mol
DOCKED: USER    (4) Unbound System's Energy  [=(2)] =   -1.04 kcal/mol
DOCKED: USER    
DOCKED: USER    
DOCKED: USER    NEWDPF move ligand.dum.pdbqt
DOCKED: USER    NEWDPF about 0.003000 -0.142000 -0.069000
DOCKED: USER    NEWDPF tran0 37.561915 14.507661 121.819718
DOCKED: USER    NEWDPF quaternion0 -0.699176 0.250438 0.665309 0.076144
DOCKED: USER    NEWDPF axisangle0 -0.701212 0.251167 0.667246 171.266127
DOCKED: USER    NEWDPF quat0 -0.701212 0.251167 0.667246 171.266127
DOCKED: USER    NEWDPF dihe0 -158.07 -171.34 -143.14 -23.41 73.15 -179.05 175.41 179.95 
DOCKED: USER  keepresnum = 1 
DOCKED: USER  
DOCKED: REMARK  Name = 
DOCKED: REMARK  8 active torsions:
DOCKED: REMARK  status: ('A' for Active; 'I' for Inactive)
DOCKED: REMARK    1  A    between atoms: C_2  and  C_5
DOCKED: REMARK    2  A    between atoms: C_5  and  C_6
DOCKED: REMARK    3  A    between atoms: C_6  and  C_7
DOCKED: REMARK    4  A    between atoms: C_7  and  C_8
DOCKED: REMARK    5  A    between atoms: C_8  and  C_9
DOCKED: REMARK    6  A    between atoms: C_9  and  C_10
DOCKED: REMARK    7  A    between atoms: C_10  and  C_11
DOCKED: REMARK    8  A    between atoms: N_12  and  C_13
DOCKED: REMARK                            x       y       z     vdW  Elec       q    Type
DOCKED: REMARK                         _______ _______ _______ _____ _____    ______ ____
DOCKED: USER                              x       y       z     vdW  Elec       q    Type
DOCKED: USER                           _______ _______ _______ _____ _____    ______ ____
DOCKED: ROOT
DOCKED: ATOM      1  C   UNL     1      37.927  15.246 121.741 -0.31 -0.00    +0.000 C 
DOCKED: ENDROOT
DOCKED: BRANCH   1   2
DOCKED: ATOM      2  C   UNL     1      37.335  16.002 122.892 -0.32 -0.00    +0.000 C 
DOCKED: ATOM      3  N   UNL     1      35.929  16.299 122.908 -0.31 -0.00    +0.000 N 
DOCKED: ATOM      4  O   UNL     1      38.082  16.372 123.838 -0.34 -0.00    +0.000 OA
DOCKED: ATOM      5  H   UNL     1      35.355  15.847 122.248 -0.01 -0.00    +0.000 HD
DOCKED: BRANCH   3   6
DOCKED: ATOM      6  C   UNL     1      35.309  17.213 123.828 -0.33 -0.00    +0.000 A 
DOCKED: ATOM      7  C   UNL     1      34.485  16.764 124.874 -0.43 -0.00    +0.000 A 
DOCKED: ATOM      8  C   UNL     1      33.922  17.682 125.763 -0.35 -0.00    +0.000 A 
DOCKED: ATOM      9  C   UNL     1      34.199  19.041 125.609 -0.25 -0.00    +0.000 A 
DOCKED: ATOM     10  N   UNL     1      35.017  19.461 124.607 -0.20 -0.00    +0.000 NA
DOCKED: ATOM     11  C   UNL     1      35.577  18.586 123.729 -0.23 -0.00    +0.000 A 
DOCKED: ATOM     12  CM  UNL     1      34.759  18.161 124.732 -0.40 -0.00    +0.000 AC
DOCKED: ENDBRANCH   3   6
DOCKED: ENDBRANCH   1   2
DOCKED: BRANCH   1  12
DOCKED: ATOM     13  C   UNL     1      38.078  13.762 122.098 -0.46 -0.00    +0.000 C 
DOCKED: BRANCH  12  13
DOCKED: ATOM     14  C   UNL     1      37.522  13.419 123.492 -0.47 -0.00    +0.000 C 
DOCKED: BRANCH  13  14
DOCKED: ATOM     15  C   UNL     1      36.380  12.385 123.501 -0.68 -0.00    +0.000 C 
DOCKED: BRANCH  14  15
DOCKED: ATOM     16  C   UNL     1      36.187  11.692 122.141 -0.57 -0.00    +0.000 C 
DOCKED: BRANCH  15  16
DOCKED: ATOM     17  C   UNL     1      35.395  10.384 122.263 -0.58 -0.00    +0.000 C 
DOCKED: BRANCH  16  18
DOCKED: ATOM     18  O   UNL     1      36.720   8.755 121.120 -2.54 -0.00    +0.000 OA
DOCKED: ATOM     19  C   UNL     1      36.293   9.182 122.227 -0.71 -0.00    +0.000 C 
DOCKED: ATOM     20  N   UNL     1      36.642   8.502 123.435 -0.65 -0.00    +0.000 N 
DOCKED: ATOM     21  O   UNL     1      37.440   7.408 123.400 -2.34 -0.00    +0.000 OA
DOCKED: ATOM     22  H   UNL     1      36.301   8.830 124.298 -0.29 -0.00    +0.000 HD
DOCKED: ENDBRANCH  16  18
DOCKED: ENDBRANCH  15  16
DOCKED: ENDBRANCH  14  15
DOCKED: ENDBRANCH  13  14
DOCKED: ENDBRANCH  12  13
DOCKED: ENDBRANCH   1  12
DOCKED: TORSDOF 8DOCKED: TER
DOCKED: ENDMDL
________________________________________________________________________________


	BEGINNING GENETIC ALGORITHM DOCKING 5 of 100
Run: 5 Seed: 781572543 1373533486 [ Run 5 of 100 GA/GALS ]
Beginning LAMARCKIAN GENETIC ALGORITHM (LGA), with a maximum of 2500000 energy evaluations.

Final-Value: -14.387


	FINAL GENETIC ALGORITHM DOCKED STATE
	_______________________________________________


Detailed state:  trans 37.131 11.856 122.458 quatxyzw -0.697419 -0.477383 -0.197329 0.496763 center 0.003 -0.142 -0.069 ntor 8 133.8200 -158.5857 179.7531 69.5343 -68.0804 164.7724 4.1690 -19.3514
State:	 37.131  11.856 122.458  -0.804 -0.550 -0.227 120.428    133.82 -158.59  179.75   69.53  -68.08  164.77    4.17  -19.35

DOCKED: MODEL        5
DOCKED: USER    Run = 5
DOCKED: USER    DPF = ligand_dock.biased.dpf
DOCKED: USER  
DOCKED: USER    Estimated Free Energy of Binding    =  -11.26 kcal/mol  [=(1)+(2)+(3)-(4)]
DOCKED: USER    Estimated Inhibition Constant, Ki   =    5.59 nM (nanomolar)  [Temperature = 298.15 K]
DOCKED: USER    
DOCKED: USER    (1) Final Intermolecular Energy     =  -13.64 kcal/mol
DOCKED: USER        vdW + Hbond + desolv Energy     =  -13.64 kcal/mol
DOCKED: USER        Electrostatic Energy            =   +0.00 kcal/mol
DOCKED: USER    (2) Final Total Internal Energy     =   -0.74 kcal/mol
DOCKED: USER    (3) Torsional Free Energy           =   +2.39 kcal/mol
DOCKED: USER    (4) Unbound System's Energy  [=(2)] =   -0.74 kcal/mol
DOCKED: USER    
DOCKED: USER    
DOCKED: USER    NEWDPF move ligand.dum.pdbqt
DOCKED: USER    NEWDPF about 0.003000 -0.142000 -0.069000
DOCKED: USER    NEWDPF tran0 37.130533 11.856500 122.458054
DOCKED: USER    NEWDPF quaternion0 -0.697419 -0.477383 -0.197329 0.496763
DOCKED: USER    NEWDPF axisangle0 -0.803583 -0.550053 -0.227367 120.427850
DOCKED: USER    NEWDPF quat0 -0.803583 -0.550053 -0.227367 120.427850
DOCKED: USER    NEWDPF dihe0 133.82 -158.59 179.75 69.53 -68.08 164.77 4.17 -19.35 
DOCKED: USER  keepresnum = 1 
DOCKED: USER  
DOCKED: REMARK  Name = 
DOCKED: REMARK  8 active torsions:
DOCKED: REMARK  status: ('A' for Active; 'I' for Inactive)
DOCKED: REMARK    1  A    between atoms: C_2  and  C_5
DOCKED: REMARK    2  A    between atoms: C_5  and  C_6
DOCKED: REMARK    3  A    between atoms: C_6  and  C_7
DOCKED: REMARK    4  A    between atoms: C_7  and  C_8
DOCKED: REMARK    5  A    between atoms: C_8  and  C_9
DOCKED: REMARK    6  A    between atoms: C_9  and  C_10
DOCKED: REMARK    7  A    between atoms: C_10  and  C_11
DOCKED: REMARK    8  A    between atoms: N_12  and  C_13
DOCKED: REMARK                            x       y       z     vdW  Elec       q    Type
DOCKED: REMARK                         _______ _______ _______ _____ _____    ______ ____
DOCKED: USER                              x       y       z     vdW  Elec       q    Type
DOCKED: USER                           _______ _______ _______ _____ _____    ______ ____
DOCKED: ROOT
DOCKED: ATOM      1  C   UNL     1      36.514  11.755 121.915 -0.58 -0.00    +0.000 C 
DOCKED: ENDROOT
DOCKED: BRANCH   1   2
DOCKED: ATOM      2  C   UNL     1      36.349  10.265 121.919 -0.51 -0.00    +0.000 C 
DOCKED: ATOM      3  N   UNL     1      35.363   9.655 122.768 -0.60 -0.00    +0.000 N 
DOCKED: ATOM      4  O   UNL     1      37.081   9.560 121.173 -2.43 -0.00    +0.000 OA
DOCKED: ATOM      5  H   UNL     1      34.698  10.241 123.198 -0.35 -0.00    +0.000 HD
DOCKED: BRANCH   3   6
DOCKED: ATOM      6  C   UNL     1      35.284   8.243 123.027 -0.61 -0.00    +0.000 A 
DOCKED: ATOM      7  C   UNL     1      34.053   7.591 123.208 -0.63 -0.00    +0.000 A 
DOCKED: ATOM      8  C   UNL     1      34.019   6.213 123.431 -0.66 -0.00    +0.000 A 
DOCKED: ATOM      9  C   UNL     1      35.214   5.494 123.456 -0.52 -0.00    +0.000 A 
DOCKED: ATOM     10  N   UNL     1      36.398   6.133 123.256 -0.91 -0.00    +0.000 NA
DOCKED: ATOM     11  C   UNL     1      36.457   7.473 123.037 -0.70 -0.00    +0.000 A 
DOCKED: ATOM     12  CM  UNL     1      35.269   6.838 123.236 +0.00 -0.00    +0.000 AC
DOCKED: ENDBRANCH   3   6
DOCKED: ENDBRANCH   1   2
DOCKED: BRANCH   1  12
DOCKED: ATOM     13  C   UNL     1      36.946  12.247 123.302 -0.67 -0.00    +0.000 C 
DOCKED: BRANCH  12  13
DOCKED: ATOM     14  C   UNL     1      36.854  13.777 123.453 -0.55 -0.00    +0.000 C 
DOCKED: BRANCH  13  14
DOCKED: ATOM     15  C   UNL     1      35.646  14.279 124.264 -0.44 -0.00    +0.000 C 
DOCKED: BRANCH  14  15
DOCKED: ATOM     16  C   UNL     1      34.865  15.396 123.549 -0.50 -0.00    +0.000 C 
DOCKED: BRANCH  15  16
DOCKED: ATOM     17  C   UNL     1      35.120  16.773 124.174 -0.44 -0.00    +0.000 C 
DOCKED: BRANCH  16  18
DOCKED: ATOM     18  O   UNL     1      33.802  18.253 125.512 -0.40 -0.00    +0.000 OA
DOCKED: ATOM     19  C   UNL     1      34.164  17.065 125.294 -0.45 -0.00    +0.000 C 
DOCKED: ATOM     20  N   UNL     1      33.686  16.010 126.132 -0.49 -0.00    +0.000 N 
DOCKED: ATOM     21  O   UNL     1      32.836  16.275 127.151 -1.16 -0.00    +0.000 OA
DOCKED: ATOM     22  H   UNL     1      33.977  15.084 125.966 -0.05 -0.00    +0.000 HD
DOCKED: ENDBRANCH  16  18
DOCKED: ENDBRANCH  15  16
DOCKED: ENDBRANCH  14  15
DOCKED: ENDBRANCH  13  14
DOCKED: ENDBRANCH  12  13
DOCKED: ENDBRANCH   1  12
DOCKED: TORSDOF 8DOCKED: TER
DOCKED: ENDMDL
________________________________________________________________________________


	BEGINNING GENETIC ALGORITHM DOCKING 6 of 100
Run: 6 Seed: 1260183706 1199582671 [ Run 6 of 100 GA/GALS ]
Beginning LAMARCKIAN GENETIC ALGORITHM (LGA), with a maximum of 2500000 energy evaluations.

Final-Value: -13.694


	FINAL GENETIC ALGORITHM DOCKED STATE
	_______________________________________________


Detailed state:  trans 37.596 14.824 122.840 quatxyzw -0.715670 0.398135 -0.301984 0.487965 center 0.003 -0.142 -0.069 ntor 8 -152.8631 -164.0021 85.6573 73.8829 -38.3299 89.7312 -120.3886 130.1924
State:	 37.596  14.824 122.840  -0.820  0.456 -0.346 121.586   -152.86 -164.00   85.66   73.88  -38.33   89.73 -120.39  130.19

DOCKED: MODEL        6
DOCKED: USER    Run = 6
DOCKED: USER    DPF = ligand_dock.biased.dpf
DOCKED: USER  
DOCKED: USER    Estimated Free Energy of Binding    =  -10.12 kcal/mol  [=(1)+(2)+(3)-(4)]
DOCKED: USER    Estimated Inhibition Constant, Ki   =   38.33 nM (nanomolar)  [Temperature = 298.15 K]
DOCKED: USER    
DOCKED: USER    (1) Final Intermolecular Energy     =  -12.50 kcal/mol
DOCKED: USER        vdW + Hbond + desolv Energy     =  -12.50 kcal/mol
DOCKED: USER        Electrostatic Energy            =   +0.00 kcal/mol
DOCKED: USER    (2) Final Total Internal Energy     =   -1.19 kcal/mol
DOCKED: USER    (3) Torsional Free Energy           =   +2.39 kcal/mol
DOCKED: USER    (4) Unbound System's Energy  [=(2)] =   -1.19 kcal/mol
DOCKED: USER    
DOCKED: USER    
DOCKED: USER    NEWDPF move ligand.dum.pdbqt
DOCKED: USER    NEWDPF about 0.003000 -0.142000 -0.069000
DOCKED: USER    NEWDPF tran0 37.595809 14.824412 122.840162
DOCKED: USER    NEWDPF quaternion0 -0.715670 0.398135 -0.301984 0.487965
DOCKED: USER    NEWDPF axisangle0 -0.819911 0.456126 -0.345970 121.586111
DOCKED: USER    NEWDPF quat0 -0.819911 0.456126 -0.345970 121.586111
DOCKED: USER    NEWDPF dihe0 -152.86 -164.00 85.66 73.88 -38.33 89.73 -120.39 130.19 
DOCKED: USER  keepresnum = 1 
DOCKED: USER  
DOCKED: REMARK  Name = 
DOCKED: REMARK  8 active torsions:
DOCKED: REMARK  status: ('A' for Active; 'I' for Inactive)
DOCKED: REMARK    1  A    between atoms: C_2  and  C_5
DOCKED: REMARK    2  A    between atoms: C_5  and  C_6
DOCKED: REMARK    3  A    between atoms: C_6  and  C_7
DOCKED: REMARK    4  A    between atoms: C_7  and  C_8
DOCKED: REMARK    5  A    between atoms: C_8  and  C_9
DOCKED: REMARK    6  A    between atoms: C_9  and  C_10
DOCKED: REMARK    7  A    between atoms: C_10  and  C_11
DOCKED: REMARK    8  A    between atoms: N_12  and  C_13
DOCKED: REMARK                            x       y       z     vdW  Elec       q    Type
DOCKED: REMARK                         _______ _______ _______ _____ _____    ______ ____
DOCKED: USER                              x       y       z     vdW  Elec       q    Type
DOCKED: USER                           _______ _______ _______ _____ _____    ______ ____
DOCKED: ROOT
DOCKED: ATOM      1  C   UNL     1      38.114  15.223 122.332 -0.36 -0.00    +0.000 C 
DOCKED: ENDROOT
DOCKED: BRANCH   1   2
DOCKED: ATOM      2  C   UNL     1      37.459  15.010 121.001 -0.29 -0.00    +0.000 C 
DOCKED: ATOM      3  N   UNL     1      38.126  14.240 119.988 -0.29 -0.00    +0.000 N 
DOCKED: ATOM      4  O   UNL     1      36.323  15.512 120.784 -0.16 -0.00    +0.000 OA
DOCKED: ATOM      5  H   UNL     1      38.922  13.722 120.251 -0.10 -0.00    +0.000 HD
DOCKED: BRANCH   3   6
DOCKED: ATOM      6  C   UNL     1      37.705  14.176 118.615 -0.28 -0.00    +0.000 A 
DOCKED: ATOM      7  C   UNL     1      38.547  14.576 117.563 -0.10 -0.00    +0.000 A 
DOCKED: ATOM      8  C   UNL     1      38.109  14.473 116.241 -0.27 -0.00    +0.000 A 
DOCKED: ATOM      9  C   UNL     1      36.840  13.957 115.979 -0.31 -0.00    +0.000 A 
DOCKED: ATOM     10  N   UNL     1      36.045  13.550 117.004 -0.34 -0.00    +0.000 NA
DOCKED: ATOM     11  C   UNL     1      36.447  13.641 118.299 -0.35 -0.00    +0.000 A 
DOCKED: ATOM     12  CM  UNL     1      37.249  14.048 117.276 +0.00 -0.00    +0.000 AC
DOCKED: ENDBRANCH   3   6
DOCKED: ENDBRANCH   1   2
DOCKED: BRANCH   1  12
DOCKED: ATOM     13  C   UNL     1      37.056  15.324 123.438 -0.40 -0.00    +0.000 C 
DOCKED: BRANCH  12  13
DOCKED: ATOM     14  C   UNL     1      36.307  14.001 123.678 -0.54 -0.00    +0.000 C 
DOCKED: BRANCH  13  14
DOCKED: ATOM     15  C   UNL     1      37.111  12.729 123.351 -0.62 -0.00    +0.000 C 
DOCKED: BRANCH  14  15
DOCKED: ATOM     16  C   UNL     1      36.742  12.120 121.988 -0.58 -0.00    +0.000 C 
DOCKED: BRANCH  15  16
DOCKED: ATOM     17  C   UNL     1      35.809  10.911 122.125 -0.55 -0.00    +0.000 C 
DOCKED: BRANCH  16  18
DOCKED: ATOM     18  O   UNL     1      37.069   9.156 121.099 -2.73 -0.00    +0.000 OA
DOCKED: ATOM     19  C   UNL     1      36.570   9.618 122.162 -0.68 -0.00    +0.000 C 
DOCKED: ATOM     20  N   UNL     1      36.709   8.893 123.385 -0.60 -0.00    +0.000 N 
DOCKED: ATOM     21  O   UNL     1      37.384   7.720 123.415 -2.59 -0.00    +0.000 OA
DOCKED: ATOM     22  H   UNL     1      36.312   9.249 124.213 -0.34 -0.00    +0.000 HD
DOCKED: ENDBRANCH  16  18
DOCKED: ENDBRANCH  15  16
DOCKED: ENDBRANCH  14  15
DOCKED: ENDBRANCH  13  14
DOCKED: ENDBRANCH  12  13
DOCKED: ENDBRANCH   1  12
DOCKED: TORSDOF 8DOCKED: TER
DOCKED: ENDMDL
________________________________________________________________________________


	BEGINNING GENETIC ALGORITHM DOCKING 7 of 100
Run: 7 Seed: 2078531360 218564975 [ Run 7 of 100 GA/GALS ]
Beginning LAMARCKIAN GENETIC ALGORITHM (LGA), with a maximum of 2500000 energy evaluations.

Final-Value: -12.956


	FINAL GENETIC ALGORITHM DOCKED STATE
	_______________________________________________


Detailed state:  trans 35.306 14.030 124.069 quatxyzw 0.142142 -0.575585 0.601674 -0.535244 center 0.003 -0.142 -0.069 ntor 8 -68.3731 175.7878 131.1930 -150.1050 -22.5589 -168.0266 38.0654 -174.5253
State:	 35.306  14.030 124.069   0.168 -0.681  0.712 -115.279    -68.37  175.79  131.19 -150.10  -22.56 -168.03   38.07 -174.53

DOCKED: MODEL        7
DOCKED: USER    Run = 7
DOCKED: USER    DPF = ligand_dock.biased.dpf
DOCKED: USER  
DOCKED: USER    Estimated Free Energy of Binding    =   -8.89 kcal/mol  [=(1)+(2)+(3)-(4)]
DOCKED: USER    Estimated Inhibition Constant, Ki   =  302.65 nM (nanomolar)  [Temperature = 298.15 K]
DOCKED: USER    
DOCKED: USER    (1) Final Intermolecular Energy     =  -11.28 kcal/mol
DOCKED: USER        vdW + Hbond + desolv Energy     =  -11.28 kcal/mol
DOCKED: USER        Electrostatic Energy            =   +0.00 kcal/mol
DOCKED: USER    (2) Final Total Internal Energy     =   -1.68 kcal/mol
DOCKED: USER    (3) Torsional Free Energy           =   +2.39 kcal/mol
DOCKED: USER    (4) Unbound System's Energy  [=(2)] =   -1.68 kcal/mol
DOCKED: USER    
DOCKED: USER    
DOCKED: USER    NEWDPF move ligand.dum.pdbqt
DOCKED: USER    NEWDPF about 0.003000 -0.142000 -0.069000
DOCKED: USER    NEWDPF tran0 35.305722 14.030227 124.068865
DOCKED: USER    NEWDPF quaternion0 0.142142 -0.575585 0.601674 -0.535244
DOCKED: USER    NEWDPF axisangle0 0.168276 -0.681409 0.712295 -115.279072
DOCKED: USER    NEWDPF quat0 0.168276 -0.681409 0.712295 -115.279072
DOCKED: USER    NEWDPF dihe0 -68.37 175.79 131.19 -150.10 -22.56 -168.03 38.07 -174.53 
DOCKED: USER  keepresnum = 1 
DOCKED: USER  
DOCKED: REMARK  Name = 
DOCKED: REMARK  8 active torsions:
DOCKED: REMARK  status: ('A' for Active; 'I' for Inactive)
DOCKED: REMARK    1  A    between atoms: C_2  and  C_5
DOCKED: REMARK    2  A    between atoms: C_5  and  C_6
DOCKED: REMARK    3  A    between atoms: C_6  and  C_7
DOCKED: REMARK    4  A    between atoms: C_7  and  C_8
DOCKED: REMARK    5  A    between atoms: C_8  and  C_9
DOCKED: REMARK    6  A    between atoms: C_9  and  C_10
DOCKED: REMARK    7  A    between atoms: C_10  and  C_11
DOCKED: REMARK    8  A    between atoms: N_12  and  C_13
DOCKED: REMARK                            x       y       z     vdW  Elec       q    Type
DOCKED: REMARK                         _______ _______ _______ _____ _____    ______ ____
DOCKED: USER                              x       y       z     vdW  Elec       q    Type
DOCKED: USER                           _______ _______ _______ _____ _____    ______ ____
DOCKED: ROOT
DOCKED: ATOM      1  C   UNL     1      36.104  13.873 124.218 -0.37 -0.00    +0.000 C 
DOCKED: ENDROOT
DOCKED: BRANCH   1   2
DOCKED: ATOM      2  C   UNL     1      36.352  12.690 123.331 -0.65 -0.00    +0.000 C 
DOCKED: ATOM      3  N   UNL     1      35.599  11.481 123.522 -0.61 -0.00    +0.000 N 
DOCKED: ATOM      4  O   UNL     1      37.223  12.769 122.424 -0.54 -0.00    +0.000 OA
DOCKED: ATOM      5  H   UNL     1      34.815  11.514 124.118 -0.26 -0.00    +0.000 HD
DOCKED: BRANCH   3   6
DOCKED: ATOM      6  C   UNL     1      35.917  10.226 122.898 -0.60 -0.00    +0.000 A 
DOCKED: ATOM      7  C   UNL     1      35.341   9.018 123.326 -0.37 -0.00    +0.000 A 
DOCKED: ATOM      8  C   UNL     1      35.656   7.824 122.675 -0.65 -0.00    +0.000 A 
DOCKED: ATOM      9  C   UNL     1      36.533   7.846 121.590 -0.42 -0.00    +0.000 A 
DOCKED: ATOM     10  N   UNL     1      37.066   9.025 121.170 -2.62 -0.00    +0.000 NA
DOCKED: ATOM     11  C   UNL     1      36.775  10.201 121.787 -0.44 -0.00    +0.000 A 
DOCKED: ATOM     12  CM  UNL     1      36.237   9.023 122.212 +0.00 -0.00    +0.000 AC
DOCKED: ENDBRANCH   3   6
DOCKED: ENDBRANCH   1   2
DOCKED: BRANCH   1  12
DOCKED: ATOM     13  C   UNL     1      35.069  14.809 123.583 -0.47 -0.00    +0.000 C 
DOCKED: BRANCH  12  13
DOCKED: ATOM     14  C   UNL     1      35.482  16.291 123.641 -0.43 -0.00    +0.000 C 
DOCKED: BRANCH  13  14
DOCKED: ATOM     15  C   UNL     1      35.371  17.051 122.307 -0.32 -0.00    +0.000 C 
DOCKED: BRANCH  14  15
DOCKED: ATOM     16  C   UNL     1      36.613  16.884 121.415 -0.20 -0.00    +0.000 C 
DOCKED: BRANCH  15  16
DOCKED: ATOM     17  C   UNL     1      37.239  15.490 121.548 -0.27 -0.00    +0.000 C 
DOCKED: BRANCH  16  18
DOCKED: ATOM     18  O   UNL     1      39.016  16.626 122.675 -0.24 -0.00    +0.000 OA
DOCKED: ATOM     19  C   UNL     1      38.605  15.547 122.169 -0.32 -0.00    +0.000 C 
DOCKED: ATOM     20  N   UNL     1      39.451  14.395 122.166 -0.38 -0.00    +0.000 N 
DOCKED: ATOM     21  O   UNL     1      40.687  14.451 122.714 -1.07 -0.00    +0.000 OA
DOCKED: ATOM     22  H   UNL     1      39.133  13.555 121.763 -0.03 -0.00    +0.000 HD
DOCKED: ENDBRANCH  16  18
DOCKED: ENDBRANCH  15  16
DOCKED: ENDBRANCH  14  15
DOCKED: ENDBRANCH  13  14
DOCKED: ENDBRANCH  12  13
DOCKED: ENDBRANCH   1  12
DOCKED: TORSDOF 8DOCKED: TER
DOCKED: ENDMDL
________________________________________________________________________________


	BEGINNING GENETIC ALGORITHM DOCKING 8 of 100
Run: 8 Seed: 1418896191 701055234 [ Run 8 of 100 GA/GALS ]
Beginning LAMARCKIAN GENETIC ALGORITHM (LGA), with a maximum of 2500000 energy evaluations.

Final-Value: -14.183


	FINAL GENETIC ALGORITHM DOCKED STATE
	_______________________________________________


Detailed state:  trans 36.769 12.025 121.603 quatxyzw 0.478066 0.607609 -0.479614 0.415012 center 0.003 -0.142 -0.069 ntor 8 10.9234 -176.3202 -170.3620 119.5162 -177.9716 113.1092 -35.8168 110.0554
State:	 36.769  12.025 121.603   0.525  0.668 -0.527 130.960     10.92 -176.32 -170.36  119.52 -177.97  113.11  -35.82  110.06

DOCKED: MODEL        8
DOCKED: USER    Run = 8
DOCKED: USER    DPF = ligand_dock.biased.dpf
DOCKED: USER  
DOCKED: USER    Estimated Free Energy of Binding    =  -10.98 kcal/mol  [=(1)+(2)+(3)-(4)]
DOCKED: USER    Estimated Inhibition Constant, Ki   =    8.92 nM (nanomolar)  [Temperature = 298.15 K]
DOCKED: USER    
DOCKED: USER    (1) Final Intermolecular Energy     =  -13.37 kcal/mol
DOCKED: USER        vdW + Hbond + desolv Energy     =  -13.37 kcal/mol
DOCKED: USER        Electrostatic Energy            =   +0.00 kcal/mol
DOCKED: USER    (2) Final Total Internal Energy     =   -0.81 kcal/mol
DOCKED: USER    (3) Torsional Free Energy           =   +2.39 kcal/mol
DOCKED: USER    (4) Unbound System's Energy  [=(2)] =   -0.81 kcal/mol
DOCKED: USER    
DOCKED: USER    
DOCKED: USER    NEWDPF move ligand.dum.pdbqt
DOCKED: USER    NEWDPF about 0.003000 -0.142000 -0.069000
DOCKED: USER    NEWDPF tran0 36.769232 12.025332 121.603072
DOCKED: USER    NEWDPF quaternion0 0.478066 0.607609 -0.479614 0.415012
DOCKED: USER    NEWDPF axisangle0 0.525454 0.667837 -0.527155 130.959854
DOCKED: USER    NEWDPF quat0 0.525454 0.667837 -0.527155 130.959854
DOCKED: USER    NEWDPF dihe0 10.92 -176.32 -170.36 119.52 -177.97 113.11 -35.82 110.06 
DOCKED: USER  keepresnum = 1 
DOCKED: USER  
DOCKED: REMARK  Name = 
DOCKED: REMARK  8 active torsions:
DOCKED: REMARK  status: ('A' for Active; 'I' for Inactive)
DOCKED: REMARK    1  A    between atoms: C_2  and  C_5
DOCKED: REMARK    2  A    between atoms: C_5  and  C_6
DOCKED: REMARK    3  A    between atoms: C_6  and  C_7
DOCKED: REMARK    4  A    between atoms: C_7  and  C_8
DOCKED: REMARK    5  A    between atoms: C_8  and  C_9
DOCKED: REMARK    6  A    between atoms: C_9  and  C_10
DOCKED: REMARK    7  A    between atoms: C_10  and  C_11
DOCKED: REMARK    8  A    between atoms: N_12  and  C_13
DOCKED: REMARK                            x       y       z     vdW  Elec       q    Type
DOCKED: REMARK                         _______ _______ _______ _____ _____    ______ ____
DOCKED: USER                              x       y       z     vdW  Elec       q    Type
DOCKED: USER                           _______ _______ _______ _____ _____    ______ ____
DOCKED: ROOT
DOCKED: ATOM      1  C   UNL     1      36.854  11.734 122.373 -0.62 -0.00    +0.000 C 
DOCKED: ENDROOT
DOCKED: BRANCH   1   2
DOCKED: ATOM      2  C   UNL     1      36.522  10.284 122.187 -0.65 -0.00    +0.000 C 
DOCKED: ATOM      3  N   UNL     1      35.657   9.621 123.124 -0.60 -0.00    +0.000 N 
DOCKED: ATOM      4  O   UNL     1      37.009   9.659 121.207 -2.30 -0.00    +0.000 OA
DOCKED: ATOM      5  H   UNL     1      35.161  10.177 123.768 -0.33 -0.00    +0.000 HD
DOCKED: BRANCH   3   6
DOCKED: ATOM      6  C   UNL     1      35.468   8.197 123.178 -0.60 -0.00    +0.000 A 
DOCKED: ATOM      7  C   UNL     1      34.192   7.624 123.313 -0.63 -0.00    +0.000 A 
DOCKED: ATOM      8  C   UNL     1      34.049   6.235 123.335 -0.67 -0.00    +0.000 A 
DOCKED: ATOM      9  C   UNL     1      35.181   5.428 123.207 -0.51 -0.00    +0.000 A 
DOCKED: ATOM     10  N   UNL     1      36.407   5.995 123.053 -0.97 -0.00    +0.000 NA
DOCKED: ATOM     11  C   UNL     1      36.573   7.344 123.029 -0.70 -0.00    +0.000 A 
DOCKED: ATOM     12  CM  UNL     1      35.341   6.782 123.182 +0.00 -0.00    +0.000 AC
DOCKED: ENDBRANCH   3   6
DOCKED: ENDBRANCH   1   2
DOCKED: BRANCH   1  12
DOCKED: ATOM     13  C   UNL     1      37.540  12.289 121.119 -0.49 -0.00    +0.000 C 
DOCKED: BRANCH  12  13
DOCKED: ATOM     14  C   UNL     1      37.303  13.797 120.920 -0.39 -0.00    +0.000 C 
DOCKED: BRANCH  13  14
DOCKED: ATOM     15  C   UNL     1      37.625  14.674 122.144 -0.40 -0.00    +0.000 C 
DOCKED: BRANCH  14  15
DOCKED: ATOM     16  C   UNL     1      38.719  15.719 121.862 -0.28 -0.00    +0.000 C 
DOCKED: BRANCH  15  16
DOCKED: ATOM     17  C   UNL     1      40.010  15.080 121.337 -0.31 -0.00    +0.000 C 
DOCKED: BRANCH  16  18
DOCKED: ATOM     18  O   UNL     1      41.185  14.089 123.169 -1.00 +0.00    +0.000 OA
DOCKED: ATOM     19  C   UNL     1      41.092  15.067 122.378 -0.51 -0.00    +0.000 C 
DOCKED: ATOM     20  N   UNL     1      41.996  16.167 122.497 -0.39 -0.00    +0.000 N 
DOCKED: ATOM     21  O   UNL     1      42.962  16.162 123.446 -1.03 +0.00    +0.000 OA
DOCKED: ATOM     22  H   UNL     1      41.916  16.934 121.885 +0.00 -0.00    +0.000 HD
DOCKED: ENDBRANCH  16  18
DOCKED: ENDBRANCH  15  16
DOCKED: ENDBRANCH  14  15
DOCKED: ENDBRANCH  13  14
DOCKED: ENDBRANCH  12  13
DOCKED: ENDBRANCH   1  12
DOCKED: TORSDOF 8DOCKED: TER
DOCKED: ENDMDL
________________________________________________________________________________


	BEGINNING GENETIC ALGORITHM DOCKING 9 of 100
Run: 9 Seed: 550871793 1388756294 [ Run 9 of 100 GA/GALS ]
Beginning LAMARCKIAN GENETIC ALGORITHM (LGA), with a maximum of 2500000 energy evaluations.

Final-Value: -13.006


	FINAL GENETIC ALGORITHM DOCKED STATE
	_______________________________________________


Detailed state:  trans 37.728 14.632 121.681 quatxyzw 0.066816 0.161976 0.981691 -0.074716 center 0.003 -0.142 -0.069 ntor 8 -0.6949 149.1444 41.8773 179.6038 178.8837 -177.4800 -120.7013 102.5575
State:	 37.728  14.632 121.681   0.067  0.162  0.984 -171.430     -0.69  149.14   41.88  179.60  178.88 -177.48 -120.70  102.56

DOCKED: MODEL        9
DOCKED: USER    Run = 9
DOCKED: USER    DPF = ligand_dock.biased.dpf
DOCKED: USER  
DOCKED: USER    Estimated Free Energy of Binding    =   -9.79 kcal/mol  [=(1)+(2)+(3)-(4)]
DOCKED: USER    Estimated Inhibition Constant, Ki   =   66.89 nM (nanomolar)  [Temperature = 298.15 K]
DOCKED: USER    
DOCKED: USER    (1) Final Intermolecular Energy     =  -12.17 kcal/mol
DOCKED: USER        vdW + Hbond + desolv Energy     =  -12.17 kcal/mol
DOCKED: USER        Electrostatic Energy            =   +0.00 kcal/mol
DOCKED: USER    (2) Final Total Internal Energy     =   -0.83 kcal/mol
DOCKED: USER    (3) Torsional Free Energy           =   +2.39 kcal/mol
DOCKED: USER    (4) Unbound System's Energy  [=(2)] =   -0.83 kcal/mol
DOCKED: USER    
DOCKED: USER    
DOCKED: USER    NEWDPF move ligand.dum.pdbqt
DOCKED: USER    NEWDPF about 0.003000 -0.142000 -0.069000
DOCKED: USER    NEWDPF tran0 37.727602 14.631902 121.681052
DOCKED: USER    NEWDPF quaternion0 0.066816 0.161976 0.981691 -0.074716
DOCKED: USER    NEWDPF axisangle0 0.067003 0.162430 0.984443 -171.430176
DOCKED: USER    NEWDPF quat0 0.067003 0.162430 0.984443 -171.430176
DOCKED: USER    NEWDPF dihe0 -0.69 149.14 41.88 179.60 178.88 -177.48 -120.70 102.56 
DOCKED: USER  keepresnum = 1 
DOCKED: USER  
DOCKED: REMARK  Name = 
DOCKED: REMARK  8 active torsions:
DOCKED: REMARK  status: ('A' for Active; 'I' for Inactive)
DOCKED: REMARK    1  A    between atoms: C_2  and  C_5
DOCKED: REMARK    2  A    between atoms: C_5  and  C_6
DOCKED: REMARK    3  A    between atoms: C_6  and  C_7
DOCKED: REMARK    4  A    between atoms: C_7  and  C_8
DOCKED: REMARK    5  A    between atoms: C_8  and  C_9
DOCKED: REMARK    6  A    between atoms: C_9  and  C_10
DOCKED: REMARK    7  A    between atoms: C_10  and  C_11
DOCKED: REMARK    8  A    between atoms: N_12  and  C_13
DOCKED: REMARK                            x       y       z     vdW  Elec       q    Type
DOCKED: REMARK                         _______ _______ _______ _____ _____    ______ ____
DOCKED: USER                              x       y       z     vdW  Elec       q    Type
DOCKED: USER                           _______ _______ _______ _____ _____    ______ ____
DOCKED: ROOT
DOCKED: ATOM      1  C   UNL     1      38.057  15.247 121.235 -0.28 -0.00    +0.000 C 
DOCKED: ENDROOT
DOCKED: BRANCH   1   2
DOCKED: ATOM      2  C   UNL     1      39.489  15.209 121.677 -0.34 -0.00    +0.000 C 
DOCKED: ATOM      3  N   UNL     1      40.224  16.434 121.830 -0.20 -0.00    +0.000 N 
DOCKED: ATOM      4  O   UNL     1      40.035  14.097 121.910 -0.99 +0.00    +0.000 OA
DOCKED: ATOM      5  H   UNL     1      39.721  17.280 121.810 +0.01 -0.00    +0.000 HD
DOCKED: BRANCH   3   6
DOCKED: ATOM      6  C   UNL     1      41.649  16.502 122.012 -0.28 -0.00    +0.000 A 
DOCKED: ATOM      7  C   UNL     1      42.541  16.321 120.942 -0.22 -0.00    +0.000 A 
DOCKED: ATOM      8  C   UNL     1      43.917  16.422 121.155 -0.24 -0.00    +0.000 A 
DOCKED: ATOM      9  C   UNL     1      44.392  16.717 122.434 -0.27 -0.00    +0.000 A 
DOCKED: ATOM     10  N   UNL     1      43.517  16.914 123.456 -0.45 -0.00    +0.000 NA
DOCKED: ATOM     11  C   UNL     1      42.173  16.821 123.274 -0.34 -0.00    +0.000 A 
DOCKED: ATOM     12  CM  UNL     1      43.045  16.625 122.245 +0.00 -0.00    +0.000 AC
DOCKED: ENDBRANCH   3   6
DOCKED: ENDBRANCH   1   2
DOCKED: BRANCH   1  12
DOCKED: ATOM     13  C   UNL     1      37.458  13.835 121.245 -0.42 -0.00    +0.000 C 
DOCKED: BRANCH  12  13
DOCKED: ATOM     14  C   UNL     1      37.329  13.245 122.661 -0.55 -0.00    +0.000 C 
DOCKED: BRANCH  13  14
DOCKED: ATOM     15  C   UNL     1      35.899  12.854 123.075 -0.50 -0.00    +0.000 C 
DOCKED: BRANCH  14  15
DOCKED: ATOM     16  C   UNL     1      35.739  11.346 123.333 -0.63 -0.00    +0.000 C 
DOCKED: BRANCH  15  16
DOCKED: ATOM     17  C   UNL     1      37.071  10.594 123.223 -0.58 -0.00    +0.000 C 
DOCKED: BRANCH  16  18
DOCKED: ATOM     18  O   UNL     1      36.786   9.209 121.294 -2.58 -0.00    +0.000 OA
DOCKED: ATOM     19  C   UNL     1      36.908   9.263 122.548 -0.68 -0.00    +0.000 C 
DOCKED: ATOM     20  N   UNL     1      36.861   8.061 123.319 -0.74 -0.00    +0.000 N 
DOCKED: ATOM     21  O   UNL     1      36.699   6.862 122.712 -1.53 -0.00    +0.000 OA
DOCKED: ATOM     22  H   UNL     1      36.947   8.104 124.299 -0.35 -0.00    +0.000 HD
DOCKED: ENDBRANCH  16  18
DOCKED: ENDBRANCH  15  16
DOCKED: ENDBRANCH  14  15
DOCKED: ENDBRANCH  13  14
DOCKED: ENDBRANCH  12  13
DOCKED: ENDBRANCH   1  12
DOCKED: TORSDOF 8DOCKED: TER
DOCKED: ENDMDL
________________________________________________________________________________


	BEGINNING GENETIC ALGORITHM DOCKING 10 of 100
Run: 10 Seed: 279526237 421173615 [ Run 10 of 100 GA/GALS ]
Beginning LAMARCKIAN GENETIC ALGORITHM (LGA), with a maximum of 2500000 energy evaluations.

Final-Value: -13.162


	FINAL GENETIC ALGORITHM DOCKED STATE
	_______________________________________________


Detailed state:  trans 37.633 15.060 122.175 quatxyzw 0.886552 -0.294087 -0.351883 0.060961 center 0.003 -0.142 -0.069 ntor 8 33.0823 149.6773 48.0120 98.0321 142.3249 -162.3148 158.3838 6.6555
State:	 37.633  15.060 122.175   0.888 -0.295 -0.353 173.010     33.08  149.68   48.01   98.03  142.32 -162.31  158.38    6.66

DOCKED: MODEL       10
DOCKED: USER    Run = 10
DOCKED: USER    DPF = ligand_dock.biased.dpf
DOCKED: USER  
DOCKED: USER    Estimated Free Energy of Binding    =   -9.79 kcal/mol  [=(1)+(2)+(3)-(4)]
DOCKED: USER    Estimated Inhibition Constant, Ki   =   66.87 nM (nanomolar)  [Temperature = 298.15 K]
DOCKED: USER    
DOCKED: USER    (1) Final Intermolecular Energy     =  -12.17 kcal/mol
DOCKED: USER        vdW + Hbond + desolv Energy     =  -12.17 kcal/mol
DOCKED: USER        Electrostatic Energy            =   +0.00 kcal/mol
DOCKED: USER    (2) Final Total Internal Energy     =   -0.99 kcal/mol
DOCKED: USER    (3) Torsional Free Energy           =   +2.39 kcal/mol
DOCKED: USER    (4) Unbound System's Energy  [=(2)] =   -0.99 kcal/mol
DOCKED: USER    
DOCKED: USER    
DOCKED: USER    NEWDPF move ligand.dum.pdbqt
DOCKED: USER    NEWDPF about 0.003000 -0.142000 -0.069000
DOCKED: USER    NEWDPF tran0 37.632956 15.060084 122.174897
DOCKED: USER    NEWDPF quaternion0 0.886552 -0.294087 -0.351883 0.060961
DOCKED: USER    NEWDPF axisangle0 0.888204 -0.294635 -0.352538 173.010012
DOCKED: USER    NEWDPF quat0 0.888204 -0.294635 -0.352538 173.010012
DOCKED: USER    NEWDPF dihe0 33.08 149.68 48.01 98.03 142.32 -162.31 158.38 6.66 
DOCKED: USER  keepresnum = 1 
DOCKED: USER  
DOCKED: REMARK  Name = 
DOCKED: REMARK  8 active torsions:
DOCKED: REMARK  status: ('A' for Active; 'I' for Inactive)
DOCKED: REMARK    1  A    between atoms: C_2  and  C_5
DOCKED: REMARK    2  A    between atoms: C_5  and  C_6
DOCKED: REMARK    3  A    between atoms: C_6  and  C_7
DOCKED: REMARK    4  A    between atoms: C_7  and  C_8
DOCKED: REMARK    5  A    between atoms: C_8  and  C_9
DOCKED: REMARK    6  A    between atoms: C_9  and  C_10
DOCKED: REMARK    7  A    between atoms: C_10  and  C_11
DOCKED: REMARK    8  A    between atoms: N_12  and  C_13
DOCKED: REMARK                            x       y       z     vdW  Elec       q    Type
DOCKED: REMARK                         _______ _______ _______ _____ _____    ______ ____
DOCKED: USER                              x       y       z     vdW  Elec       q    Type
DOCKED: USER                           _______ _______ _______ _____ _____    ______ ____
DOCKED: ROOT
DOCKED: ATOM      1  C   UNL     1      38.014  15.757 122.408 -0.31 -0.00    +0.000 C 
DOCKED: ENDROOT
DOCKED: BRANCH   1   2
DOCKED: ATOM      2  C   UNL     1      36.856  16.605 122.841 -0.28 -0.00    +0.000 C 
DOCKED: ATOM      3  N   UNL     1      36.797  17.106 124.186 -0.25 -0.00    +0.000 N 
DOCKED: ATOM      4  O   UNL     1      35.941  16.870 122.014 -0.27 -0.00    +0.000 OA
DOCKED: ATOM      5  H   UNL     1      37.604  17.027 124.744 -0.02 -0.00    +0.000 HD
DOCKED: BRANCH   3   6
DOCKED: ATOM      6  C   UNL     1      35.633  17.717 124.769 -0.26 -0.00    +0.000 A 
DOCKED: ATOM      7  C   UNL     1      34.593  16.951 125.321 -0.36 -0.00    +0.000 A 
DOCKED: ATOM      8  C   UNL     1      33.492  17.584 125.902 -0.25 -0.00    +0.000 A 
DOCKED: ATOM      9  C   UNL     1      33.445  18.977 125.940 -0.26 -0.00    +0.000 A 
DOCKED: ATOM     10  N   UNL     1      34.469  19.708 125.423 -0.21 -0.00    +0.000 NA
DOCKED: ATOM     11  C   UNL     1      35.552  19.115 124.853 -0.20 -0.00    +0.000 A 
DOCKED: ATOM     12  CM  UNL     1      34.529  18.379 125.370 -0.32 -0.00    +0.000 AC
DOCKED: ENDBRANCH   3   6
DOCKED: ENDBRANCH   1   2
DOCKED: BRANCH   1  12
DOCKED: ATOM     13  C   UNL     1      37.731  14.279 122.702 -0.47 -0.00    +0.000 C 
DOCKED: BRANCH  12  13
DOCKED: ATOM     14  C   UNL     1      36.534  14.070 123.647 -0.51 -0.00    +0.000 C 
DOCKED: BRANCH  13  14
DOCKED: ATOM     15  C   UNL     1      35.568  12.944 123.236 -0.30 -0.00    +0.000 C 
DOCKED: BRANCH  14  15
DOCKED: ATOM     16  C   UNL     1      36.077  11.545 123.624 -0.68 -0.00    +0.000 C 
DOCKED: BRANCH  15  16
DOCKED: ATOM     17  C   UNL     1      37.172  11.042 122.675 -0.47 -0.00    +0.000 C 
DOCKED: BRANCH  16  18
DOCKED: ATOM     18  O   UNL     1      36.685   9.216 121.209 -2.62 -0.00    +0.000 OA
DOCKED: ATOM     19  C   UNL     1      37.018   9.580 122.370 -0.62 -0.00    +0.000 C 
DOCKED: ATOM     20  N   UNL     1      37.218   8.601 123.392 -0.64 -0.00    +0.000 N 
DOCKED: ATOM     21  O   UNL     1      37.066   7.284 123.119 -2.27 -0.00    +0.000 OA
DOCKED: ATOM     22  H   UNL     1      37.469   8.886 124.300 -0.60 -0.00    +0.000 HD
DOCKED: ENDBRANCH  16  18
DOCKED: ENDBRANCH  15  16
DOCKED: ENDBRANCH  14  15
DOCKED: ENDBRANCH  13  14
DOCKED: ENDBRANCH  12  13
DOCKED: ENDBRANCH   1  12
DOCKED: TORSDOF 8DOCKED: TER
DOCKED: ENDMDL
________________________________________________________________________________


	BEGINNING GENETIC ALGORITHM DOCKING 11 of 100
Run: 11 Seed: 1111841318 1643017446 [ Run 11 of 100 GA/GALS ]
Beginning LAMARCKIAN GENETIC ALGORITHM (LGA), with a maximum of 2500000 energy evaluations.

Final-Value: -12.665


	FINAL GENETIC ALGORITHM DOCKED STATE
	_______________________________________________


Detailed state:  trans 35.995 13.460 122.724 quatxyzw -0.425813 -0.760371 0.464992 -0.155890 center 0.003 -0.142 -0.069 ntor 8 -175.5486 -4.6268 124.3868 -23.9987 -18.1513 -154.9603 173.8584 163.2626
State:	 35.995  13.460 122.724  -0.431 -0.770  0.471 -162.063   -175.55   -4.63  124.39  -24.00  -18.15 -154.96  173.86  163.26

DOCKED: MODEL       11
DOCKED: USER    Run = 11
DOCKED: USER    DPF = ligand_dock.biased.dpf
DOCKED: USER  
DOCKED: USER    Estimated Free Energy of Binding    =   -9.51 kcal/mol  [=(1)+(2)+(3)-(4)]
DOCKED: USER    Estimated Inhibition Constant, Ki   =  106.06 nM (nanomolar)  [Temperature = 298.15 K]
DOCKED: USER    
DOCKED: USER    (1) Final Intermolecular Energy     =  -11.90 kcal/mol
DOCKED: USER        vdW + Hbond + desolv Energy     =  -11.90 kcal/mol
DOCKED: USER        Electrostatic Energy            =   +0.00 kcal/mol
DOCKED: USER    (2) Final Total Internal Energy     =   -0.76 kcal/mol
DOCKED: USER    (3) Torsional Free Energy           =   +2.39 kcal/mol
DOCKED: USER    (4) Unbound System's Energy  [=(2)] =   -0.76 kcal/mol
DOCKED: USER    
DOCKED: USER    
DOCKED: USER    NEWDPF move ligand.dum.pdbqt
DOCKED: USER    NEWDPF about 0.003000 -0.142000 -0.069000
DOCKED: USER    NEWDPF tran0 35.994818 13.459535 122.724494
DOCKED: USER    NEWDPF quaternion0 -0.425813 -0.760371 0.464992 -0.155890
DOCKED: USER    NEWDPF axisangle0 -0.431083 -0.769782 0.470747 -162.063216
DOCKED: USER    NEWDPF quat0 -0.431083 -0.769782 0.470747 -162.063216
DOCKED: USER    NEWDPF dihe0 -175.55 -4.63 124.39 -24.00 -18.15 -154.96 173.86 163.26 
DOCKED: USER  keepresnum = 1 
DOCKED: USER  
DOCKED: REMARK  Name = 
DOCKED: REMARK  8 active torsions:
DOCKED: REMARK  status: ('A' for Active; 'I' for Inactive)
DOCKED: REMARK    1  A    between atoms: C_2  and  C_5
DOCKED: REMARK    2  A    between atoms: C_5  and  C_6
DOCKED: REMARK    3  A    between atoms: C_6  and  C_7
DOCKED: REMARK    4  A    between atoms: C_7  and  C_8
DOCKED: REMARK    5  A    between atoms: C_8  and  C_9
DOCKED: REMARK    6  A    between atoms: C_9  and  C_10
DOCKED: REMARK    7  A    between atoms: C_10  and  C_11
DOCKED: REMARK    8  A    between atoms: N_12  and  C_13
DOCKED: REMARK                            x       y       z     vdW  Elec       q    Type
DOCKED: REMARK                         _______ _______ _______ _____ _____    ______ ____
DOCKED: USER                              x       y       z     vdW  Elec       q    Type
DOCKED: USER                           _______ _______ _______ _____ _____    ______ ____
DOCKED: ROOT
DOCKED: ATOM      1  C   UNL     1      35.881  13.194 123.500 -0.58 -0.00    +0.000 C 
DOCKED: ENDROOT
DOCKED: BRANCH   1   2
DOCKED: ATOM      2  C   UNL     1      36.287  11.755 123.391 -0.70 -0.00    +0.000 C 
DOCKED: ATOM      3  N   UNL     1      35.351  10.781 122.902 -0.58 -0.00    +0.000 N 
DOCKED: ATOM      4  O   UNL     1      37.452  11.414 123.732 -0.69 -0.00    +0.000 OA
DOCKED: ATOM      5  H   UNL     1      34.521  11.107 122.485 -0.10 -0.00    +0.000 HD
DOCKED: BRANCH   3   6
DOCKED: ATOM      6  C   UNL     1      35.551   9.359 122.983 -0.57 -0.00    +0.000 A 
DOCKED: ATOM      7  C   UNL     1      34.478   8.455 122.900 -0.60 -0.00    +0.000 A 
DOCKED: ATOM      8  C   UNL     1      34.718   7.081 122.955 -0.66 -0.00    +0.000 A 
DOCKED: ATOM      9  C   UNL     1      36.029   6.619 123.078 -0.69 -0.00    +0.000 A 
DOCKED: ATOM     10  N   UNL     1      37.060   7.503 123.133 -2.29 -0.00    +0.000 NA
DOCKED: ATOM     11  C   UNL     1      36.853   8.846 123.081 -0.61 -0.00    +0.000 A 
DOCKED: ATOM     12  CM  UNL     1      35.816   7.964 123.024 +0.00 -0.00    +0.000 AC
DOCKED: ENDBRANCH   3   6
DOCKED: ENDBRANCH   1   2
DOCKED: BRANCH   1  12
DOCKED: ATOM     13  C   UNL     1      36.707  14.056 122.538 -0.45 -0.00    +0.000 C 
DOCKED: BRANCH  12  13
DOCKED: ATOM     14  C   UNL     1      37.698  13.235 121.692 -0.48 -0.00    +0.000 C 
DOCKED: BRANCH  13  14
DOCKED: ATOM     15  C   UNL     1      37.891  13.734 120.249 -0.40 -0.00    +0.000 C 
DOCKED: BRANCH  14  15
DOCKED: ATOM     16  C   UNL     1      36.768  13.279 119.301 -0.40 -0.00    +0.000 C 
DOCKED: BRANCH  15  16
DOCKED: ATOM     17  C   UNL     1      36.700  14.133 118.029 -0.37 -0.00    +0.000 C 
DOCKED: BRANCH  16  18
DOCKED: ATOM     18  O   UNL     1      38.858  14.812 117.257 -0.24 -0.00    +0.000 OA
DOCKED: ATOM     19  C   UNL     1      37.925  13.968 117.178 -0.33 -0.00    +0.000 C 
DOCKED: ATOM     20  N   UNL     1      38.029  12.877 116.261 -0.45 -0.00    +0.000 N 
DOCKED: ATOM     21  O   UNL     1      39.128  12.736 115.483 -0.67 -0.00    +0.000 OA
DOCKED: ATOM     22  H   UNL     1      37.296  12.223 116.193 -0.03 -0.00    +0.000 HD
DOCKED: ENDBRANCH  16  18
DOCKED: ENDBRANCH  15  16
DOCKED: ENDBRANCH  14  15
DOCKED: ENDBRANCH  13  14
DOCKED: ENDBRANCH  12  13
DOCKED: ENDBRANCH   1  12
DOCKED: TORSDOF 8DOCKED: TER
DOCKED: ENDMDL
________________________________________________________________________________


	BEGINNING GENETIC ALGORITHM DOCKING 12 of 100
Run: 12 Seed: 20858148 1819705495 [ Run 12 of 100 GA/GALS ]
Beginning LAMARCKIAN GENETIC ALGORITHM (LGA), with a maximum of 2500000 energy evaluations.

Final-Value: -12.244


	FINAL GENETIC ALGORITHM DOCKED STATE
	_______________________________________________


Detailed state:  trans 37.798 15.603 122.146 quatxyzw 0.782166 -0.504792 -0.171490 0.322479 center 0.003 -0.142 -0.069 ntor 8 114.3735 153.6830 92.5663 56.7611 128.6421 -90.4152 93.2319 -176.4813
State:	 37.798  15.603 122.146   0.826 -0.533 -0.181 142.374    114.37  153.68   92.57   56.76  128.64  -90.42   93.23 -176.48

DOCKED: MODEL       12
DOCKED: USER    Run = 12
DOCKED: USER    DPF = ligand_dock.biased.dpf
DOCKED: USER  
DOCKED: USER    Estimated Free Energy of Binding    =   -9.09 kcal/mol  [=(1)+(2)+(3)-(4)]
DOCKED: USER    Estimated Inhibition Constant, Ki   =  218.60 nM (nanomolar)  [Temperature = 298.15 K]
DOCKED: USER    
DOCKED: USER    (1) Final Intermolecular Energy     =  -11.47 kcal/mol
DOCKED: USER        vdW + Hbond + desolv Energy     =  -11.47 kcal/mol
DOCKED: USER        Electrostatic Energy            =   +0.00 kcal/mol
DOCKED: USER    (2) Final Total Internal Energy     =   -0.77 kcal/mol
DOCKED: USER    (3) Torsional Free Energy           =   +2.39 kcal/mol
DOCKED: USER    (4) Unbound System's Energy  [=(2)] =   -0.77 kcal/mol
DOCKED: USER    
DOCKED: USER    
DOCKED: USER    NEWDPF move ligand.dum.pdbqt
DOCKED: USER    NEWDPF about 0.003000 -0.142000 -0.069000
DOCKED: USER    NEWDPF tran0 37.798003 15.602888 122.146319
DOCKED: USER    NEWDPF quaternion0 0.782166 -0.504792 -0.171490 0.322479
DOCKED: USER    NEWDPF axisangle0 0.826310 -0.533282 -0.181169 142.374201
DOCKED: USER    NEWDPF quat0 0.826310 -0.533282 -0.181169 142.374201
DOCKED: USER    NEWDPF dihe0 114.37 153.68 92.57 56.76 128.64 -90.42 93.23 -176.48 
DOCKED: USER  keepresnum = 1 
DOCKED: USER  
DOCKED: REMARK  Name = 
DOCKED: REMARK  8 active torsions:
DOCKED: REMARK  status: ('A' for Active; 'I' for Inactive)
DOCKED: REMARK    1  A    between atoms: C_2  and  C_5
DOCKED: REMARK    2  A    between atoms: C_5  and  C_6
DOCKED: REMARK    3  A    between atoms: C_6  and  C_7
DOCKED: REMARK    4  A    between atoms: C_7  and  C_8
DOCKED: REMARK    5  A    between atoms: C_8  and  C_9
DOCKED: REMARK    6  A    between atoms: C_9  and  C_10
DOCKED: REMARK    7  A    between atoms: C_10  and  C_11
DOCKED: REMARK    8  A    between atoms: N_12  and  C_13
DOCKED: REMARK                            x       y       z     vdW  Elec       q    Type
DOCKED: REMARK                         _______ _______ _______ _____ _____    ______ ____
DOCKED: USER                              x       y       z     vdW  Elec       q    Type
DOCKED: USER                           _______ _______ _______ _____ _____    ______ ____
DOCKED: ROOT
DOCKED: ATOM      1  C   UNL     1      38.359  15.879 122.688 -0.31 -0.00    +0.000 C 
DOCKED: ENDROOT
DOCKED: BRANCH   1   2
DOCKED: ATOM      2  C   UNL     1      37.807  17.228 123.038 -0.22 -0.00    +0.000 C 
DOCKED: ATOM      3  N   UNL     1      37.669  18.232 122.019 -0.09 -0.00    +0.000 N 
DOCKED: ATOM      4  O   UNL     1      37.468  17.467 124.228 -0.27 -0.00    +0.000 OA
DOCKED: ATOM      5  H   UNL     1      37.776  17.955 121.081 +0.00 -0.00    +0.000 HD
DOCKED: BRANCH   3   6
DOCKED: ATOM      6  C   UNL     1      37.382  19.615 122.285 -0.10 -0.00    +0.000 A 
DOCKED: ATOM      7  C   UNL     1      38.177  20.650 121.763 -0.05 -0.00    +0.000 A 
DOCKED: ATOM      8  C   UNL     1      37.848  21.982 122.022 -0.07 -0.00    +0.000 A 
DOCKED: ATOM      9  C   UNL     1      36.719  22.272 122.789 -0.11 -0.00    +0.000 A 
DOCKED: ATOM     10  N   UNL     1      35.944  21.262 123.268 -0.22 -0.00    +0.000 NA
DOCKED: ATOM     11  C   UNL     1      36.243  19.957 123.030 -0.15 -0.00    +0.000 A 
DOCKED: ATOM     12  CM  UNL     1      37.022  20.965 122.546 +0.00 -0.00    +0.000 AC
DOCKED: ENDBRANCH   3   6
DOCKED: ENDBRANCH   1   2
DOCKED: BRANCH   1  12
DOCKED: ATOM     13  C   UNL     1      37.220  14.894 122.397 -0.39 -0.00    +0.000 C 
DOCKED: BRANCH  12  13
DOCKED: ATOM     14  C   UNL     1      36.562  14.341 123.674 -0.48 -0.00    +0.000 C 
DOCKED: BRANCH  13  14
DOCKED: ATOM     15  C   UNL     1      35.947  12.936 123.532 -0.62 -0.00    +0.000 C 
DOCKED: BRANCH  14  15
DOCKED: ATOM     16  C   UNL     1      37.000  11.842 123.286 -0.67 -0.00    +0.000 C 
DOCKED: BRANCH  15  16
DOCKED: ATOM     17  C   UNL     1      36.799  11.135 121.940 -0.60 -0.00    +0.000 C 
DOCKED: BRANCH  16  18
DOCKED: ATOM     18  O   UNL     1      37.047   8.942 121.021 -2.71 -0.00    +0.000 OA
DOCKED: ATOM     19  C   UNL     1      36.947   9.646 122.062 -0.62 -0.00    +0.000 C 
DOCKED: ATOM     20  N   UNL     1      36.947   9.021 123.347 -0.61 -0.00    +0.000 N 
DOCKED: ATOM     21  O   UNL     1      37.067   7.677 123.456 -2.67 -0.00    +0.000 OA
DOCKED: ATOM     22  H   UNL     1      36.860   9.571 124.159 -0.52 -0.00    +0.000 HD
DOCKED: ENDBRANCH  16  18
DOCKED: ENDBRANCH  15  16
DOCKED: ENDBRANCH  14  15
DOCKED: ENDBRANCH  13  14
DOCKED: ENDBRANCH  12  13
DOCKED: ENDBRANCH   1  12
DOCKED: TORSDOF 8DOCKED: TER
DOCKED: ENDMDL
________________________________________________________________________________


	BEGINNING GENETIC ALGORITHM DOCKING 13 of 100
Run: 13 Seed: 539671693 940585453 [ Run 13 of 100 GA/GALS ]
Beginning LAMARCKIAN GENETIC ALGORITHM (LGA), with a maximum of 2500000 energy evaluations.

Final-Value: -14.097


	FINAL GENETIC ALGORITHM DOCKED STATE
	_______________________________________________


Detailed state:  trans 38.415 14.830 120.738 quatxyzw -0.761465 0.033002 0.622287 -0.178439 center 0.003 -0.142 -0.069 ntor 8 -57.6597 -140.1704 55.8352 48.7421 157.3467 -72.3685 -121.1768 166.7589
State:	 38.415  14.830 120.738  -0.774  0.034  0.632 -159.442    -57.66 -140.17   55.84   48.74  157.35  -72.37 -121.18  166.76

DOCKED: MODEL       13
DOCKED: USER    Run = 13
DOCKED: USER    DPF = ligand_dock.biased.dpf
DOCKED: USER  
DOCKED: USER    Estimated Free Energy of Binding    =  -10.53 kcal/mol  [=(1)+(2)+(3)-(4)]
DOCKED: USER    Estimated Inhibition Constant, Ki   =   19.08 nM (nanomolar)  [Temperature = 298.15 K]
DOCKED: USER    
DOCKED: USER    (1) Final Intermolecular Energy     =  -12.92 kcal/mol
DOCKED: USER        vdW + Hbond + desolv Energy     =  -12.92 kcal/mol
DOCKED: USER        Electrostatic Energy            =   +0.00 kcal/mol
DOCKED: USER    (2) Final Total Internal Energy     =   -1.18 kcal/mol
DOCKED: USER    (3) Torsional Free Energy           =   +2.39 kcal/mol
DOCKED: USER    (4) Unbound System's Energy  [=(2)] =   -1.18 kcal/mol
DOCKED: USER    
DOCKED: USER    
DOCKED: USER    NEWDPF move ligand.dum.pdbqt
DOCKED: USER    NEWDPF about 0.003000 -0.142000 -0.069000
DOCKED: USER    NEWDPF tran0 38.415186 14.829911 120.737550
DOCKED: USER    NEWDPF quaternion0 -0.761465 0.033002 0.622287 -0.178439
DOCKED: USER    NEWDPF axisangle0 -0.773885 0.033540 0.632437 -159.442256
DOCKED: USER    NEWDPF quat0 -0.773885 0.033540 0.632437 -159.442256
DOCKED: USER    NEWDPF dihe0 -57.66 -140.17 55.84 48.74 157.35 -72.37 -121.18 166.76 
DOCKED: USER  keepresnum = 1 
DOCKED: USER  
DOCKED: REMARK  Name = 
DOCKED: REMARK  8 active torsions:
DOCKED: REMARK  status: ('A' for Active; 'I' for Inactive)
DOCKED: REMARK    1  A    between atoms: C_2  and  C_5
DOCKED: REMARK    2  A    between atoms: C_5  and  C_6
DOCKED: REMARK    3  A    between atoms: C_6  and  C_7
DOCKED: REMARK    4  A    between atoms: C_7  and  C_8
DOCKED: REMARK    5  A    between atoms: C_8  and  C_9
DOCKED: REMARK    6  A    between atoms: C_9  and  C_10
DOCKED: REMARK    7  A    between atoms: C_10  and  C_11
DOCKED: REMARK    8  A    between atoms: N_12  and  C_13
DOCKED: REMARK                            x       y       z     vdW  Elec       q    Type
DOCKED: REMARK                         _______ _______ _______ _____ _____    ______ ____
DOCKED: USER                              x       y       z     vdW  Elec       q    Type
DOCKED: USER                           _______ _______ _______ _____ _____    ______ ____
DOCKED: ROOT
DOCKED: ATOM      1  C   UNL     1      38.730  15.441 121.199 -0.27 -0.00    +0.000 C 
DOCKED: ENDROOT
DOCKED: BRANCH   1   2
DOCKED: ATOM      2  C   UNL     1      37.840  15.402 122.404 -0.34 -0.00    +0.000 C 
DOCKED: ATOM      3  N   UNL     1      36.532  15.995 122.349 -0.26 -0.00    +0.000 N 
DOCKED: ATOM      4  O   UNL     1      38.251  14.847 123.458 -0.41 -0.00    +0.000 OA
DOCKED: ATOM      5  H   UNL     1      36.182  16.259 121.467 -0.01 -0.00    +0.000 HD
DOCKED: BRANCH   3   6
DOCKED: ATOM      6  C   UNL     1      35.702  16.225 123.500 -0.37 -0.00    +0.000 A 
DOCKED: ATOM      7  C   UNL     1      35.749  17.432 124.217 -0.28 -0.00    +0.000 A 
DOCKED: ATOM      8  C   UNL     1      34.906  17.626 125.314 -0.31 -0.00    +0.000 A 
DOCKED: ATOM      9  C   UNL     1      34.012  16.618 125.677 -0.39 -0.00    +0.000 A 
DOCKED: ATOM     10  N   UNL     1      33.959  15.464 124.959 -0.54 -0.00    +0.000 NA
DOCKED: ATOM     11  C   UNL     1      34.769  15.251 123.888 -0.52 -0.00    +0.000 A 
DOCKED: ATOM     12  CM  UNL     1      34.825  16.410 124.602 -0.12 -0.00    +0.000 AC
DOCKED: ENDBRANCH   3   6
DOCKED: ENDBRANCH   1   2
DOCKED: BRANCH   1  12
DOCKED: ATOM     13  C   UNL     1      38.913  14.031 120.624 -0.27 -0.00    +0.000 C 
DOCKED: BRANCH  12  13
DOCKED: ATOM     14  C   UNL     1      37.613  13.445 120.042 -0.43 -0.00    +0.000 C 
DOCKED: BRANCH  13  14
DOCKED: ATOM     15  C   UNL     1      37.310  11.994 120.459 -0.50 -0.00    +0.000 C 
DOCKED: BRANCH  14  15
DOCKED: ATOM     16  C   UNL     1      36.371  11.903 121.675 -0.52 -0.00    +0.000 C 
DOCKED: BRANCH  15  16
DOCKED: ATOM     17  C   UNL     1      36.958  11.039 122.798 -0.63 -0.00    +0.000 C 
DOCKED: BRANCH  16  18
DOCKED: ATOM     18  O   UNL     1      36.944   9.251 121.210 -2.67 -0.00    +0.000 OA
DOCKED: ATOM     19  C   UNL     1      36.993   9.585 122.425 -0.62 -0.00    +0.000 C 
DOCKED: ATOM     20  N   UNL     1      37.052   8.579 123.438 -0.66 -0.00    +0.000 N 
DOCKED: ATOM     21  O   UNL     1      37.069   7.268 123.101 -2.25 -0.00    +0.000 OA
DOCKED: ATOM     22  H   UNL     1      37.081   8.840 124.386 -0.54 -0.00    +0.000 HD
DOCKED: ENDBRANCH  16  18
DOCKED: ENDBRANCH  15  16
DOCKED: ENDBRANCH  14  15
DOCKED: ENDBRANCH  13  14
DOCKED: ENDBRANCH  12  13
DOCKED: ENDBRANCH   1  12
DOCKED: TORSDOF 8DOCKED: TER
DOCKED: ENDMDL
________________________________________________________________________________


	BEGINNING GENETIC ALGORITHM DOCKING 14 of 100
Run: 14 Seed: 804435294 821690188 [ Run 14 of 100 GA/GALS ]
Beginning LAMARCKIAN GENETIC ALGORITHM (LGA), with a maximum of 2500000 energy evaluations.

Final-Value: -13.354


	FINAL GENETIC ALGORITHM DOCKED STATE
	_______________________________________________


Detailed state:  trans 36.313 16.461 123.757 quatxyzw -0.835512 -0.277246 -0.239502 -0.409503 center 0.003 -0.142 -0.069 ntor 8 174.1600 179.4493 -172.8580 92.0268 -64.1851 -101.9389 118.1317 180.0000
State:	 36.313  16.461 123.757  -0.916 -0.304 -0.263 -131.653    174.16  179.45 -172.86   92.03  -64.19 -101.94  118.13  180.00

DOCKED: MODEL       14
DOCKED: USER    Run = 14
DOCKED: USER    DPF = ligand_dock.biased.dpf
DOCKED: USER  
DOCKED: USER    Estimated Free Energy of Binding    =  -10.17 kcal/mol  [=(1)+(2)+(3)-(4)]
DOCKED: USER    Estimated Inhibition Constant, Ki   =   34.81 nM (nanomolar)  [Temperature = 298.15 K]
DOCKED: USER    
DOCKED: USER    (1) Final Intermolecular Energy     =  -12.56 kcal/mol
DOCKED: USER        vdW + Hbond + desolv Energy     =  -12.56 kcal/mol
DOCKED: USER        Electrostatic Energy            =   +0.00 kcal/mol
DOCKED: USER    (2) Final Total Internal Energy     =   -0.79 kcal/mol
DOCKED: USER    (3) Torsional Free Energy           =   +2.39 kcal/mol
DOCKED: USER    (4) Unbound System's Energy  [=(2)] =   -0.79 kcal/mol
DOCKED: USER    
DOCKED: USER    
DOCKED: USER    NEWDPF move ligand.dum.pdbqt
DOCKED: USER    NEWDPF about 0.003000 -0.142000 -0.069000
DOCKED: USER    NEWDPF tran0 36.312903 16.461310 123.756708
DOCKED: USER    NEWDPF quaternion0 -0.835512 -0.277246 -0.239502 -0.409503
DOCKED: USER    NEWDPF axisangle0 -0.915822 -0.303894 -0.262523 -131.652762
DOCKED: USER    NEWDPF quat0 -0.915822 -0.303894 -0.262523 -131.652762
DOCKED: USER    NEWDPF dihe0 174.16 179.45 -172.86 92.03 -64.19 -101.94 118.13 180.00 
DOCKED: USER  keepresnum = 1 
DOCKED: USER  
DOCKED: REMARK  Name = 
DOCKED: REMARK  8 active torsions:
DOCKED: REMARK  status: ('A' for Active; 'I' for Inactive)
DOCKED: REMARK    1  A    between atoms: C_2  and  C_5
DOCKED: REMARK    2  A    between atoms: C_5  and  C_6
DOCKED: REMARK    3  A    between atoms: C_6  and  C_7
DOCKED: REMARK    4  A    between atoms: C_7  and  C_8
DOCKED: REMARK    5  A    between atoms: C_8  and  C_9
DOCKED: REMARK    6  A    between atoms: C_9  and  C_10
DOCKED: REMARK    7  A    between atoms: C_10  and  C_11
DOCKED: REMARK    8  A    between atoms: N_12  and  C_13
DOCKED: REMARK                            x       y       z     vdW  Elec       q    Type
DOCKED: REMARK                         _______ _______ _______ _____ _____    ______ ____
DOCKED: USER                              x       y       z     vdW  Elec       q    Type
DOCKED: USER                           _______ _______ _______ _____ _____    ______ ____
DOCKED: ROOT
DOCKED: ATOM      1  C   UNL     1      35.584  16.634 124.108 -0.40 -0.00    +0.000 C 
DOCKED: ENDROOT
DOCKED: BRANCH   1   2
DOCKED: ATOM      2  C   UNL     1      34.696  16.782 122.909 -0.42 -0.00    +0.000 C 
DOCKED: ATOM      3  N   UNL     1      34.913  17.860 121.984 -0.31 -0.00    +0.000 N 
DOCKED: ATOM      4  O   UNL     1      33.764  15.953 122.725 -0.30 -0.00    +0.000 OA
DOCKED: ATOM      5  H   UNL     1      35.748  18.375 122.064 -0.00 -0.00    +0.000 HD
DOCKED: BRANCH   3   6
DOCKED: ATOM      6  C   UNL     1      33.988  18.232 120.949 -0.31 -0.00    +0.000 A 
DOCKED: ATOM      7  C   UNL     1      34.421  18.568 119.655 -0.24 -0.00    +0.000 A 
DOCKED: ATOM      8  C   UNL     1      33.488  18.898 118.670 -0.22 -0.00    +0.000 A 
DOCKED: ATOM      9  C   UNL     1      32.128  18.876 118.980 -0.32 -0.00    +0.000 A 
DOCKED: ATOM     10  N   UNL     1      31.721  18.526 120.230 -0.51 -0.00    +0.000 NA
DOCKED: ATOM     11  C   UNL     1      32.609  18.201 121.206 -0.13 -0.00    +0.000 A 
DOCKED: ATOM     12  CM  UNL     1      33.023  18.549 119.955 +0.00 -0.00    +0.000 AC
DOCKED: ENDBRANCH   3   6
DOCKED: ENDBRANCH   1   2
DOCKED: BRANCH   1  12
DOCKED: ATOM     13  C   UNL     1      36.673  15.589 123.841 -0.35 -0.00    +0.000 C 
DOCKED: BRANCH  12  13
DOCKED: ATOM     14  C   UNL     1      36.107  14.232 123.383 -0.52 -0.00    +0.000 C 
DOCKED: BRANCH  13  14
DOCKED: ATOM     15  C   UNL     1      37.086  13.048 123.490 -0.59 -0.00    +0.000 C 
DOCKED: BRANCH  14  15
DOCKED: ATOM     16  C   UNL     1      37.239  12.276 122.168 -0.54 -0.00    +0.000 C 
DOCKED: BRANCH  15  16
DOCKED: ATOM     17  C   UNL     1      36.123  11.243 121.967 -0.57 -0.00    +0.000 C 
DOCKED: BRANCH  16  18
DOCKED: ATOM     18  O   UNL     1      36.737   9.124 121.044 -2.62 -0.00    +0.000 OA
DOCKED: ATOM     19  C   UNL     1      36.636   9.837 122.080 -0.66 -0.00    +0.000 C 
DOCKED: ATOM     20  N   UNL     1      36.982   9.292 123.354 -0.57 -0.00    +0.000 N 
DOCKED: ATOM     21  O   UNL     1      37.430   8.019 123.458 -2.47 -0.00    +0.000 OA
DOCKED: ATOM     22  H   UNL     1      36.894   9.846 124.164 -0.50 -0.00    +0.000 HD
DOCKED: ENDBRANCH  16  18
DOCKED: ENDBRANCH  15  16
DOCKED: ENDBRANCH  14  15
DOCKED: ENDBRANCH  13  14
DOCKED: ENDBRANCH  12  13
DOCKED: ENDBRANCH   1  12
DOCKED: TORSDOF 8DOCKED: TER
DOCKED: ENDMDL
________________________________________________________________________________


	BEGINNING GENETIC ALGORITHM DOCKING 15 of 100
Run: 15 Seed: 937549237 2072039614 [ Run 15 of 100 GA/GALS ]
Beginning LAMARCKIAN GENETIC ALGORITHM (LGA), with a maximum of 2500000 energy evaluations.

Final-Value: -13.147


	FINAL GENETIC ALGORITHM DOCKED STATE
	_______________________________________________


Detailed state:  trans 38.040 12.993 119.502 quatxyzw 0.887579 -0.134698 0.411974 -0.156003 center 0.003 -0.142 -0.069 ntor 8 169.6286 47.3142 -76.6867 180.0000 -35.8320 -38.8608 42.0436 134.6674
State:	 38.040  12.993 119.502   0.899 -0.136  0.417 -162.050    169.63   47.31  -76.69  180.00  -35.83  -38.86   42.04  134.67

DOCKED: MODEL       15
DOCKED: USER    Run = 15
DOCKED: USER    DPF = ligand_dock.biased.dpf
DOCKED: USER  
DOCKED: USER    Estimated Free Energy of Binding    =   -9.92 kcal/mol  [=(1)+(2)+(3)-(4)]
DOCKED: USER    Estimated Inhibition Constant, Ki   =   53.43 nM (nanomolar)  [Temperature = 298.15 K]
DOCKED: USER    
DOCKED: USER    (1) Final Intermolecular Energy     =  -12.31 kcal/mol
DOCKED: USER        vdW + Hbond + desolv Energy     =  -12.31 kcal/mol
DOCKED: USER        Electrostatic Energy            =   +0.00 kcal/mol
DOCKED: USER    (2) Final Total Internal Energy     =   -0.84 kcal/mol
DOCKED: USER    (3) Torsional Free Energy           =   +2.39 kcal/mol
DOCKED: USER    (4) Unbound System's Energy  [=(2)] =   -0.84 kcal/mol
DOCKED: USER    
DOCKED: USER    
DOCKED: USER    NEWDPF move ligand.dum.pdbqt
DOCKED: USER    NEWDPF about 0.003000 -0.142000 -0.069000
DOCKED: USER    NEWDPF tran0 38.039782 12.993360 119.502149
DOCKED: USER    NEWDPF quaternion0 0.887579 -0.134698 0.411974 -0.156003
DOCKED: USER    NEWDPF axisangle0 0.898581 -0.136368 0.417081 -162.050096
DOCKED: USER    NEWDPF quat0 0.898581 -0.136368 0.417081 -162.050096
DOCKED: USER    NEWDPF dihe0 169.63 47.31 -76.69 180.00 -35.83 -38.86 42.04 134.67 
DOCKED: USER  keepresnum = 1 
DOCKED: USER  
DOCKED: REMARK  Name = 
DOCKED: REMARK  8 active torsions:
DOCKED: REMARK  status: ('A' for Active; 'I' for Inactive)
DOCKED: REMARK    1  A    between atoms: C_2  and  C_5
DOCKED: REMARK    2  A    between atoms: C_5  and  C_6
DOCKED: REMARK    3  A    between atoms: C_6  and  C_7
DOCKED: REMARK    4  A    between atoms: C_7  and  C_8
DOCKED: REMARK    5  A    between atoms: C_8  and  C_9
DOCKED: REMARK    6  A    between atoms: C_9  and  C_10
DOCKED: REMARK    7  A    between atoms: C_10  and  C_11
DOCKED: REMARK    8  A    between atoms: N_12  and  C_13
DOCKED: REMARK                            x       y       z     vdW  Elec       q    Type
DOCKED: REMARK                         _______ _______ _______ _____ _____    ______ ____
DOCKED: USER                              x       y       z     vdW  Elec       q    Type
DOCKED: USER                           _______ _______ _______ _____ _____    ______ ____
DOCKED: ROOT
DOCKED: ATOM      1  C   UNL     1      38.031  13.790 119.278 -0.22 -0.00    +0.000 C 
DOCKED: ENDROOT
DOCKED: BRANCH   1   2
DOCKED: ATOM      2  C   UNL     1      37.612  13.697 117.842 -0.36 -0.00    +0.000 C 
DOCKED: ATOM      3  N   UNL     1      38.547  14.018 116.799 -0.28 -0.00    +0.000 N 
DOCKED: ATOM      4  O   UNL     1      36.436  13.337 117.563 -0.46 -0.00    +0.000 OA
DOCKED: ATOM      5  H   UNL     1      39.495  14.123 117.046 -0.12 -0.00    +0.000 HD
DOCKED: BRANCH   3   6
DOCKED: ATOM      6  C   UNL     1      38.187  14.194 115.419 -0.34 -0.00    +0.000 A 
DOCKED: ATOM      7  C   UNL     1      37.271  13.342 114.778 -0.36 -0.00    +0.000 A 
DOCKED: ATOM      8  C   UNL     1      36.928  13.564 113.443 -0.29 -0.00    +0.000 A 
DOCKED: ATOM      9  C   UNL     1      37.490  14.644 112.762 -0.16 -0.00    +0.000 A 
DOCKED: ATOM     10  N   UNL     1      38.357  15.475 113.400 -0.17 -0.00    +0.000 NA
DOCKED: ATOM     11  C   UNL     1      38.707  15.280 114.699 -0.21 -0.00    +0.000 A 
DOCKED: ATOM     12  CM  UNL     1      37.837  14.445 114.065 +0.00 -0.00    +0.000 AC
DOCKED: ENDBRANCH   3   6
DOCKED: ENDBRANCH   1   2
DOCKED: BRANCH   1  12
DOCKED: ATOM     13  C   UNL     1      37.377  12.672 120.099 -0.50 -0.00    +0.000 C 
DOCKED: BRANCH  12  13
DOCKED: ATOM     14  C   UNL     1      36.694  13.185 121.379 -0.33 -0.00    +0.000 C 
DOCKED: BRANCH  13  14
DOCKED: ATOM     15  C   UNL     1      37.509  12.997 122.672 -0.54 -0.00    +0.000 C 
DOCKED: BRANCH  14  15
DOCKED: ATOM     16  C   UNL     1      37.090  11.751 123.470 -0.66 -0.00    +0.000 C 
DOCKED: BRANCH  15  16
DOCKED: ATOM     17  C   UNL     1      36.035  10.917 122.733 -0.68 -0.00    +0.000 C 
DOCKED: BRANCH  16  18
DOCKED: ATOM     18  O   UNL     1      36.736   9.219 121.202 -2.64 -0.00    +0.000 OA
DOCKED: ATOM     19  C   UNL     1      36.538   9.541 122.405 -0.71 -0.00    +0.000 C 
DOCKED: ATOM     20  N   UNL     1      36.766   8.587 123.443 -0.64 -0.00    +0.000 N 
DOCKED: ATOM     21  O   UNL     1      37.207   7.342 123.146 -2.26 -0.00    +0.000 OA
DOCKED: ATOM     22  H   UNL     1      36.603   8.836 124.382 -0.37 -0.00    +0.000 HD
DOCKED: ENDBRANCH  16  18
DOCKED: ENDBRANCH  15  16
DOCKED: ENDBRANCH  14  15
DOCKED: ENDBRANCH  13  14
DOCKED: ENDBRANCH  12  13
DOCKED: ENDBRANCH   1  12
DOCKED: TORSDOF 8DOCKED: TER
DOCKED: ENDMDL
________________________________________________________________________________


	BEGINNING GENETIC ALGORITHM DOCKING 16 of 100
Run: 16 Seed: 1359899482 1035122384 [ Run 16 of 100 GA/GALS ]
Beginning LAMARCKIAN GENETIC ALGORITHM (LGA), with a maximum of 2500000 energy evaluations.

Final-Value: -13.804


	FINAL GENETIC ALGORITHM DOCKED STATE
	_______________________________________________


Detailed state:  trans 36.397 11.889 122.154 quatxyzw 0.093061 0.416592 -0.544743 0.721835 center 0.003 -0.142 -0.069 ntor 8 -173.9933 119.8323 -158.8961 166.7602 -50.2510 176.9314 -7.7876 -177.5844
State:	 36.397  11.889 122.154   0.134  0.602 -0.787 87.588   -173.99  119.83 -158.90  166.76  -50.25  176.93   -7.79 -177.58

DOCKED: MODEL       16
DOCKED: USER    Run = 16
DOCKED: USER    DPF = ligand_dock.biased.dpf
DOCKED: USER  
DOCKED: USER    Estimated Free Energy of Binding    =  -10.61 kcal/mol  [=(1)+(2)+(3)-(4)]
DOCKED: USER    Estimated Inhibition Constant, Ki   =   16.69 nM (nanomolar)  [Temperature = 298.15 K]
DOCKED: USER    
DOCKED: USER    (1) Final Intermolecular Energy     =  -13.00 kcal/mol
DOCKED: USER        vdW + Hbond + desolv Energy     =  -13.00 kcal/mol
DOCKED: USER        Electrostatic Energy            =   +0.00 kcal/mol
DOCKED: USER    (2) Final Total Internal Energy     =   -0.81 kcal/mol
DOCKED: USER    (3) Torsional Free Energy           =   +2.39 kcal/mol
DOCKED: USER    (4) Unbound System's Energy  [=(2)] =   -0.81 kcal/mol
DOCKED: USER    
DOCKED: USER    
DOCKED: USER    NEWDPF move ligand.dum.pdbqt
DOCKED: USER    NEWDPF about 0.003000 -0.142000 -0.069000
DOCKED: USER    NEWDPF tran0 36.397497 11.889439 122.154093
DOCKED: USER    NEWDPF quaternion0 0.093061 0.416592 -0.544743 0.721835
DOCKED: USER    NEWDPF axisangle0 0.134468 0.601955 -0.787127 87.587549
DOCKED: USER    NEWDPF quat0 0.134468 0.601955 -0.787127 87.587549
DOCKED: USER    NEWDPF dihe0 -173.99 119.83 -158.90 166.76 -50.25 176.93 -7.79 -177.58 
DOCKED: USER  keepresnum = 1 
DOCKED: USER  
DOCKED: REMARK  Name = 
DOCKED: REMARK  8 active torsions:
DOCKED: REMARK  status: ('A' for Active; 'I' for Inactive)
DOCKED: REMARK    1  A    between atoms: C_2  and  C_5
DOCKED: REMARK    2  A    between atoms: C_5  and  C_6
DOCKED: REMARK    3  A    between atoms: C_6  and  C_7
DOCKED: REMARK    4  A    between atoms: C_7  and  C_8
DOCKED: REMARK    5  A    between atoms: C_8  and  C_9
DOCKED: REMARK    6  A    between atoms: C_9  and  C_10
DOCKED: REMARK    7  A    between atoms: C_10  and  C_11
DOCKED: REMARK    8  A    between atoms: N_12  and  C_13
DOCKED: REMARK                            x       y       z     vdW  Elec       q    Type
DOCKED: REMARK                         _______ _______ _______ _____ _____    ______ ____
DOCKED: USER                              x       y       z     vdW  Elec       q    Type
DOCKED: USER                           _______ _______ _______ _____ _____    ______ ____
DOCKED: ROOT
DOCKED: ATOM      1  C   UNL     1      37.048  11.419 122.356 -0.58 -0.00    +0.000 C 
DOCKED: ENDROOT
DOCKED: BRANCH   1   2
DOCKED: ATOM      2  C   UNL     1      36.526  10.042 122.073 -0.63 -0.00    +0.000 C 
DOCKED: ATOM      3  N   UNL     1      35.409   9.531 122.818 -0.60 -0.00    +0.000 N 
DOCKED: ATOM      4  O   UNL     1      37.077   9.345 121.179 -2.62 -0.00    +0.000 OA
DOCKED: ATOM      5  H   UNL     1      34.900  10.161 123.377 -0.36 -0.00    +0.000 HD
DOCKED: BRANCH   3   6
DOCKED: ATOM      6  C   UNL     1      34.987   8.157 122.797 -0.61 -0.00    +0.000 A 
DOCKED: ATOM      7  C   UNL     1      33.676   7.790 122.448 -0.63 -0.00    +0.000 A 
DOCKED: ATOM      8  C   UNL     1      33.314   6.442 122.414 -0.60 -0.00    +0.000 A 
DOCKED: ATOM      9  C   UNL     1      34.268   5.469 122.714 -0.31 -0.00    +0.000 A 
DOCKED: ATOM     10  N   UNL     1      35.539   5.836 123.027 -0.78 -0.00    +0.000 NA
DOCKED: ATOM     11  C   UNL     1      35.917   7.141 123.067 -0.69 -0.00    +0.000 A 
DOCKED: ATOM     12  CM  UNL     1      34.642   6.780 122.751 +0.00 -0.00    +0.000 AC
DOCKED: ENDBRANCH   3   6
DOCKED: ENDBRANCH   1   2
DOCKED: BRANCH   1  12
DOCKED: ATOM     13  C   UNL     1      36.441  12.432 121.378 -0.35 -0.00    +0.000 C 
DOCKED: BRANCH  12  13
DOCKED: ATOM     14  C   UNL     1      36.935  13.870 121.617 -0.33 -0.00    +0.000 C 
DOCKED: BRANCH  13  14
DOCKED: ATOM     15  C   UNL     1      37.756  14.476 120.464 -0.33 -0.00    +0.000 C 
DOCKED: BRANCH  14  15
DOCKED: ATOM     16  C   UNL     1      39.232  14.706 120.834 -0.30 -0.00    +0.000 C 
DOCKED: BRANCH  15  16
DOCKED: ATOM     17  C   UNL     1      39.499  14.472 122.327 -0.39 -0.00    +0.000 C 
DOCKED: BRANCH  16  18
DOCKED: ATOM     18  O   UNL     1      41.817  14.093 122.774 -0.96 -0.00    +0.000 OA
DOCKED: ATOM     19  C   UNL     1      40.872  14.927 122.727 -0.50 -0.00    +0.000 C 
DOCKED: ATOM     20  N   UNL     1      41.108  16.290 123.084 -0.37 -0.00    +0.000 N 
DOCKED: ATOM     21  O   UNL     1      42.344  16.697 123.459 -1.05 -0.00    +0.000 OA
DOCKED: ATOM     22  H   UNL     1      40.368  16.939 123.056 -0.01 -0.00    +0.000 HD
DOCKED: ENDBRANCH  16  18
DOCKED: ENDBRANCH  15  16
DOCKED: ENDBRANCH  14  15
DOCKED: ENDBRANCH  13  14
DOCKED: ENDBRANCH  12  13
DOCKED: ENDBRANCH   1  12
DOCKED: TORSDOF 8DOCKED: TER
DOCKED: ENDMDL
________________________________________________________________________________


	BEGINNING GENETIC ALGORITHM DOCKING 17 of 100
Run: 17 Seed: 735001267 1280875834 [ Run 17 of 100 GA/GALS ]
Beginning LAMARCKIAN GENETIC ALGORITHM (LGA), with a maximum of 2500000 energy evaluations.

Final-Value: -13.301


	FINAL GENETIC ALGORITHM DOCKED STATE
	_______________________________________________


Detailed state:  trans 36.490 12.010 122.796 quatxyzw 0.062373 0.443649 -0.507106 0.736294 center 0.003 -0.142 -0.069 ntor 8 -44.2639 179.9105 -150.3099 179.4530 176.0176 -121.9626 3.8610 177.9808
State:	 36.490  12.010 122.796   0.092  0.656 -0.749 85.167    -44.26  179.91 -150.31  179.45  176.02 -121.96    3.86  177.98

DOCKED: MODEL       17
DOCKED: USER    Run = 17
DOCKED: USER    DPF = ligand_dock.biased.dpf
DOCKED: USER  
DOCKED: USER    Estimated Free Energy of Binding    =  -10.01 kcal/mol  [=(1)+(2)+(3)-(4)]
DOCKED: USER    Estimated Inhibition Constant, Ki   =   45.73 nM (nanomolar)  [Temperature = 298.15 K]
DOCKED: USER    
DOCKED: USER    (1) Final Intermolecular Energy     =  -12.40 kcal/mol
DOCKED: USER        vdW + Hbond + desolv Energy     =  -12.40 kcal/mol
DOCKED: USER        Electrostatic Energy            =   +0.00 kcal/mol
DOCKED: USER    (2) Final Total Internal Energy     =   -0.90 kcal/mol
DOCKED: USER    (3) Torsional Free Energy           =   +2.39 kcal/mol
DOCKED: USER    (4) Unbound System's Energy  [=(2)] =   -0.90 kcal/mol
DOCKED: USER    
DOCKED: USER    
DOCKED: USER    NEWDPF move ligand.dum.pdbqt
DOCKED: USER    NEWDPF about 0.003000 -0.142000 -0.069000
DOCKED: USER    NEWDPF tran0 36.490415 12.010309 122.796416
DOCKED: USER    NEWDPF quaternion0 0.062373 0.443649 -0.507106 0.736294
DOCKED: USER    NEWDPF axisangle0 0.092178 0.655644 -0.749423 85.166716
DOCKED: USER    NEWDPF quat0 0.092178 0.655644 -0.749423 85.166716
DOCKED: USER    NEWDPF dihe0 -44.26 179.91 -150.31 179.45 176.02 -121.96 3.86 177.98 
DOCKED: USER  keepresnum = 1 
DOCKED: USER  
DOCKED: REMARK  Name = 
DOCKED: REMARK  8 active torsions:
DOCKED: REMARK  status: ('A' for Active; 'I' for Inactive)
DOCKED: REMARK    1  A    between atoms: C_2  and  C_5
DOCKED: REMARK    2  A    between atoms: C_5  and  C_6
DOCKED: REMARK    3  A    between atoms: C_6  and  C_7
DOCKED: REMARK    4  A    between atoms: C_7  and  C_8
DOCKED: REMARK    5  A    between atoms: C_8  and  C_9
DOCKED: REMARK    6  A    between atoms: C_9  and  C_10
DOCKED: REMARK    7  A    between atoms: C_10  and  C_11
DOCKED: REMARK    8  A    between atoms: N_12  and  C_13
DOCKED: REMARK                            x       y       z     vdW  Elec       q    Type
DOCKED: REMARK                         _______ _______ _______ _____ _____    ______ ____
DOCKED: USER                              x       y       z     vdW  Elec       q    Type
DOCKED: USER                           _______ _______ _______ _____ _____    ______ ____
DOCKED: ROOT
DOCKED: ATOM      1  C   UNL     1      37.121  11.495 122.946 -0.60 -0.00    +0.000 C 
DOCKED: ENDROOT
DOCKED: BRANCH   1   2
DOCKED: ATOM      2  C   UNL     1      36.546  10.179 122.516 -0.68 -0.00    +0.000 C 
DOCKED: ATOM      3  N   UNL     1      35.470   9.589 123.262 -0.55 -0.00    +0.000 N 
DOCKED: ATOM      4  O   UNL     1      37.018   9.601 121.500 -2.17 -0.00    +0.000 OA
DOCKED: ATOM      5  H   UNL     1      35.016  10.146 123.936 -0.42 -0.00    +0.000 HD
DOCKED: BRANCH   3   6
DOCKED: ATOM      6  C   UNL     1      35.012   8.238 123.086 -0.61 -0.00    +0.000 A 
DOCKED: ATOM      7  C   UNL     1      33.721   7.949 122.612 -0.63 -0.00    +0.000 A 
DOCKED: ATOM      8  C   UNL     1      33.325   6.623 122.429 -0.60 -0.00    +0.000 A 
DOCKED: ATOM      9  C   UNL     1      34.226   5.594 122.706 -0.40 -0.00    +0.000 A 
DOCKED: ATOM     10  N   UNL     1      35.480   5.888 123.142 -0.79 -0.00    +0.000 NA
DOCKED: ATOM     11  C   UNL     1      35.890   7.170 123.328 -0.63 -0.00    +0.000 A 
DOCKED: ATOM     12  CM  UNL     1      34.633   6.883 122.890 +0.00 -0.00    +0.000 AC
DOCKED: ENDBRANCH   3   6
DOCKED: ENDBRANCH   1   2
DOCKED: BRANCH   1  12
DOCKED: ATOM     13  C   UNL     1      36.557  12.631 122.083 -0.49 -0.00    +0.000 C 
DOCKED: BRANCH  12  13
DOCKED: ATOM     14  C   UNL     1      37.307  13.962 122.274 -0.47 -0.00    +0.000 C 
DOCKED: BRANCH  13  14
DOCKED: ATOM     15  C   UNL     1      36.828  15.114 121.372 -0.20 -0.00    +0.000 C 
DOCKED: BRANCH  14  15
DOCKED: ATOM     16  C   UNL     1      36.173  16.261 122.160 -0.27 -0.00    +0.000 C 
DOCKED: BRANCH  15  16
DOCKED: ATOM     17  C   UNL     1      36.242  16.038 123.676 -0.39 -0.00    +0.000 C 
DOCKED: BRANCH  16  18
DOCKED: ATOM     18  O   UNL     1      34.050  15.087 123.582 -0.64 -0.00    +0.000 OA
DOCKED: ATOM     19  C   UNL     1      34.891  15.738 124.259 -0.56 -0.00    +0.000 C 
DOCKED: ATOM     20  N   UNL     1      34.544  16.209 125.562 -0.36 -0.00    +0.000 N 
DOCKED: ATOM     21  O   UNL     1      33.321  15.951 126.082 -0.95 -0.00    +0.000 OA
DOCKED: ATOM     22  H   UNL     1      35.198  16.726 126.086 -0.00 -0.00    +0.000 HD
DOCKED: ENDBRANCH  16  18
DOCKED: ENDBRANCH  15  16
DOCKED: ENDBRANCH  14  15
DOCKED: ENDBRANCH  13  14
DOCKED: ENDBRANCH  12  13
DOCKED: ENDBRANCH   1  12
DOCKED: TORSDOF 8DOCKED: TER
DOCKED: ENDMDL
________________________________________________________________________________


	BEGINNING GENETIC ALGORITHM DOCKING 18 of 100
Run: 18 Seed: 1498358463 536967776 [ Run 18 of 100 GA/GALS ]
Beginning LAMARCKIAN GENETIC ALGORITHM (LGA), with a maximum of 2500000 energy evaluations.

Final-Value: -13.667


	FINAL GENETIC ALGORITHM DOCKED STATE
	_______________________________________________


Detailed state:  trans 38.742 15.168 121.333 quatxyzw 0.858697 -0.170770 -0.442656 -0.193732 center 0.003 -0.142 -0.069 ntor 8 -98.1096 -162.1335 -123.3287 115.1774 -97.2526 154.4400 -138.4129 -39.2328
State:	 38.742  15.168 121.333   0.875 -0.174 -0.451 -157.659    -98.11 -162.13 -123.33  115.18  -97.25  154.44 -138.41  -39.23

DOCKED: MODEL       18
DOCKED: USER    Run = 18
DOCKED: USER    DPF = ligand_dock.biased.dpf
DOCKED: USER  
DOCKED: USER    Estimated Free Energy of Binding    =  -10.19 kcal/mol  [=(1)+(2)+(3)-(4)]
DOCKED: USER    Estimated Inhibition Constant, Ki   =   34.12 nM (nanomolar)  [Temperature = 298.15 K]
DOCKED: USER    
DOCKED: USER    (1) Final Intermolecular Energy     =  -12.57 kcal/mol
DOCKED: USER        vdW + Hbond + desolv Energy     =  -12.57 kcal/mol
DOCKED: USER        Electrostatic Energy            =   +0.00 kcal/mol
DOCKED: USER    (2) Final Total Internal Energy     =   -1.09 kcal/mol
DOCKED: USER    (3) Torsional Free Energy           =   +2.39 kcal/mol
DOCKED: USER    (4) Unbound System's Energy  [=(2)] =   -1.09 kcal/mol
DOCKED: USER    
DOCKED: USER    
DOCKED: USER    NEWDPF move ligand.dum.pdbqt
DOCKED: USER    NEWDPF about 0.003000 -0.142000 -0.069000
DOCKED: USER    NEWDPF tran0 38.742489 15.168418 121.332812
DOCKED: USER    NEWDPF quaternion0 0.858697 -0.170770 -0.442656 -0.193732
DOCKED: USER    NEWDPF axisangle0 0.875280 -0.174068 -0.451204 -157.658641
DOCKED: USER    NEWDPF quat0 0.875280 -0.174068 -0.451204 -157.658641
DOCKED: USER    NEWDPF dihe0 -98.11 -162.13 -123.33 115.18 -97.25 154.44 -138.41 -39.23 
DOCKED: USER  keepresnum = 1 
DOCKED: USER  
DOCKED: REMARK  Name = 
DOCKED: REMARK  8 active torsions:
DOCKED: REMARK  status: ('A' for Active; 'I' for Inactive)
DOCKED: REMARK    1  A    between atoms: C_2  and  C_5
DOCKED: REMARK    2  A    between atoms: C_5  and  C_6
DOCKED: REMARK    3  A    between atoms: C_6  and  C_7
DOCKED: REMARK    4  A    between atoms: C_7  and  C_8
DOCKED: REMARK    5  A    between atoms: C_8  and  C_9
DOCKED: REMARK    6  A    between atoms: C_9  and  C_10
DOCKED: REMARK    7  A    between atoms: C_10  and  C_11
DOCKED: REMARK    8  A    between atoms: N_12  and  C_13
DOCKED: REMARK                            x       y       z     vdW  Elec       q    Type
DOCKED: REMARK                         _______ _______ _______ _____ _____    ______ ____
DOCKED: USER                              x       y       z     vdW  Elec       q    Type
DOCKED: USER                           _______ _______ _______ _____ _____    ______ ____
DOCKED: ROOT
DOCKED: ATOM      1  C   UNL     1      38.836  15.986 121.244 -0.21 -0.00    +0.000 C 
DOCKED: ENDROOT
DOCKED: BRANCH   1   2
DOCKED: ATOM      2  C   UNL     1      37.569  16.505 121.856 -0.21 -0.00    +0.000 C 
DOCKED: ATOM      3  N   UNL     1      37.412  16.509 123.284 -0.26 -0.00    +0.000 N 
DOCKED: ATOM      4  O   UNL     1      36.651  16.933 121.106 -0.19 -0.00    +0.000 OA
DOCKED: ATOM      5  H   UNL     1      38.209  16.334 123.836 -0.02 -0.00    +0.000 HD
DOCKED: BRANCH   3   6
DOCKED: ATOM      6  C   UNL     1      36.167  16.754 123.958 -0.29 -0.00    +0.000 A 
DOCKED: ATOM      7  C   UNL     1      35.752  18.052 124.299 -0.25 -0.00    +0.000 A 
DOCKED: ATOM      8  C   UNL     1      34.522  18.250 124.929 -0.31 -0.00    +0.000 A 
DOCKED: ATOM      9  C   UNL     1      33.707  17.150 125.200 -0.27 -0.00    +0.000 A 
DOCKED: ATOM     10  N   UNL     1      34.108  15.901 124.843 -0.55 -0.00    +0.000 NA
DOCKED: ATOM     11  C   UNL     1      35.302  15.682 124.229 -0.45 -0.00    +0.000 A 
DOCKED: ATOM     12  CM  UNL     1      34.904  16.936 124.583 -0.26 -0.00    +0.000 AC
DOCKED: ENDBRANCH   3   6
DOCKED: ENDBRANCH   1   2
DOCKED: BRANCH   1  12
DOCKED: ATOM     13  C   UNL     1      39.287  14.704 121.955 -0.40 -0.00    +0.000 C 
DOCKED: BRANCH  12  13
DOCKED: ATOM     14  C   UNL     1      38.157  13.669 122.104 -0.45 -0.00    +0.000 C 
DOCKED: BRANCH  13  14
DOCKED: ATOM     15  C   UNL     1      38.078  12.625 120.974 -0.38 -0.00    +0.000 C 
DOCKED: BRANCH  14  15
DOCKED: ATOM     16  C   UNL     1      36.699  11.950 120.877 -0.40 -0.00    +0.000 C 
DOCKED: BRANCH  15  16
DOCKED: ATOM     17  C   UNL     1      36.322  11.212 122.167 -0.64 -0.00    +0.000 C 
DOCKED: BRANCH  16  18
DOCKED: ATOM     18  O   UNL     1      36.980   9.217 121.025 -2.71 -0.00    +0.000 OA
DOCKED: ATOM     19  C   UNL     1      36.745   9.772 122.133 -0.67 -0.00    +0.000 C 
DOCKED: ATOM     20  N   UNL     1      36.854   9.020 123.343 -0.60 -0.00    +0.000 N 
DOCKED: ATOM     21  O   UNL     1      37.222   7.718 123.310 -2.57 -0.00    +0.000 OA
DOCKED: ATOM     22  H   UNL     1      36.661   9.452 124.207 -0.48 -0.00    +0.000 HD
DOCKED: ENDBRANCH  16  18
DOCKED: ENDBRANCH  15  16
DOCKED: ENDBRANCH  14  15
DOCKED: ENDBRANCH  13  14
DOCKED: ENDBRANCH  12  13
DOCKED: ENDBRANCH   1  12
DOCKED: TORSDOF 8DOCKED: TER
DOCKED: ENDMDL
________________________________________________________________________________


	BEGINNING GENETIC ALGORITHM DOCKING 19 of 100
Run: 19 Seed: 1972662874 873906983 [ Run 19 of 100 GA/GALS ]
Beginning LAMARCKIAN GENETIC ALGORITHM (LGA), with a maximum of 2500000 energy evaluations.

Final-Value: -13.488


	FINAL GENETIC ALGORITHM DOCKED STATE
	_______________________________________________


Detailed state:  trans 35.862 13.543 122.999 quatxyzw 0.402497 0.723367 -0.526261 0.194385 center 0.003 -0.142 -0.069 ntor 8 -135.9971 36.7046 103.8116 66.8616 177.3320 -41.3918 39.9828 -161.4264
State:	 35.862  13.543 122.999   0.410  0.737 -0.536 157.582   -136.00   36.70  103.81   66.86  177.33  -41.39   39.98 -161.43

DOCKED: MODEL       19
DOCKED: USER    Run = 19
DOCKED: USER    DPF = ligand_dock.biased.dpf
DOCKED: USER  
DOCKED: USER    Estimated Free Energy of Binding    =  -10.19 kcal/mol  [=(1)+(2)+(3)-(4)]
DOCKED: USER    Estimated Inhibition Constant, Ki   =   34.20 nM (nanomolar)  [Temperature = 298.15 K]
DOCKED: USER    
DOCKED: USER    (1) Final Intermolecular Energy     =  -12.57 kcal/mol
DOCKED: USER        vdW + Hbond + desolv Energy     =  -12.57 kcal/mol
DOCKED: USER        Electrostatic Energy            =   +0.00 kcal/mol
DOCKED: USER    (2) Final Total Internal Energy     =   -0.92 kcal/mol
DOCKED: USER    (3) Torsional Free Energy           =   +2.39 kcal/mol
DOCKED: USER    (4) Unbound System's Energy  [=(2)] =   -0.92 kcal/mol
DOCKED: USER    
DOCKED: USER    
DOCKED: USER    NEWDPF move ligand.dum.pdbqt
DOCKED: USER    NEWDPF about 0.003000 -0.142000 -0.069000
DOCKED: USER    NEWDPF tran0 35.861619 13.543470 122.999182
DOCKED: USER    NEWDPF quaternion0 0.402497 0.723367 -0.526261 0.194385
DOCKED: USER    NEWDPF axisangle0 0.410324 0.737434 -0.536494 157.582459
DOCKED: USER    NEWDPF quat0 0.410324 0.737434 -0.536494 157.582459
DOCKED: USER    NEWDPF dihe0 -136.00 36.70 103.81 66.86 177.33 -41.39 39.98 -161.43 
DOCKED: USER  keepresnum = 1 
DOCKED: USER  
DOCKED: REMARK  Name = 
DOCKED: REMARK  8 active torsions:
DOCKED: REMARK  status: ('A' for Active; 'I' for Inactive)
DOCKED: REMARK    1  A    between atoms: C_2  and  C_5
DOCKED: REMARK    2  A    between atoms: C_5  and  C_6
DOCKED: REMARK    3  A    between atoms: C_6  and  C_7
DOCKED: REMARK    4  A    between atoms: C_7  and  C_8
DOCKED: REMARK    5  A    between atoms: C_8  and  C_9
DOCKED: REMARK    6  A    between atoms: C_9  and  C_10
DOCKED: REMARK    7  A    between atoms: C_10  and  C_11
DOCKED: REMARK    8  A    between atoms: N_12  and  C_13
DOCKED: REMARK                            x       y       z     vdW  Elec       q    Type
DOCKED: REMARK                         _______ _______ _______ _____ _____    ______ ____
DOCKED: USER                              x       y       z     vdW  Elec       q    Type
DOCKED: USER                           _______ _______ _______ _____ _____    ______ ____
DOCKED: ROOT
DOCKED: ATOM      1  C   UNL     1      35.859  13.348 123.803 -0.56 -0.00    +0.000 C 
DOCKED: ENDROOT
DOCKED: BRANCH   1   2
DOCKED: ATOM      2  C   UNL     1      36.236  11.898 123.765 -0.70 -0.00    +0.000 C 
DOCKED: ATOM      3  N   UNL     1      35.582  11.011 122.842 -0.61 -0.00    +0.000 N 
DOCKED: ATOM      4  O   UNL     1      37.127  11.469 124.547 -0.68 -0.00    +0.000 OA
DOCKED: ATOM      5  H   UNL     1      35.026  11.410 122.134 -0.05 -0.00    +0.000 HD
DOCKED: BRANCH   3   6
DOCKED: ATOM      6  C   UNL     1      35.691   9.579 122.885 -0.59 -0.00    +0.000 A 
DOCKED: ATOM      7  C   UNL     1      34.581   8.745 122.669 -0.59 -0.00    +0.000 A 
DOCKED: ATOM      8  C   UNL     1      34.735   7.357 122.693 -0.64 -0.00    +0.000 A 
DOCKED: ATOM      9  C   UNL     1      35.999   6.812 122.918 -0.68 -0.00    +0.000 A 
DOCKED: ATOM     10  N   UNL     1      37.070   7.630 123.102 -2.35 -0.00    +0.000 NA
DOCKED: ATOM     11  C   UNL     1      36.947   8.984 123.083 -0.58 -0.00    +0.000 A 
DOCKED: ATOM     12  CM  UNL     1      35.870   8.169 122.897 +0.00 -0.00    +0.000 AC
DOCKED: ENDBRANCH   3   6
DOCKED: ENDBRANCH   1   2
DOCKED: BRANCH   1  12
DOCKED: ATOM     13  C   UNL     1      36.544  14.108 122.661 -0.44 -0.00    +0.000 C 
DOCKED: BRANCH  12  13
DOCKED: ATOM     14  C   UNL     1      37.219  15.412 123.124 -0.39 -0.00    +0.000 C 
DOCKED: BRANCH  13  14
DOCKED: ATOM     15  C   UNL     1      36.442  16.700 122.796 -0.29 -0.00    +0.000 C 
DOCKED: BRANCH  14  15
DOCKED: ATOM     16  C   UNL     1      35.957  17.446 124.051 -0.31 -0.00    +0.000 C 
DOCKED: BRANCH  15  16
DOCKED: ATOM     17  C   UNL     1      34.439  17.340 124.240 -0.44 -0.00    +0.000 C 
DOCKED: BRANCH  16  18
DOCKED: ATOM     18  O   UNL     1      34.471  15.219 125.343 -0.61 -0.00    +0.000 OA
DOCKED: ATOM     19  C   UNL     1      34.079  16.417 125.368 -0.49 -0.00    +0.000 C 
DOCKED: ATOM     20  N   UNL     1      33.272  16.879 126.452 -0.40 -0.00    +0.000 N 
DOCKED: ATOM     21  O   UNL     1      32.935  16.043 127.462 -1.17 -0.00    +0.000 OA
DOCKED: ATOM     22  H   UNL     1      32.958  17.812 126.466 -0.05 -0.00    +0.000 HD
DOCKED: ENDBRANCH  16  18
DOCKED: ENDBRANCH  15  16
DOCKED: ENDBRANCH  14  15
DOCKED: ENDBRANCH  13  14
DOCKED: ENDBRANCH  12  13
DOCKED: ENDBRANCH   1  12
DOCKED: TORSDOF 8DOCKED: TER
DOCKED: ENDMDL
________________________________________________________________________________


	BEGINNING GENETIC ALGORITHM DOCKING 20 of 100
Run: 20 Seed: 775133854 192307214 [ Run 20 of 100 GA/GALS ]
Beginning LAMARCKIAN GENETIC ALGORITHM (LGA), with a maximum of 2500000 energy evaluations.

Final-Value: -13.851


	FINAL GENETIC ALGORITHM DOCKED STATE
	_______________________________________________


Detailed state:  trans 37.088 11.777 122.526 quatxyzw -0.727897 -0.525519 -0.162219 0.409489 center 0.003 -0.142 -0.069 ntor 8 -178.9793 -165.1178 -178.7523 170.3672 -55.6720 120.8832 -41.8631 -4.2358
State:	 37.088  11.777 122.526  -0.798 -0.576 -0.178 131.654   -178.98 -165.12 -178.75  170.37  -55.67  120.88  -41.86   -4.24

DOCKED: MODEL       20
DOCKED: USER    Run = 20
DOCKED: USER    DPF = ligand_dock.biased.dpf
DOCKED: USER  
DOCKED: USER    Estimated Free Energy of Binding    =  -10.53 kcal/mol  [=(1)+(2)+(3)-(4)]
DOCKED: USER    Estimated Inhibition Constant, Ki   =   19.03 nM (nanomolar)  [Temperature = 298.15 K]
DOCKED: USER    
DOCKED: USER    (1) Final Intermolecular Energy     =  -12.92 kcal/mol
DOCKED: USER        vdW + Hbond + desolv Energy     =  -12.92 kcal/mol
DOCKED: USER        Electrostatic Energy            =   +0.00 kcal/mol
DOCKED: USER    (2) Final Total Internal Energy     =   -0.93 kcal/mol
DOCKED: USER    (3) Torsional Free Energy           =   +2.39 kcal/mol
DOCKED: USER    (4) Unbound System's Energy  [=(2)] =   -0.93 kcal/mol
DOCKED: USER    
DOCKED: USER    
DOCKED: USER    NEWDPF move ligand.dum.pdbqt
DOCKED: USER    NEWDPF about 0.003000 -0.142000 -0.069000
DOCKED: USER    NEWDPF tran0 37.088026 11.776811 122.525779
DOCKED: USER    NEWDPF quaternion0 -0.727897 -0.525519 -0.162219 0.409489
DOCKED: USER    NEWDPF axisangle0 -0.797857 -0.576028 -0.177810 131.654472
DOCKED: USER    NEWDPF quat0 -0.797857 -0.576028 -0.177810 131.654472
DOCKED: USER    NEWDPF dihe0 -178.98 -165.12 -178.75 170.37 -55.67 120.88 -41.86 -4.24 
DOCKED: USER  keepresnum = 1 
DOCKED: USER  
DOCKED: REMARK  Name = 
DOCKED: REMARK  8 active torsions:
DOCKED: REMARK  status: ('A' for Active; 'I' for Inactive)
DOCKED: REMARK    1  A    between atoms: C_2  and  C_5
DOCKED: REMARK    2  A    between atoms: C_5  and  C_6
DOCKED: REMARK    3  A    between atoms: C_6  and  C_7
DOCKED: REMARK    4  A    between atoms: C_7  and  C_8
DOCKED: REMARK    5  A    between atoms: C_8  and  C_9
DOCKED: REMARK    6  A    between atoms: C_9  and  C_10
DOCKED: REMARK    7  A    between atoms: C_10  and  C_11
DOCKED: REMARK    8  A    between atoms: N_12  and  C_13
DOCKED: REMARK                            x       y       z     vdW  Elec       q    Type
DOCKED: REMARK                         _______ _______ _______ _____ _____    ______ ____
DOCKED: USER                              x       y       z     vdW  Elec       q    Type
DOCKED: USER                           _______ _______ _______ _____ _____    ______ ____
DOCKED: ROOT
DOCKED: ATOM      1  C   UNL     1      36.382  11.699 122.102 -0.60 -0.00    +0.000 C 
DOCKED: ENDROOT
DOCKED: BRANCH   1   2
DOCKED: ATOM      2  C   UNL     1      36.261  10.209 121.984 -0.57 -0.00    +0.000 C 
DOCKED: ATOM      3  N   UNL     1      35.238   9.512 122.713 -0.60 -0.00    +0.000 N 
DOCKED: ATOM      4  O   UNL     1      37.065   9.581 121.242 -2.40 -0.00    +0.000 OA
DOCKED: ATOM      5  H   UNL     1      34.529  10.047 123.138 -0.38 -0.00    +0.000 HD
DOCKED: BRANCH   3   6
DOCKED: ATOM      6  C   UNL     1      35.185   8.083 122.862 -0.62 -0.00    +0.000 A 
DOCKED: ATOM      7  C   UNL     1      33.966   7.385 122.876 -0.65 -0.00    +0.000 A 
DOCKED: ATOM      8  C   UNL     1      33.958   5.994 122.995 -0.57 -0.00    +0.000 A 
DOCKED: ATOM      9  C   UNL     1      35.170   5.309 123.084 -0.44 -0.00    +0.000 A 
DOCKED: ATOM     10  N   UNL     1      36.345   5.993 123.045 -0.98 -0.00    +0.000 NA
DOCKED: ATOM     11  C   UNL     1      36.378   7.348 122.930 -0.69 -0.00    +0.000 A 
DOCKED: ATOM     12  CM  UNL     1      35.199   6.667 122.967 +0.00 -0.00    +0.000 AC
DOCKED: ENDBRANCH   3   6
DOCKED: ENDBRANCH   1   2
DOCKED: BRANCH   1  12
DOCKED: ATOM     13  C   UNL     1      37.059  12.076 123.425 -0.67 -0.00    +0.000 C 
DOCKED: BRANCH  12  13
DOCKED: ATOM     14  C   UNL     1      37.944  13.331 123.311 -0.44 -0.00    +0.000 C 
DOCKED: BRANCH  13  14
DOCKED: ATOM     15  C   UNL     1      37.209  14.608 122.865 -0.45 -0.00    +0.000 C 
DOCKED: BRANCH  14  15
DOCKED: ATOM     16  C   UNL     1      37.733  15.168 121.531 -0.30 -0.00    +0.000 C 
DOCKED: BRANCH  15  16
DOCKED: ATOM     17  C   UNL     1      38.948  14.388 121.013 -0.35 -0.00    +0.000 C 
DOCKED: BRANCH  16  18
DOCKED: ATOM     18  O   UNL     1      40.875  15.739 120.589 -0.24 -0.00    +0.000 OA
DOCKED: ATOM     19  C   UNL     1      40.241  15.033 121.420 -0.30 -0.00    +0.000 C 
DOCKED: ATOM     20  N   UNL     1      40.772  14.828 122.731 -0.50 -0.00    +0.000 N 
DOCKED: ATOM     21  O   UNL     1      41.945  15.398 123.093 -1.11 +0.00    +0.000 OA
DOCKED: ATOM     22  H   UNL     1      40.281  14.269 123.376 -0.05 -0.00    +0.000 HD
DOCKED: ENDBRANCH  16  18
DOCKED: ENDBRANCH  15  16
DOCKED: ENDBRANCH  14  15
DOCKED: ENDBRANCH  13  14
DOCKED: ENDBRANCH  12  13
DOCKED: ENDBRANCH   1  12
DOCKED: TORSDOF 8DOCKED: TER
DOCKED: ENDMDL
________________________________________________________________________________


	BEGINNING GENETIC ALGORITHM DOCKING 21 of 100
Run: 21 Seed: 1475482843 872864791 [ Run 21 of 100 GA/GALS ]
Beginning LAMARCKIAN GENETIC ALGORITHM (LGA), with a maximum of 2500000 energy evaluations.

Final-Value: -13.760


	FINAL GENETIC ALGORITHM DOCKED STATE
	_______________________________________________


Detailed state:  trans 37.593 14.345 121.702 quatxyzw 0.526815 -0.708112 0.232913 -0.408406 center 0.003 -0.142 -0.069 ntor 8 149.6737 144.7060 -116.7438 33.5122 131.3780 -13.0824 -30.7424 -151.3146
State:	 37.593  14.345 121.702   0.577 -0.776  0.255 -131.791    149.67  144.71 -116.74   33.51  131.38  -13.08  -30.74 -151.31

DOCKED: MODEL       21
DOCKED: USER    Run = 21
DOCKED: USER    DPF = ligand_dock.biased.dpf
DOCKED: USER  
DOCKED: USER    Estimated Free Energy of Binding    =  -10.35 kcal/mol  [=(1)+(2)+(3)-(4)]
DOCKED: USER    Estimated Inhibition Constant, Ki   =   25.73 nM (nanomolar)  [Temperature = 298.15 K]
DOCKED: USER    
DOCKED: USER    (1) Final Intermolecular Energy     =  -12.74 kcal/mol
DOCKED: USER        vdW + Hbond + desolv Energy     =  -12.74 kcal/mol
DOCKED: USER        Electrostatic Energy            =   +0.00 kcal/mol
DOCKED: USER    (2) Final Total Internal Energy     =   -1.02 kcal/mol
DOCKED: USER    (3) Torsional Free Energy           =   +2.39 kcal/mol
DOCKED: USER    (4) Unbound System's Energy  [=(2)] =   -1.02 kcal/mol
DOCKED: USER    
DOCKED: USER    
DOCKED: USER    NEWDPF move ligand.dum.pdbqt
DOCKED: USER    NEWDPF about 0.003000 -0.142000 -0.069000
DOCKED: USER    NEWDPF tran0 37.592917 14.345380 121.702492
DOCKED: USER    NEWDPF quaternion0 0.526815 -0.708112 0.232913 -0.408406
DOCKED: USER    NEWDPF axisangle0 0.577141 -0.775758 0.255163 -131.790506
DOCKED: USER    NEWDPF quat0 0.577141 -0.775758 0.255163 -131.790506
DOCKED: USER    NEWDPF dihe0 149.67 144.71 -116.74 33.51 131.38 -13.08 -30.74 -151.31 
DOCKED: USER  keepresnum = 1 
DOCKED: USER  
DOCKED: REMARK  Name = 
DOCKED: REMARK  8 active torsions:
DOCKED: REMARK  status: ('A' for Active; 'I' for Inactive)
DOCKED: REMARK    1  A    between atoms: C_2  and  C_5
DOCKED: REMARK    2  A    between atoms: C_5  and  C_6
DOCKED: REMARK    3  A    between atoms: C_6  and  C_7
DOCKED: REMARK    4  A    between atoms: C_7  and  C_8
DOCKED: REMARK    5  A    between atoms: C_8  and  C_9
DOCKED: REMARK    6  A    between atoms: C_9  and  C_10
DOCKED: REMARK    7  A    between atoms: C_10  and  C_11
DOCKED: REMARK    8  A    between atoms: N_12  and  C_13
DOCKED: REMARK                            x       y       z     vdW  Elec       q    Type
DOCKED: REMARK                         _______ _______ _______ _____ _____    ______ ____
DOCKED: USER                              x       y       z     vdW  Elec       q    Type
DOCKED: USER                           _______ _______ _______ _____ _____    ______ ____
DOCKED: ROOT
DOCKED: ATOM      1  C   UNL     1      38.396  14.372 121.505 -0.39 -0.00    +0.000 C 
DOCKED: ENDROOT
DOCKED: BRANCH   1   2
DOCKED: ATOM      2  C   UNL     1      38.339  14.654 120.034 -0.28 -0.00    +0.000 C 
DOCKED: ATOM      3  N   UNL     1      37.307  14.059 119.230 -0.32 -0.00    +0.000 N 
DOCKED: ATOM      4  O   UNL     1      39.202  15.413 119.516 -0.20 -0.00    +0.000 OA
DOCKED: ATOM      5  H   UNL     1      36.557  13.620 119.693 -0.03 -0.00    +0.000 HD
DOCKED: BRANCH   3   6
DOCKED: ATOM      6  C   UNL     1      37.300  14.066 117.793 -0.33 -0.00    +0.000 A 
DOCKED: ATOM      7  C   UNL     1      36.848  15.177 117.060 -0.20 -0.00    +0.000 A 
DOCKED: ATOM      8  C   UNL     1      36.883  15.154 115.664 -0.17 -0.00    +0.000 A 
DOCKED: ATOM      9  C   UNL     1      37.384  14.028 115.010 -0.32 -0.00    +0.000 A 
DOCKED: ATOM     10  N   UNL     1      37.841  12.969 115.731 -0.46 -0.00    +0.000 NA
DOCKED: ATOM     11  C   UNL     1      37.817  12.967 117.091 -0.31 -0.00    +0.000 A 
DOCKED: ATOM     12  CM  UNL     1      37.359  14.031 116.374 +0.00 -0.00    +0.000 AC
DOCKED: ENDBRANCH   3   6
DOCKED: ENDBRANCH   1   2
DOCKED: BRANCH   1  12
DOCKED: ATOM     13  C   UNL     1      37.219  15.043 122.224 -0.36 -0.00    +0.000 C 
DOCKED: BRANCH  12  13
DOCKED: ATOM     14  C   UNL     1      36.876  14.378 123.569 -0.45 -0.00    +0.000 C 
DOCKED: BRANCH  13  14
DOCKED: ATOM     15  C   UNL     1      36.155  13.022 123.459 -0.63 -0.00    +0.000 C 
DOCKED: BRANCH  14  15
DOCKED: ATOM     16  C   UNL     1      37.056  11.906 122.903 -0.64 -0.00    +0.000 C 
DOCKED: BRANCH  15  16
DOCKED: ATOM     17  C   UNL     1      36.298  10.964 121.959 -0.60 -0.00    +0.000 C 
DOCKED: BRANCH  16  18
DOCKED: ATOM     18  O   UNL     1      37.045   8.891 121.031 -2.70 -0.00    +0.000 OA
DOCKED: ATOM     19  C   UNL     1      36.782   9.548 122.075 -0.67 -0.00    +0.000 C 
DOCKED: ATOM     20  N   UNL     1      36.919   8.931 123.356 -0.61 -0.00    +0.000 N 
DOCKED: ATOM     21  O   UNL     1      37.342   7.649 123.459 -2.58 -0.00    +0.000 OA
DOCKED: ATOM     22  H   UNL     1      36.705   9.441 124.171 -0.48 -0.00    +0.000 HD
DOCKED: ENDBRANCH  16  18
DOCKED: ENDBRANCH  15  16
DOCKED: ENDBRANCH  14  15
DOCKED: ENDBRANCH  13  14
DOCKED: ENDBRANCH  12  13
DOCKED: ENDBRANCH   1  12
DOCKED: TORSDOF 8DOCKED: TER
DOCKED: ENDMDL
________________________________________________________________________________


	BEGINNING GENETIC ALGORITHM DOCKING 22 of 100
Run: 22 Seed: 1319006054 1580393405 [ Run 22 of 100 GA/GALS ]
Beginning LAMARCKIAN GENETIC ALGORITHM (LGA), with a maximum of 2500000 energy evaluations.

Final-Value: -13.961


	FINAL GENETIC ALGORITHM DOCKED STATE
	_______________________________________________


Detailed state:  trans 38.429 14.619 121.171 quatxyzw -0.947218 -0.074357 -0.306802 0.055879 center 0.003 -0.142 -0.069 ntor 8 61.7976 42.9363 -69.7065 -102.2435 0.4576 -140.0583 61.6258 -138.4171
State:	 38.429  14.619 121.171  -0.949 -0.074 -0.307 173.593     61.80   42.94  -69.71 -102.24    0.46 -140.06   61.63 -138.42

DOCKED: MODEL       22
DOCKED: USER    Run = 22
DOCKED: USER    DPF = ligand_dock.biased.dpf
DOCKED: USER  
DOCKED: USER    Estimated Free Energy of Binding    =  -10.59 kcal/mol  [=(1)+(2)+(3)-(4)]
DOCKED: USER    Estimated Inhibition Constant, Ki   =   17.36 nM (nanomolar)  [Temperature = 298.15 K]
DOCKED: USER    
DOCKED: USER    (1) Final Intermolecular Energy     =  -12.97 kcal/mol
DOCKED: USER        vdW + Hbond + desolv Energy     =  -12.97 kcal/mol
DOCKED: USER        Electrostatic Energy            =   +0.00 kcal/mol
DOCKED: USER    (2) Final Total Internal Energy     =   -0.99 kcal/mol
DOCKED: USER    (3) Torsional Free Energy           =   +2.39 kcal/mol
DOCKED: USER    (4) Unbound System's Energy  [=(2)] =   -0.99 kcal/mol
DOCKED: USER    
DOCKED: USER    
DOCKED: USER    NEWDPF move ligand.dum.pdbqt
DOCKED: USER    NEWDPF about 0.003000 -0.142000 -0.069000
DOCKED: USER    NEWDPF tran0 38.429357 14.619224 121.170760
DOCKED: USER    NEWDPF quaternion0 -0.947218 -0.074357 -0.306802 0.055879
DOCKED: USER    NEWDPF axisangle0 -0.948700 -0.074474 -0.307282 173.593352
DOCKED: USER    NEWDPF quat0 -0.948700 -0.074474 -0.307282 173.593352
DOCKED: USER    NEWDPF dihe0 61.80 42.94 -69.71 -102.24 0.46 -140.06 61.63 -138.42 
DOCKED: USER  keepresnum = 1 
DOCKED: USER  
DOCKED: REMARK  Name = 
DOCKED: REMARK  8 active torsions:
DOCKED: REMARK  status: ('A' for Active; 'I' for Inactive)
DOCKED: REMARK    1  A    between atoms: C_2  and  C_5
DOCKED: REMARK    2  A    between atoms: C_5  and  C_6
DOCKED: REMARK    3  A    between atoms: C_6  and  C_7
DOCKED: REMARK    4  A    between atoms: C_7  and  C_8
DOCKED: REMARK    5  A    between atoms: C_8  and  C_9
DOCKED: REMARK    6  A    between atoms: C_9  and  C_10
DOCKED: REMARK    7  A    between atoms: C_10  and  C_11
DOCKED: REMARK    8  A    between atoms: N_12  and  C_13
DOCKED: REMARK                            x       y       z     vdW  Elec       q    Type
DOCKED: REMARK                         _______ _______ _______ _____ _____    ______ ____
DOCKED: USER                              x       y       z     vdW  Elec       q    Type
DOCKED: USER                           _______ _______ _______ _____ _____    ______ ____
DOCKED: ROOT
DOCKED: ATOM      1  C   UNL     1      38.029  15.333 121.046 -0.27 -0.00    +0.000 C 
DOCKED: ENDROOT
DOCKED: BRANCH   1   2
DOCKED: ATOM      2  C   UNL     1      37.308  15.056 119.761 -0.26 -0.00    +0.000 C 
DOCKED: ATOM      3  N   UNL     1      37.808  14.055 118.859 -0.30 -0.00    +0.000 N 
DOCKED: ATOM      4  O   UNL     1      36.265  15.708 119.485 -0.21 -0.00    +0.000 OA
DOCKED: ATOM      5  H   UNL     1      38.514  13.451 119.186 -0.12 -0.00    +0.000 HD
DOCKED: BRANCH   3   6
DOCKED: ATOM      6  C   UNL     1      37.341  13.879 117.511 -0.34 -0.00    +0.000 A 
DOCKED: ATOM      7  C   UNL     1      35.998  14.095 117.159 -0.33 -0.00    +0.000 A 
DOCKED: ATOM      8  C   UNL     1      35.590  13.939 115.832 -0.25 -0.00    +0.000 A 
DOCKED: ATOM      9  C   UNL     1      36.531  13.583 114.865 -0.28 -0.00    +0.000 A 
DOCKED: ATOM     10  N   UNL     1      37.832  13.400 115.214 -0.42 -0.00    +0.000 NA
DOCKED: ATOM     11  C   UNL     1      38.254  13.546 116.499 -0.34 -0.00    +0.000 A 
DOCKED: ATOM     12  CM  UNL     1      36.949  13.732 116.154 +0.00 -0.00    +0.000 AC
DOCKED: ENDBRANCH   3   6
DOCKED: ENDBRANCH   1   2
DOCKED: BRANCH   1  12
DOCKED: ATOM     13  C   UNL     1      38.153  14.050 121.876 -0.45 -0.00    +0.000 C 
DOCKED: BRANCH  12  13
DOCKED: ATOM     14  C   UNL     1      37.288  14.071 123.149 -0.51 -0.00    +0.000 C 
DOCKED: BRANCH  13  14
DOCKED: ATOM     15  C   UNL     1      36.960  12.686 123.737 -0.56 -0.00    +0.000 C 
DOCKED: BRANCH  14  15
DOCKED: ATOM     16  C   UNL     1      36.148  11.802 122.774 -0.65 -0.00    +0.000 C 
DOCKED: BRANCH  15  16
DOCKED: ATOM     17  C   UNL     1      37.040  11.092 121.748 -0.53 -0.00    +0.000 C 
DOCKED: BRANCH  16  18
DOCKED: ATOM     18  O   UNL     1      37.029   8.836 120.954 -2.69 -0.00    +0.000 OA
DOCKED: ATOM     19  C   UNL     1      37.054   9.605 121.953 -0.60 -0.00    +0.000 C 
DOCKED: ATOM     20  N   UNL     1      37.066   9.056 123.272 -0.63 -0.00    +0.000 N 
DOCKED: ATOM     21  O   UNL     1      37.064   7.715 123.457 -2.70 -0.00    +0.000 OA
DOCKED: ATOM     22  H   UNL     1      37.076   9.656 124.053 -0.53 -0.00    +0.000 HD
DOCKED: ENDBRANCH  16  18
DOCKED: ENDBRANCH  15  16
DOCKED: ENDBRANCH  14  15
DOCKED: ENDBRANCH  13  14
DOCKED: ENDBRANCH  12  13
DOCKED: ENDBRANCH   1  12
DOCKED: TORSDOF 8DOCKED: TER
DOCKED: ENDMDL
________________________________________________________________________________


	BEGINNING GENETIC ALGORITHM DOCKING 23 of 100
Run: 23 Seed: 979672500 1071989144 [ Run 23 of 100 GA/GALS ]
Beginning LAMARCKIAN GENETIC ALGORITHM (LGA), with a maximum of 2500000 energy evaluations.

Final-Value: -13.410


	FINAL GENETIC ALGORITHM DOCKED STATE
	_______________________________________________


Detailed state:  trans 37.985 14.244 122.214 quatxyzw 0.051349 -0.807203 -0.580875 -0.091496 center 0.003 -0.142 -0.069 ntor 8 138.8160 111.9584 174.8915 74.2675 66.6335 161.3827 -62.2531 -64.1689
State:	 37.985  14.244 122.214   0.052 -0.811 -0.583 -169.501    138.82  111.96  174.89   74.27   66.63  161.38  -62.25  -64.17

DOCKED: MODEL       23
DOCKED: USER    Run = 23
DOCKED: USER    DPF = ligand_dock.biased.dpf
DOCKED: USER  
DOCKED: USER    Estimated Free Energy of Binding    =  -10.15 kcal/mol  [=(1)+(2)+(3)-(4)]
DOCKED: USER    Estimated Inhibition Constant, Ki   =   36.43 nM (nanomolar)  [Temperature = 298.15 K]
DOCKED: USER    
DOCKED: USER    (1) Final Intermolecular Energy     =  -12.53 kcal/mol
DOCKED: USER        vdW + Hbond + desolv Energy     =  -12.53 kcal/mol
DOCKED: USER        Electrostatic Energy            =   +0.00 kcal/mol
DOCKED: USER    (2) Final Total Internal Energy     =   -0.88 kcal/mol
DOCKED: USER    (3) Torsional Free Energy           =   +2.39 kcal/mol
DOCKED: USER    (4) Unbound System's Energy  [=(2)] =   -0.88 kcal/mol
DOCKED: USER    
DOCKED: USER    
DOCKED: USER    NEWDPF move ligand.dum.pdbqt
DOCKED: USER    NEWDPF about 0.003000 -0.142000 -0.069000
DOCKED: USER    NEWDPF tran0 37.985467 14.244392 122.213506
DOCKED: USER    NEWDPF quaternion0 0.051349 -0.807203 -0.580875 -0.091496
DOCKED: USER    NEWDPF axisangle0 0.051565 -0.810603 -0.583322 -169.500621
DOCKED: USER    NEWDPF quat0 0.051565 -0.810603 -0.583322 -169.500621
DOCKED: USER    NEWDPF dihe0 138.82 111.96 174.89 74.27 66.63 161.38 -62.25 -64.17 
DOCKED: USER  keepresnum = 1 
DOCKED: USER  
DOCKED: REMARK  Name = 
DOCKED: REMARK  8 active torsions:
DOCKED: REMARK  status: ('A' for Active; 'I' for Inactive)
DOCKED: REMARK    1  A    between atoms: C_2  and  C_5
DOCKED: REMARK    2  A    between atoms: C_5  and  C_6
DOCKED: REMARK    3  A    between atoms: C_6  and  C_7
DOCKED: REMARK    4  A    between atoms: C_7  and  C_8
DOCKED: REMARK    5  A    between atoms: C_8  and  C_9
DOCKED: REMARK    6  A    between atoms: C_9  and  C_10
DOCKED: REMARK    7  A    between atoms: C_10  and  C_11
DOCKED: REMARK    8  A    between atoms: N_12  and  C_13
DOCKED: REMARK                            x       y       z     vdW  Elec       q    Type
DOCKED: REMARK                         _______ _______ _______ _____ _____    ______ ____
DOCKED: USER                              x       y       z     vdW  Elec       q    Type
DOCKED: USER                           _______ _______ _______ _____ _____    ______ ____
DOCKED: ROOT
DOCKED: ATOM      1  C   UNL     1      38.266  13.886 121.522 -0.42 -0.00    +0.000 C 
DOCKED: ENDROOT
DOCKED: BRANCH   1   2
DOCKED: ATOM      2  C   UNL     1      39.468  14.725 121.210 -0.33 -0.00    +0.000 C 
DOCKED: ATOM      3  N   UNL     1      40.445  14.986 122.231 -0.42 -0.00    +0.000 N 
DOCKED: ATOM      4  O   UNL     1      39.608  15.195 120.049 -0.24 -0.00    +0.000 OA
DOCKED: ATOM      5  H   UNL     1      40.393  14.463 123.064 -0.05 -0.00    +0.000 HD
DOCKED: BRANCH   3   6
DOCKED: ATOM      6  C   UNL     1      41.495  15.961 122.112 -0.35 -0.00    +0.000 A 
DOCKED: ATOM      7  C   UNL     1      42.730  15.802 122.763 -0.35 -0.00    +0.000 A 
DOCKED: ATOM      8  C   UNL     1      43.733  16.759 122.600 -0.33 -0.00    +0.000 A 
DOCKED: ATOM      9  C   UNL     1      43.501  17.860 121.775 -0.17 -0.00    +0.000 A 
DOCKED: ATOM     10  N   UNL     1      42.310  17.990 121.132 -0.09 -0.00    +0.000 NA
DOCKED: ATOM     11  C   UNL     1      41.317  17.072 121.274 -0.14 -0.00    +0.000 A 
DOCKED: ATOM     12  CM  UNL     1      42.509  16.936 121.920 +0.00 -0.00    +0.000 AC
DOCKED: ENDBRANCH   3   6
DOCKED: ENDBRANCH   1   2
DOCKED: BRANCH   1  12
DOCKED: ATOM     13  C   UNL     1      38.064  13.785 123.039 -0.50 -0.00    +0.000 C 
DOCKED: BRANCH  12  13
DOCKED: ATOM     14  C   UNL     1      36.657  14.218 123.489 -0.51 -0.00    +0.000 C 
DOCKED: BRANCH  13  14
DOCKED: ATOM     15  C   UNL     1      35.678  13.063 123.768 -0.46 -0.00    +0.000 C 
DOCKED: BRANCH  14  15
DOCKED: ATOM     16  C   UNL     1      36.334  11.677 123.643 -0.70 -0.00    +0.000 C 
DOCKED: BRANCH  15  16
DOCKED: ATOM     17  C   UNL     1      36.008  10.999 122.306 -0.64 -0.00    +0.000 C 
DOCKED: BRANCH  16  18
DOCKED: ATOM     18  O   UNL     1      37.064   9.218 121.110 -2.74 -0.00    +0.000 OA
DOCKED: ATOM     19  C   UNL     1      36.610   9.627 122.213 -0.69 -0.00    +0.000 C 
DOCKED: ATOM     20  N   UNL     1      36.644   8.772 123.357 -0.62 -0.00    +0.000 N 
DOCKED: ATOM     21  O   UNL     1      37.173   7.529 123.269 -2.44 -0.00    +0.000 OA
DOCKED: ATOM     22  H   UNL     1      36.280   9.088 124.216 -0.33 -0.00    +0.000 HD
DOCKED: ENDBRANCH  16  18
DOCKED: ENDBRANCH  15  16
DOCKED: ENDBRANCH  14  15
DOCKED: ENDBRANCH  13  14
DOCKED: ENDBRANCH  12  13
DOCKED: ENDBRANCH   1  12
DOCKED: TORSDOF 8DOCKED: TER
DOCKED: ENDMDL
________________________________________________________________________________


	BEGINNING GENETIC ALGORITHM DOCKING 24 of 100
Run: 24 Seed: 1768215573 487359068 [ Run 24 of 100 GA/GALS ]
Beginning LAMARCKIAN GENETIC ALGORITHM (LGA), with a maximum of 2500000 energy evaluations.

Final-Value: -14.045


	FINAL GENETIC ALGORITHM DOCKED STATE
	_______________________________________________


Detailed state:  trans 36.447 15.716 122.992 quatxyzw -0.773335 0.051157 0.520856 0.357834 center 0.003 -0.142 -0.069 ntor 8 -174.7271 112.8197 -157.4055 -12.4594 -76.6812 -8.1737 -50.9314 -25.8002
State:	 36.447  15.716 122.992  -0.828  0.055  0.558 138.066   -174.73  112.82 -157.41  -12.46  -76.68   -8.17  -50.93  -25.80

DOCKED: MODEL       24
DOCKED: USER    Run = 24
DOCKED: USER    DPF = ligand_dock.biased.dpf
DOCKED: USER  
DOCKED: USER    Estimated Free Energy of Binding    =  -10.89 kcal/mol  [=(1)+(2)+(3)-(4)]
DOCKED: USER    Estimated Inhibition Constant, Ki   =   10.39 nM (nanomolar)  [Temperature = 298.15 K]
DOCKED: USER    
DOCKED: USER    (1) Final Intermolecular Energy     =  -13.28 kcal/mol
DOCKED: USER        vdW + Hbond + desolv Energy     =  -13.28 kcal/mol
DOCKED: USER        Electrostatic Energy            =   +0.00 kcal/mol
DOCKED: USER    (2) Final Total Internal Energy     =   -0.77 kcal/mol
DOCKED: USER    (3) Torsional Free Energy           =   +2.39 kcal/mol
DOCKED: USER    (4) Unbound System's Energy  [=(2)] =   -0.77 kcal/mol
DOCKED: USER    
DOCKED: USER    
DOCKED: USER    NEWDPF move ligand.dum.pdbqt
DOCKED: USER    NEWDPF about 0.003000 -0.142000 -0.069000
DOCKED: USER    NEWDPF tran0 36.446672 15.716135 122.992111
DOCKED: USER    NEWDPF quaternion0 -0.773335 0.051157 0.520856 0.357834
DOCKED: USER    NEWDPF axisangle0 -0.828172 0.054785 0.557790 138.065509
DOCKED: USER    NEWDPF quat0 -0.828172 0.054785 0.557790 138.065509
DOCKED: USER    NEWDPF dihe0 -174.73 112.82 -157.41 -12.46 -76.68 -8.17 -50.93 -25.80 
DOCKED: USER  keepresnum = 1 
DOCKED: USER  
DOCKED: REMARK  Name = 
DOCKED: REMARK  8 active torsions:
DOCKED: REMARK  status: ('A' for Active; 'I' for Inactive)
DOCKED: REMARK    1  A    between atoms: C_2  and  C_5
DOCKED: REMARK    2  A    between atoms: C_5  and  C_6
DOCKED: REMARK    3  A    between atoms: C_6  and  C_7
DOCKED: REMARK    4  A    between atoms: C_7  and  C_8
DOCKED: REMARK    5  A    between atoms: C_8  and  C_9
DOCKED: REMARK    6  A    between atoms: C_9  and  C_10
DOCKED: REMARK    7  A    between atoms: C_10  and  C_11
DOCKED: REMARK    8  A    between atoms: N_12  and  C_13
DOCKED: REMARK                            x       y       z     vdW  Elec       q    Type
DOCKED: REMARK                         _______ _______ _______ _____ _____    ______ ____
DOCKED: USER                              x       y       z     vdW  Elec       q    Type
DOCKED: USER                           _______ _______ _______ _____ _____    ______ ____
DOCKED: ROOT
DOCKED: ATOM      1  C   UNL     1      36.252  16.489 122.770 -0.31 -0.00    +0.000 C 
DOCKED: ENDROOT
DOCKED: BRANCH   1   2
DOCKED: ATOM      2  C   UNL     1      35.109  16.791 123.692 -0.43 -0.00    +0.000 C 
DOCKED: ATOM      3  N   UNL     1      35.364  17.351 124.991 -0.31 -0.00    +0.000 N 
DOCKED: ATOM      4  O   UNL     1      33.931  16.548 123.316 -0.47 -0.00    +0.000 OA
DOCKED: ATOM      5  H   UNL     1      36.270  17.687 125.179 -0.01 -0.00    +0.000 HD
DOCKED: BRANCH   3   6
DOCKED: ATOM      6  C   UNL     1      34.378  17.453 126.032 -0.31 -0.00    +0.000 A 
DOCKED: ATOM      7  C   UNL     1      34.041  18.686 126.614 -0.24 -0.00    +0.000 A 
DOCKED: ATOM      8  C   UNL     1      33.058  18.746 127.605 -0.20 -0.00    +0.000 A 
DOCKED: ATOM      9  C   UNL     1      32.409  17.574 127.996 -0.30 -0.00    +0.000 A 
DOCKED: ATOM     10  N   UNL     1      32.728  16.390 127.409 -0.98 -0.00    +0.000 NA
DOCKED: ATOM     11  C   UNL     1      33.681  16.306 126.442 -0.34 -0.00    +0.000 A 
DOCKED: ATOM     12  CM  UNL     1      33.364  17.495 127.027 -0.00 -0.00    +0.000 AC
DOCKED: ENDBRANCH   3   6
DOCKED: ENDBRANCH   1   2
DOCKED: BRANCH   1  12
DOCKED: ATOM     13  C   UNL     1      37.258  15.557 123.455 -0.37 -0.00    +0.000 C 
DOCKED: BRANCH  12  13
DOCKED: ATOM     14  C   UNL     1      37.761  14.432 122.532 -0.45 -0.00    +0.000 C 
DOCKED: BRANCH  13  14
DOCKED: ATOM     15  C   UNL     1      36.712  13.362 122.178 -0.46 -0.00    +0.000 C 
DOCKED: BRANCH  14  15
DOCKED: ATOM     16  C   UNL     1      37.283  11.933 122.193 -0.50 -0.00    +0.000 C 
DOCKED: BRANCH  15  16
DOCKED: ATOM     17  C   UNL     1      36.191  10.870 122.023 -0.59 -0.00    +0.000 C 
DOCKED: BRANCH  16  18
DOCKED: ATOM     18  O   UNL     1      37.029   8.852 121.054 -2.69 -0.00    +0.000 OA
DOCKED: ATOM     19  C   UNL     1      36.747   9.478 122.111 -0.69 -0.00    +0.000 C 
DOCKED: ATOM     20  N   UNL     1      36.930   8.850 123.381 -0.62 -0.00    +0.000 N 
DOCKED: ATOM     21  O   UNL     1      37.418   7.589 123.458 -2.51 -0.00    +0.000 OA
DOCKED: ATOM     22  H   UNL     1      36.700   9.336 124.205 -0.49 -0.00    +0.000 HD
DOCKED: ENDBRANCH  16  18
DOCKED: ENDBRANCH  15  16
DOCKED: ENDBRANCH  14  15
DOCKED: ENDBRANCH  13  14
DOCKED: ENDBRANCH  12  13
DOCKED: ENDBRANCH   1  12
DOCKED: TORSDOF 8DOCKED: TER
DOCKED: ENDMDL
________________________________________________________________________________


	BEGINNING GENETIC ALGORITHM DOCKING 25 of 100
Run: 25 Seed: 1712172843 1082215549 [ Run 25 of 100 GA/GALS ]
Beginning LAMARCKIAN GENETIC ALGORITHM (LGA), with a maximum of 2500000 energy evaluations.

Final-Value: -14.499


	FINAL GENETIC ALGORITHM DOCKED STATE
	_______________________________________________


Detailed state:  trans 37.895 13.966 122.174 quatxyzw -0.496743 0.674879 -0.081654 0.539553 center 0.003 -0.142 -0.069 ntor 8 107.0558 24.1657 -137.1331 -90.3661 -71.9105 105.6227 -90.7812 170.2898
State:	 37.895  13.966 122.174  -0.590  0.802 -0.097 114.694    107.06   24.17 -137.13  -90.37  -71.91  105.62  -90.78  170.29

DOCKED: MODEL       25
DOCKED: USER    Run = 25
DOCKED: USER    DPF = ligand_dock.biased.dpf
DOCKED: USER  
DOCKED: USER    Estimated Free Energy of Binding    =  -10.82 kcal/mol  [=(1)+(2)+(3)-(4)]
DOCKED: USER    Estimated Inhibition Constant, Ki   =   11.64 nM (nanomolar)  [Temperature = 298.15 K]
DOCKED: USER    
DOCKED: USER    (1) Final Intermolecular Energy     =  -13.21 kcal/mol
DOCKED: USER        vdW + Hbond + desolv Energy     =  -13.21 kcal/mol
DOCKED: USER        Electrostatic Energy            =   +0.00 kcal/mol
DOCKED: USER    (2) Final Total Internal Energy     =   -1.29 kcal/mol
DOCKED: USER    (3) Torsional Free Energy           =   +2.39 kcal/mol
DOCKED: USER    (4) Unbound System's Energy  [=(2)] =   -1.29 kcal/mol
DOCKED: USER    
DOCKED: USER    
DOCKED: USER    NEWDPF move ligand.dum.pdbqt
DOCKED: USER    NEWDPF about 0.003000 -0.142000 -0.069000
DOCKED: USER    NEWDPF tran0 37.894864 13.966441 122.173750
DOCKED: USER    NEWDPF quaternion0 -0.496743 0.674879 -0.081654 0.539553
DOCKED: USER    NEWDPF axisangle0 -0.589990 0.801565 -0.096981 114.693521
DOCKED: USER    NEWDPF quat0 -0.589990 0.801565 -0.096981 114.693521
DOCKED: USER    NEWDPF dihe0 107.06 24.17 -137.13 -90.37 -71.91 105.62 -90.78 170.29 
DOCKED: USER  keepresnum = 1 
DOCKED: USER  
DOCKED: REMARK  Name = 
DOCKED: REMARK  8 active torsions:
DOCKED: REMARK  status: ('A' for Active; 'I' for Inactive)
DOCKED: REMARK    1  A    between atoms: C_2  and  C_5
DOCKED: REMARK    2  A    between atoms: C_5  and  C_6
DOCKED: REMARK    3  A    between atoms: C_6  and  C_7
DOCKED: REMARK    4  A    between atoms: C_7  and  C_8
DOCKED: REMARK    5  A    between atoms: C_8  and  C_9
DOCKED: REMARK    6  A    between atoms: C_9  and  C_10
DOCKED: REMARK    7  A    between atoms: C_10  and  C_11
DOCKED: REMARK    8  A    between atoms: N_12  and  C_13
DOCKED: REMARK                            x       y       z     vdW  Elec       q    Type
DOCKED: REMARK                         _______ _______ _______ _____ _____    ______ ____
DOCKED: USER                              x       y       z     vdW  Elec       q    Type
DOCKED: USER                           _______ _______ _______ _____ _____    ______ ____
DOCKED: ROOT
DOCKED: ATOM      1  C   UNL     1      38.569  13.861 121.705 -0.39 -0.00    +0.000 C 
DOCKED: ENDROOT
DOCKED: BRANCH   1   2
DOCKED: ATOM      2  C   UNL     1      38.060  14.250 120.350 -0.34 -0.00    +0.000 C 
DOCKED: ATOM      3  N   UNL     1      37.209  13.352 119.618 -0.40 -0.00    +0.000 N 
DOCKED: ATOM      4  O   UNL     1      38.386  15.366 119.864 -0.21 -0.00    +0.000 OA
DOCKED: ATOM      5  H   UNL     1      36.837  12.576 120.097 -0.05 -0.00    +0.000 HD
DOCKED: BRANCH   3   6
DOCKED: ATOM      6  C   UNL     1      36.866  13.516 118.232 -0.37 -0.00    +0.000 A 
DOCKED: ATOM      7  C   UNL     1      35.617  14.024 117.833 -0.31 -0.00    +0.000 A 
DOCKED: ATOM      8  C   UNL     1      35.333  14.193 116.477 -0.30 -0.00    +0.000 A 
DOCKED: ATOM      9  C   UNL     1      36.304  13.869 115.528 -0.28 -0.00    +0.000 A 
DOCKED: ATOM     10  N   UNL     1      37.517  13.401 115.928 -0.41 -0.00    +0.000 NA
DOCKED: ATOM     11  C   UNL     1      37.817  13.227 117.242 -0.32 -0.00    +0.000 A 
DOCKED: ATOM     12  CM  UNL     1      36.601  13.698 116.848 +0.00 -0.00    +0.000 AC
DOCKED: ENDBRANCH   3   6
DOCKED: ENDBRANCH   1   2
DOCKED: BRANCH   1  12
DOCKED: ATOM     13  C   UNL     1      37.869  14.683 122.794 -0.44 -0.00    +0.000 C 
DOCKED: BRANCH  12  13
DOCKED: ATOM     14  C   UNL     1      36.681  13.944 123.437 -0.54 -0.00    +0.000 C 
DOCKED: BRANCH  13  14
DOCKED: ATOM     15  C   UNL     1      36.945  12.467 123.786 -0.59 -0.00    +0.000 C 
DOCKED: BRANCH  14  15
DOCKED: ATOM     16  C   UNL     1      35.802  11.534 123.352 -0.65 -0.00    +0.000 C 
DOCKED: BRANCH  15  16
DOCKED: ATOM     17  C   UNL     1      36.053  10.911 121.973 -0.56 -0.00    +0.000 C 
DOCKED: BRANCH  16  18
DOCKED: ATOM     18  O   UNL     1      37.061   8.957 121.032 -2.71 -0.00    +0.000 OA
DOCKED: ATOM     19  C   UNL     1      36.699   9.560 122.079 -0.69 -0.00    +0.000 C 
DOCKED: ATOM     20  N   UNL     1      36.879   8.941 123.355 -0.61 -0.00    +0.000 N 
DOCKED: ATOM     21  O   UNL     1      37.448   7.717 123.449 -2.59 -0.00    +0.000 OA
DOCKED: ATOM     22  H   UNL     1      36.588   9.409 124.171 -0.45 -0.00    +0.000 HD
DOCKED: ENDBRANCH  16  18
DOCKED: ENDBRANCH  15  16
DOCKED: ENDBRANCH  14  15
DOCKED: ENDBRANCH  13  14
DOCKED: ENDBRANCH  12  13
DOCKED: ENDBRANCH   1  12
DOCKED: TORSDOF 8DOCKED: TER
DOCKED: ENDMDL
________________________________________________________________________________


	BEGINNING GENETIC ALGORITHM DOCKING 26 of 100
Run: 26 Seed: 1010068021 1435029097 [ Run 26 of 100 GA/GALS ]
Beginning LAMARCKIAN GENETIC ALGORITHM (LGA), with a maximum of 2500000 energy evaluations.

Final-Value: -13.477


	FINAL GENETIC ALGORITHM DOCKED STATE
	_______________________________________________


Detailed state:  trans 39.065 15.413 121.252 quatxyzw -0.874128 0.217902 0.420883 -0.106191 center 0.003 -0.142 -0.069 ntor 8 -79.1365 -170.4739 -100.7322 75.2443 -149.2083 -137.2488 -146.7539 -40.5319
State:	 39.065  15.413 121.252  -0.879  0.219  0.423 -167.808    -79.14 -170.47 -100.73   75.24 -149.21 -137.25 -146.75  -40.53

DOCKED: MODEL       26
DOCKED: USER    Run = 26
DOCKED: USER    DPF = ligand_dock.biased.dpf
DOCKED: USER  
DOCKED: USER    Estimated Free Energy of Binding    =  -10.07 kcal/mol  [=(1)+(2)+(3)-(4)]
DOCKED: USER    Estimated Inhibition Constant, Ki   =   41.59 nM (nanomolar)  [Temperature = 298.15 K]
DOCKED: USER    
DOCKED: USER    (1) Final Intermolecular Energy     =  -12.46 kcal/mol
DOCKED: USER        vdW + Hbond + desolv Energy     =  -12.46 kcal/mol
DOCKED: USER        Electrostatic Energy            =   +0.00 kcal/mol
DOCKED: USER    (2) Final Total Internal Energy     =   -1.02 kcal/mol
DOCKED: USER    (3) Torsional Free Energy           =   +2.39 kcal/mol
DOCKED: USER    (4) Unbound System's Energy  [=(2)] =   -1.02 kcal/mol
DOCKED: USER    
DOCKED: USER    
DOCKED: USER    NEWDPF move ligand.dum.pdbqt
DOCKED: USER    NEWDPF about 0.003000 -0.142000 -0.069000
DOCKED: USER    NEWDPF tran0 39.064972 15.412614 121.252015
DOCKED: USER    NEWDPF quaternion0 -0.874128 0.217902 0.420883 -0.106191
DOCKED: USER    NEWDPF axisangle0 -0.879099 0.219141 0.423276 -167.808402
DOCKED: USER    NEWDPF quat0 -0.879099 0.219141 0.423276 -167.808402
DOCKED: USER    NEWDPF dihe0 -79.14 -170.47 -100.73 75.24 -149.21 -137.25 -146.75 -40.53 
DOCKED: USER  keepresnum = 1 
DOCKED: USER  
DOCKED: REMARK  Name = 
DOCKED: REMARK  8 active torsions:
DOCKED: REMARK  status: ('A' for Active; 'I' for Inactive)
DOCKED: REMARK    1  A    between atoms: C_2  and  C_5
DOCKED: REMARK    2  A    between atoms: C_5  and  C_6
DOCKED: REMARK    3  A    between atoms: C_6  and  C_7
DOCKED: REMARK    4  A    between atoms: C_7  and  C_8
DOCKED: REMARK    5  A    between atoms: C_8  and  C_9
DOCKED: REMARK    6  A    between atoms: C_9  and  C_10
DOCKED: REMARK    7  A    between atoms: C_10  and  C_11
DOCKED: REMARK    8  A    between atoms: N_12  and  C_13
DOCKED: REMARK                            x       y       z     vdW  Elec       q    Type
DOCKED: REMARK                         _______ _______ _______ _____ _____    ______ ____
DOCKED: USER                              x       y       z     vdW  Elec       q    Type
DOCKED: USER                           _______ _______ _______ _____ _____    ______ ____
DOCKED: ROOT
DOCKED: ATOM      1  C   UNL     1      39.400  16.098 121.573 -0.23 -0.00    +0.000 C 
DOCKED: ENDROOT
DOCKED: BRANCH   1   2
DOCKED: ATOM      2  C   UNL     1      38.217  16.725 122.249 -0.21 -0.00    +0.000 C 
DOCKED: ATOM      3  N   UNL     1      37.709  16.166 123.471 -0.30 -0.00    +0.000 N 
DOCKED: ATOM      4  O   UNL     1      37.679  17.742 121.733 -0.12 -0.00    +0.000 OA
DOCKED: ATOM      5  H   UNL     1      38.256  15.489 123.931 -0.03 -0.00    +0.000 HD
DOCKED: BRANCH   3   6
DOCKED: ATOM      6  C   UNL     1      36.453  16.534 124.065 -0.25 -0.00    +0.000 A 
DOCKED: ATOM      7  C   UNL     1      36.224  17.825 124.573 -0.23 -0.00    +0.000 A 
DOCKED: ATOM      8  C   UNL     1      34.981  18.150 125.118 -0.28 -0.00    +0.000 A 
DOCKED: ATOM      9  C   UNL     1      33.970  17.189 125.138 -0.36 -0.00    +0.000 A 
DOCKED: ATOM     10  N   UNL     1      34.196  15.951 124.622 -0.54 -0.00    +0.000 NA
DOCKED: ATOM     11  C   UNL     1      35.398  15.610 124.086 -0.45 -0.00    +0.000 A 
DOCKED: ATOM     12  CM  UNL     1      35.176  16.852 124.600 -0.23 -0.00    +0.000 AC
DOCKED: ENDBRANCH   3   6
DOCKED: ENDBRANCH   1   2
DOCKED: BRANCH   1  12
DOCKED: ATOM     13  C   UNL     1      39.292  14.569 121.620 -0.38 -0.00    +0.000 C 
DOCKED: BRANCH  12  13
DOCKED: ATOM     14  C   UNL     1      37.864  14.058 121.356 -0.41 -0.00    +0.000 C 
DOCKED: BRANCH  13  14
DOCKED: ATOM     15  C   UNL     1      37.768  12.575 120.950 -0.49 -0.00    +0.000 C 
DOCKED: BRANCH  14  15
DOCKED: ATOM     16  C   UNL     1      36.466  11.906 121.424 -0.48 -0.00    +0.000 C 
DOCKED: BRANCH  15  16
DOCKED: ATOM     17  C   UNL     1      36.671  11.075 122.697 -0.67 -0.00    +0.000 C 
DOCKED: BRANCH  16  18
DOCKED: ATOM     18  O   UNL     1      36.700   9.209 121.202 -2.63 -0.00    +0.000 OA
DOCKED: ATOM     19  C   UNL     1      36.792   9.610 122.395 -0.68 -0.00    +0.000 C 
DOCKED: ATOM     20  N   UNL     1      36.980   8.665 123.450 -0.64 -0.00    +0.000 N 
DOCKED: ATOM     21  O   UNL     1      37.075   7.342 123.178 -2.35 -0.00    +0.000 OA
DOCKED: ATOM     22  H   UNL     1      37.042   8.978 124.381 -0.51 -0.00    +0.000 HD
DOCKED: ENDBRANCH  16  18
DOCKED: ENDBRANCH  15  16
DOCKED: ENDBRANCH  14  15
DOCKED: ENDBRANCH  13  14
DOCKED: ENDBRANCH  12  13
DOCKED: ENDBRANCH   1  12
DOCKED: TORSDOF 8DOCKED: TER
DOCKED: ENDMDL
________________________________________________________________________________


	BEGINNING GENETIC ALGORITHM DOCKING 27 of 100
Run: 27 Seed: 280425052 929002201 [ Run 27 of 100 GA/GALS ]
Beginning LAMARCKIAN GENETIC ALGORITHM (LGA), with a maximum of 2500000 energy evaluations.

Final-Value: -14.562


	FINAL GENETIC ALGORITHM DOCKED STATE
	_______________________________________________


Detailed state:  trans 37.065 14.673 121.945 quatxyzw -0.630146 -0.075481 0.664955 0.393768 center 0.003 -0.142 -0.069 ntor 8 137.0513 45.1681 90.6700 -179.6320 -151.6347 -22.2515 -109.3911 94.7115
State:	 37.065  14.673 121.945  -0.686 -0.082  0.723 133.622    137.05   45.17   90.67 -179.63 -151.63  -22.25 -109.39   94.71

DOCKED: MODEL       27
DOCKED: USER    Run = 27
DOCKED: USER    DPF = ligand_dock.biased.dpf
DOCKED: USER  
DOCKED: USER    Estimated Free Energy of Binding    =  -11.35 kcal/mol  [=(1)+(2)+(3)-(4)]
DOCKED: USER    Estimated Inhibition Constant, Ki   =    4.78 nM (nanomolar)  [Temperature = 298.15 K]
DOCKED: USER    
DOCKED: USER    (1) Final Intermolecular Energy     =  -13.74 kcal/mol
DOCKED: USER        vdW + Hbond + desolv Energy     =  -13.74 kcal/mol
DOCKED: USER        Electrostatic Energy            =   +0.00 kcal/mol
DOCKED: USER    (2) Final Total Internal Energy     =   -0.82 kcal/mol
DOCKED: USER    (3) Torsional Free Energy           =   +2.39 kcal/mol
DOCKED: USER    (4) Unbound System's Energy  [=(2)] =   -0.82 kcal/mol
DOCKED: USER    
DOCKED: USER    
DOCKED: USER    NEWDPF move ligand.dum.pdbqt
DOCKED: USER    NEWDPF about 0.003000 -0.142000 -0.069000
DOCKED: USER    NEWDPF tran0 37.065395 14.672726 121.944518
DOCKED: USER    NEWDPF quaternion0 -0.630146 -0.075481 0.664955 0.393768
DOCKED: USER    NEWDPF axisangle0 -0.685530 -0.082115 0.723399 133.621739
DOCKED: USER    NEWDPF quat0 -0.685530 -0.082115 0.723399 133.621739
DOCKED: USER    NEWDPF dihe0 137.05 45.17 90.67 -179.63 -151.63 -22.25 -109.39 94.71 
DOCKED: USER  keepresnum = 1 
DOCKED: USER  
DOCKED: REMARK  Name = 
DOCKED: REMARK  8 active torsions:
DOCKED: REMARK  status: ('A' for Active; 'I' for Inactive)
DOCKED: REMARK    1  A    between atoms: C_2  and  C_5
DOCKED: REMARK    2  A    between atoms: C_5  and  C_6
DOCKED: REMARK    3  A    between atoms: C_6  and  C_7
DOCKED: REMARK    4  A    between atoms: C_7  and  C_8
DOCKED: REMARK    5  A    between atoms: C_8  and  C_9
DOCKED: REMARK    6  A    between atoms: C_9  and  C_10
DOCKED: REMARK    7  A    between atoms: C_10  and  C_11
DOCKED: REMARK    8  A    between atoms: N_12  and  C_13
DOCKED: REMARK                            x       y       z     vdW  Elec       q    Type
DOCKED: REMARK                         _______ _______ _______ _____ _____    ______ ____
DOCKED: USER                              x       y       z     vdW  Elec       q    Type
DOCKED: USER                           _______ _______ _______ _____ _____    ______ ____
DOCKED: ROOT
DOCKED: ATOM      1  C   UNL     1      36.704  15.411 121.847 -0.26 -0.00    +0.000 C 
DOCKED: ENDROOT
DOCKED: BRANCH   1   2
DOCKED: ATOM      2  C   UNL     1      36.075  15.621 123.192 -0.42 -0.00    +0.000 C 
DOCKED: ATOM      3  N   UNL     1      34.879  16.408 123.309 -0.41 -0.00    +0.000 N 
DOCKED: ATOM      4  O   UNL     1      36.607  15.101 124.210 -0.45 -0.00    +0.000 OA
DOCKED: ATOM      5  H   UNL     1      34.401  16.647 122.482 -0.03 -0.00    +0.000 HD
DOCKED: BRANCH   3   6
DOCKED: ATOM      6  C   UNL     1      34.336  16.868 124.558 -0.43 -0.00    +0.000 A 
DOCKED: ATOM      7  C   UNL     1      34.063  18.226 124.792 -0.33 -0.00    +0.000 A 
DOCKED: ATOM      8  C   UNL     1      33.510  18.628 126.009 -0.29 -0.00    +0.000 A 
DOCKED: ATOM      9  C   UNL     1      33.219  17.668 126.979 -0.30 -0.00    +0.000 A 
DOCKED: ATOM     10  N   UNL     1      33.465  16.354 126.732 -0.94 -0.00    +0.000 NA
DOCKED: ATOM     11  C   UNL     1      34.003  15.937 125.555 -0.36 -0.00    +0.000 A 
DOCKED: ATOM     12  CM  UNL     1      33.757  17.255 125.797 -0.11 -0.00    +0.000 AC
DOCKED: ENDBRANCH   3   6
DOCKED: ENDBRANCH   1   2
DOCKED: BRANCH   1  12
DOCKED: ATOM     13  C   UNL     1      38.011  14.621 121.987 -0.40 -0.00    +0.000 C 
DOCKED: BRANCH  12  13
DOCKED: ATOM     14  C   UNL     1      37.784  13.111 122.182 -0.48 -0.00    +0.000 C 
DOCKED: BRANCH  13  14
DOCKED: ATOM     15  C   UNL     1      37.497  12.677 123.631 -0.44 -0.00    +0.000 C 
DOCKED: BRANCH  14  15
DOCKED: ATOM     16  C   UNL     1      36.522  11.491 123.721 -0.69 -0.00    +0.000 C 
DOCKED: BRANCH  15  16
DOCKED: ATOM     17  C   UNL     1      36.159  10.932 122.340 -0.66 -0.00    +0.000 C 
DOCKED: BRANCH  16  18
DOCKED: ATOM     18  O   UNL     1      37.053   9.144 121.027 -2.73 -0.00    +0.000 OA
DOCKED: ATOM     19  C   UNL     1      36.650   9.524 122.160 -0.70 -0.00    +0.000 C 
DOCKED: ATOM     20  N   UNL     1      36.636   8.607 123.255 -0.67 -0.00    +0.000 N 
DOCKED: ATOM     21  O   UNL     1      37.065   7.333 123.089 -2.32 -0.00    +0.000 OA
DOCKED: ATOM     22  H   UNL     1      36.313   8.902 124.137 -0.33 -0.00    +0.000 HD
DOCKED: ENDBRANCH  16  18
DOCKED: ENDBRANCH  15  16
DOCKED: ENDBRANCH  14  15
DOCKED: ENDBRANCH  13  14
DOCKED: ENDBRANCH  12  13
DOCKED: ENDBRANCH   1  12
DOCKED: TORSDOF 8DOCKED: TER
DOCKED: ENDMDL
________________________________________________________________________________


	BEGINNING GENETIC ALGORITHM DOCKING 28 of 100
Run: 28 Seed: 1276459860 1284545979 [ Run 28 of 100 GA/GALS ]
Beginning LAMARCKIAN GENETIC ALGORITHM (LGA), with a maximum of 2500000 energy evaluations.

Final-Value: -13.421


	FINAL GENETIC ALGORITHM DOCKED STATE
	_______________________________________________


Detailed state:  trans 36.029 15.349 123.270 quatxyzw -0.533053 0.053937 0.732844 0.419386 center 0.003 -0.142 -0.069 ntor 8 -118.3026 -162.3829 -169.0379 39.4641 -178.4965 -69.1223 -14.2880 -179.8892
State:	 36.029  15.349 123.270  -0.587  0.059  0.807 130.408   -118.30 -162.38 -169.04   39.46 -178.50  -69.12  -14.29 -179.89

DOCKED: MODEL       28
DOCKED: USER    Run = 28
DOCKED: USER    DPF = ligand_dock.biased.dpf
DOCKED: USER  
DOCKED: USER    Estimated Free Energy of Binding    =  -10.32 kcal/mol  [=(1)+(2)+(3)-(4)]
DOCKED: USER    Estimated Inhibition Constant, Ki   =   27.20 nM (nanomolar)  [Temperature = 298.15 K]
DOCKED: USER    
DOCKED: USER    (1) Final Intermolecular Energy     =  -12.71 kcal/mol
DOCKED: USER        vdW + Hbond + desolv Energy     =  -12.71 kcal/mol
DOCKED: USER        Electrostatic Energy            =   +0.00 kcal/mol
DOCKED: USER    (2) Final Total Internal Energy     =   -0.71 kcal/mol
DOCKED: USER    (3) Torsional Free Energy           =   +2.39 kcal/mol
DOCKED: USER    (4) Unbound System's Energy  [=(2)] =   -0.71 kcal/mol
DOCKED: USER    
DOCKED: USER    
DOCKED: USER    NEWDPF move ligand.dum.pdbqt
DOCKED: USER    NEWDPF about 0.003000 -0.142000 -0.069000
DOCKED: USER    NEWDPF tran0 36.028537 15.349172 123.269678
DOCKED: USER    NEWDPF quaternion0 -0.533053 0.053937 0.732844 0.419386
DOCKED: USER    NEWDPF axisangle0 -0.587187 0.059414 0.807268 130.408332
DOCKED: USER    NEWDPF quat0 -0.587187 0.059414 0.807268 130.408332
DOCKED: USER    NEWDPF dihe0 -118.30 -162.38 -169.04 39.46 -178.50 -69.12 -14.29 -179.89 
DOCKED: USER  keepresnum = 1 
DOCKED: USER  
DOCKED: REMARK  Name = 
DOCKED: REMARK  8 active torsions:
DOCKED: REMARK  status: ('A' for Active; 'I' for Inactive)
DOCKED: REMARK    1  A    between atoms: C_2  and  C_5
DOCKED: REMARK    2  A    between atoms: C_5  and  C_6
DOCKED: REMARK    3  A    between atoms: C_6  and  C_7
DOCKED: REMARK    4  A    between atoms: C_7  and  C_8
DOCKED: REMARK    5  A    between atoms: C_8  and  C_9
DOCKED: REMARK    6  A    between atoms: C_9  and  C_10
DOCKED: REMARK    7  A    between atoms: C_10  and  C_11
DOCKED: REMARK    8  A    between atoms: N_12  and  C_13
DOCKED: REMARK                            x       y       z     vdW  Elec       q    Type
DOCKED: REMARK                         _______ _______ _______ _____ _____    ______ ____
DOCKED: USER                              x       y       z     vdW  Elec       q    Type
DOCKED: USER                           _______ _______ _______ _____ _____    ______ ____
DOCKED: ROOT
DOCKED: ATOM      1  C   UNL     1      35.772  16.084 122.989 -0.38 -0.00    +0.000 C 
DOCKED: ENDROOT
DOCKED: BRANCH   1   2
DOCKED: ATOM      2  C   UNL     1      35.364  16.769 124.259 -0.41 -0.00    +0.000 C 
DOCKED: ATOM      3  N   UNL     1      34.253  16.266 125.019 -0.50 -0.00    +0.000 N 
DOCKED: ATOM      4  O   UNL     1      36.003  17.784 124.646 -0.28 -0.00    +0.000 OA
DOCKED: ATOM      5  H   UNL     1      33.895  15.380 124.782 -0.07 -0.00    +0.000 HD
DOCKED: BRANCH   3   6
DOCKED: ATOM      6  C   UNL     1      33.634  16.975 126.106 -0.33 -0.00    +0.000 A 
DOCKED: ATOM      7  C   UNL     1      33.325  16.342 127.322 -0.37 -0.00    +0.000 A 
DOCKED: ATOM      8  C   UNL     1      32.748  17.073 128.362 -0.35 -0.00    +0.000 A 
DOCKED: ATOM      9  C   UNL     1      32.497  18.434 128.186 -0.20 -0.00    +0.000 A 
DOCKED: ATOM     10  N   UNL     1      32.823  19.040 127.013 -0.25 -0.00    +0.000 NA
DOCKED: ATOM     11  C   UNL     1      33.385  18.350 125.985 -0.30 -0.00    +0.000 A 
DOCKED: ATOM     12  CM  UNL     1      33.062  17.739 127.159 +0.00 -0.00    +0.000 AC
DOCKED: ENDBRANCH   3   6
DOCKED: ENDBRANCH   1   2
DOCKED: BRANCH   1  12
DOCKED: ATOM     13  C   UNL     1      36.953  15.141 123.247 -0.42 -0.00    +0.000 C 
DOCKED: BRANCH  12  13
DOCKED: ATOM     14  C   UNL     1      37.319  14.285 122.021 -0.41 -0.00    +0.000 C 
DOCKED: BRANCH  13  14
DOCKED: ATOM     15  C   UNL     1      37.466  12.778 122.299 -0.53 -0.00    +0.000 C 
DOCKED: BRANCH  14  15
DOCKED: ATOM     16  C   UNL     1      36.473  11.920 121.495 -0.50 -0.00    +0.000 C 
DOCKED: BRANCH  15  16
DOCKED: ATOM     17  C   UNL     1      35.823  10.828 122.354 -0.64 -0.00    +0.000 C 
DOCKED: BRANCH  16  18
DOCKED: ATOM     18  O   UNL     1      37.067   9.150 121.189 -2.73 -0.00    +0.000 OA
DOCKED: ATOM     19  C   UNL     1      36.587   9.537 122.289 -0.70 -0.00    +0.000 C 
DOCKED: ATOM     20  N   UNL     1      36.747   8.731 123.458 -0.61 -0.00    +0.000 N 
DOCKED: ATOM     21  O   UNL     1      37.423   7.560 123.396 -2.45 -0.00    +0.000 OA
DOCKED: ATOM     22  H   UNL     1      36.363   9.029 124.315 -0.29 -0.00    +0.000 HD
DOCKED: ENDBRANCH  16  18
DOCKED: ENDBRANCH  15  16
DOCKED: ENDBRANCH  14  15
DOCKED: ENDBRANCH  13  14
DOCKED: ENDBRANCH  12  13
DOCKED: ENDBRANCH   1  12
DOCKED: TORSDOF 8DOCKED: TER
DOCKED: ENDMDL
________________________________________________________________________________


	BEGINNING GENETIC ALGORITHM DOCKING 29 of 100
Run: 29 Seed: 1280979651 199728822 [ Run 29 of 100 GA/GALS ]
Beginning LAMARCKIAN GENETIC ALGORITHM (LGA), with a maximum of 2500000 energy evaluations.

Final-Value: -13.567


	FINAL GENETIC ALGORITHM DOCKED STATE
	_______________________________________________


Detailed state:  trans 36.015 15.687 124.257 quatxyzw 0.399502 0.272648 0.873934 0.047972 center 0.003 -0.142 -0.069 ntor 8 176.1779 -179.8249 31.5126 119.4801 -102.7666 167.0163 114.1462 -109.6036
State:	 36.015  15.687 124.257   0.400  0.273  0.875 174.501    176.18 -179.82   31.51  119.48 -102.77  167.02  114.15 -109.60

DOCKED: MODEL       29
DOCKED: USER    Run = 29
DOCKED: USER    DPF = ligand_dock.biased.dpf
DOCKED: USER  
DOCKED: USER    Estimated Free Energy of Binding    =  -10.08 kcal/mol  [=(1)+(2)+(3)-(4)]
DOCKED: USER    Estimated Inhibition Constant, Ki   =   40.68 nM (nanomolar)  [Temperature = 298.15 K]
DOCKED: USER    
DOCKED: USER    (1) Final Intermolecular Energy     =  -12.47 kcal/mol
DOCKED: USER        vdW + Hbond + desolv Energy     =  -12.47 kcal/mol
DOCKED: USER        Electrostatic Energy            =   +0.00 kcal/mol
DOCKED: USER    (2) Final Total Internal Energy     =   -1.10 kcal/mol
DOCKED: USER    (3) Torsional Free Energy           =   +2.39 kcal/mol
DOCKED: USER    (4) Unbound System's Energy  [=(2)] =   -1.10 kcal/mol
DOCKED: USER    
DOCKED: USER    
DOCKED: USER    NEWDPF move ligand.dum.pdbqt
DOCKED: USER    NEWDPF about 0.003000 -0.142000 -0.069000
DOCKED: USER    NEWDPF tran0 36.014801 15.686629 124.256576
DOCKED: USER    NEWDPF quaternion0 0.399502 0.272648 0.873934 0.047972
DOCKED: USER    NEWDPF axisangle0 0.399962 0.272962 0.874941 174.500678
DOCKED: USER    NEWDPF quat0 0.399962 0.272962 0.874941 174.500678
DOCKED: USER    NEWDPF dihe0 176.18 -179.82 31.51 119.48 -102.77 167.02 114.15 -109.60 
DOCKED: USER  keepresnum = 1 
DOCKED: USER  
DOCKED: REMARK  Name = 
DOCKED: REMARK  8 active torsions:
DOCKED: REMARK  status: ('A' for Active; 'I' for Inactive)
DOCKED: REMARK    1  A    between atoms: C_2  and  C_5
DOCKED: REMARK    2  A    between atoms: C_5  and  C_6
DOCKED: REMARK    3  A    between atoms: C_6  and  C_7
DOCKED: REMARK    4  A    between atoms: C_7  and  C_8
DOCKED: REMARK    5  A    between atoms: C_8  and  C_9
DOCKED: REMARK    6  A    between atoms: C_9  and  C_10
DOCKED: REMARK    7  A    between atoms: C_10  and  C_11
DOCKED: REMARK    8  A    between atoms: N_12  and  C_13
DOCKED: REMARK                            x       y       z     vdW  Elec       q    Type
DOCKED: REMARK                         _______ _______ _______ _____ _____    ______ ____
DOCKED: USER                              x       y       z     vdW  Elec       q    Type
DOCKED: USER                           _______ _______ _______ _____ _____    ______ ____
DOCKED: ROOT
DOCKED: ATOM      1  C   UNL     1      35.846  16.205 123.634 -0.41 -0.00    +0.000 C 
DOCKED: ENDROOT
DOCKED: BRANCH   1   2
DOCKED: ATOM      2  C   UNL     1      37.188  16.344 122.981 -0.30 -0.00    +0.000 C 
DOCKED: ATOM      3  N   UNL     1      38.297  15.560 123.448 -0.28 -0.00    +0.000 N 
DOCKED: ATOM      4  O   UNL     1      37.328  17.153 122.024 -0.16 -0.00    +0.000 OA
DOCKED: ATOM      5  H   UNL     1      38.110  14.821 124.072 -0.02 -0.00    +0.000 HD
DOCKED: BRANCH   3   6
DOCKED: ATOM      6  C   UNL     1      39.663  15.785 123.061 -0.13 -0.00    +0.000 A 
DOCKED: ATOM      7  C   UNL     1      40.356  16.950 123.433 -0.24 -0.00    +0.000 A 
DOCKED: ATOM      8  C   UNL     1      41.690  17.118 123.060 -0.31 -0.00    +0.000 A 
DOCKED: ATOM      9  C   UNL     1      42.329  16.114 122.331 -0.39 -0.00    +0.000 A 
DOCKED: ATOM     10  N   UNL     1      41.655  14.981 121.998 -0.51 -0.00    +0.000 NA
DOCKED: ATOM     11  C   UNL     1      40.355  14.794 122.349 -0.39 -0.00    +0.000 A 
DOCKED: ATOM     12  CM  UNL     1      41.026  15.930 122.687 +0.00 -0.00    +0.000 AC
DOCKED: ENDBRANCH   3   6
DOCKED: ENDBRANCH   1   2
DOCKED: BRANCH   1  12
DOCKED: ATOM     13  C   UNL     1      35.682  14.800 124.225 -0.51 -0.00    +0.000 C 
DOCKED: BRANCH  12  13
DOCKED: ATOM     14  C   UNL     1      35.836  13.683 123.176 -0.40 -0.00    +0.000 C 
DOCKED: BRANCH  13  14
DOCKED: ATOM     15  C   UNL     1      37.161  12.902 123.246 -0.60 -0.00    +0.000 C 
DOCKED: BRANCH  14  15
DOCKED: ATOM     16  C   UNL     1      37.431  12.065 121.984 -0.46 -0.00    +0.000 C 
DOCKED: BRANCH  15  16
DOCKED: ATOM     17  C   UNL     1      36.283  11.097 121.672 -0.41 -0.00    +0.000 C 
DOCKED: BRANCH  16  18
DOCKED: ATOM     18  O   UNL     1      36.903   8.907 120.938 -2.67 -0.00    +0.000 OA
DOCKED: ATOM     19  C   UNL     1      36.674   9.668 121.917 -0.64 -0.00    +0.000 C 
DOCKED: ATOM     20  N   UNL     1      36.759   9.159 123.249 -0.61 -0.00    +0.000 N 
DOCKED: ATOM     21  O   UNL     1      37.098   7.866 123.469 -2.62 -0.00    +0.000 OA
DOCKED: ATOM     22  H   UNL     1      36.571   9.751 124.013 -0.40 -0.00    +0.000 HD
DOCKED: ENDBRANCH  16  18
DOCKED: ENDBRANCH  15  16
DOCKED: ENDBRANCH  14  15
DOCKED: ENDBRANCH  13  14
DOCKED: ENDBRANCH  12  13
DOCKED: ENDBRANCH   1  12
DOCKED: TORSDOF 8DOCKED: TER
DOCKED: ENDMDL
________________________________________________________________________________


	BEGINNING GENETIC ALGORITHM DOCKING 30 of 100
Run: 30 Seed: 593932554 569646971 [ Run 30 of 100 GA/GALS ]
Beginning LAMARCKIAN GENETIC ALGORITHM (LGA), with a maximum of 2500000 energy evaluations.

Final-Value: -13.466


	FINAL GENETIC ALGORITHM DOCKED STATE
	_______________________________________________


Detailed state:  trans 36.567 11.588 122.973 quatxyzw -0.330983 0.176175 -0.452895 0.808887 center 0.003 -0.142 -0.069 ntor 8 -50.5258 -179.0948 -103.1079 168.6695 144.4490 84.5050 -20.1495 -113.3718
State:	 36.567  11.588 122.973  -0.563  0.300 -0.770 72.025    -50.53 -179.09 -103.11  168.67  144.45   84.51  -20.15 -113.37

DOCKED: MODEL       30
DOCKED: USER    Run = 30
DOCKED: USER    DPF = ligand_dock.biased.dpf
DOCKED: USER  
DOCKED: USER    Estimated Free Energy of Binding    =   -9.92 kcal/mol  [=(1)+(2)+(3)-(4)]
DOCKED: USER    Estimated Inhibition Constant, Ki   =   53.17 nM (nanomolar)  [Temperature = 298.15 K]
DOCKED: USER    
DOCKED: USER    (1) Final Intermolecular Energy     =  -12.31 kcal/mol
DOCKED: USER        vdW + Hbond + desolv Energy     =  -12.31 kcal/mol
DOCKED: USER        Electrostatic Energy            =   +0.00 kcal/mol
DOCKED: USER    (2) Final Total Internal Energy     =   -1.16 kcal/mol
DOCKED: USER    (3) Torsional Free Energy           =   +2.39 kcal/mol
DOCKED: USER    (4) Unbound System's Energy  [=(2)] =   -1.16 kcal/mol
DOCKED: USER    
DOCKED: USER    
DOCKED: USER    NEWDPF move ligand.dum.pdbqt
DOCKED: USER    NEWDPF about 0.003000 -0.142000 -0.069000
DOCKED: USER    NEWDPF tran0 36.567329 11.587551 122.972525
DOCKED: USER    NEWDPF quaternion0 -0.330983 0.176175 -0.452895 0.808887
DOCKED: USER    NEWDPF axisangle0 -0.562931 0.299636 -0.770277 72.025248
DOCKED: USER    NEWDPF quat0 -0.562931 0.299636 -0.770277 72.025248
DOCKED: USER    NEWDPF dihe0 -50.53 -179.09 -103.11 168.67 144.45 84.51 -20.15 -113.37 
DOCKED: USER  keepresnum = 1 
DOCKED: USER  
DOCKED: REMARK  Name = 
DOCKED: REMARK  8 active torsions:
DOCKED: REMARK  status: ('A' for Active; 'I' for Inactive)
DOCKED: REMARK    1  A    between atoms: C_2  and  C_5
DOCKED: REMARK    2  A    between atoms: C_5  and  C_6
DOCKED: REMARK    3  A    between atoms: C_6  and  C_7
DOCKED: REMARK    4  A    between atoms: C_7  and  C_8
DOCKED: REMARK    5  A    between atoms: C_8  and  C_9
DOCKED: REMARK    6  A    between atoms: C_9  and  C_10
DOCKED: REMARK    7  A    between atoms: C_10  and  C_11
DOCKED: REMARK    8  A    between atoms: N_12  and  C_13
DOCKED: REMARK                            x       y       z     vdW  Elec       q    Type
DOCKED: REMARK                         _______ _______ _______ _____ _____    ______ ____
DOCKED: USER                              x       y       z     vdW  Elec       q    Type
DOCKED: USER                           _______ _______ _______ _____ _____    ______ ____
DOCKED: ROOT
DOCKED: ATOM      1  C   UNL     1      37.072  11.264 122.402 -0.57 -0.00    +0.000 C 
DOCKED: ENDROOT
DOCKED: BRANCH   1   2
DOCKED: ATOM      2  C   UNL     1      36.362   9.990 122.055 -0.61 -0.00    +0.000 C 
DOCKED: ATOM      3  N   UNL     1      35.114   9.669 122.692 -0.60 -0.00    +0.000 N 
DOCKED: ATOM      4  O   UNL     1      36.871   9.210 121.206 -2.68 -0.00    +0.000 OA
DOCKED: ATOM      5  H   UNL     1      34.665  10.376 123.211 -0.35 -0.00    +0.000 HD
DOCKED: BRANCH   3   6
DOCKED: ATOM      6  C   UNL     1      34.478   8.382 122.616 -0.61 -0.00    +0.000 A 
DOCKED: ATOM      7  C   UNL     1      33.936   7.893 121.415 -0.58 -0.00    +0.000 A 
DOCKED: ATOM      8  C   UNL     1      33.350   6.626 121.378 -0.44 -0.00    +0.000 A 
DOCKED: ATOM      9  C   UNL     1      33.324   5.850 122.537 -0.59 -0.00    +0.000 A 
DOCKED: ATOM     10  N   UNL     1      33.873   6.325 123.687 -0.73 -0.00    +0.000 NA
DOCKED: ATOM     11  C   UNL     1      34.449   7.555 123.749 -0.59 -0.00    +0.000 A 
DOCKED: ATOM     12  CM  UNL     1      33.901   7.084 122.594 +0.00 -0.00    +0.000 AC
DOCKED: ENDBRANCH   3   6
DOCKED: ENDBRANCH   1   2
DOCKED: BRANCH   1  12
DOCKED: ATOM     13  C   UNL     1      36.060  12.359 122.759 -0.54 -0.00    +0.000 C 
DOCKED: BRANCH  12  13
DOCKED: ATOM     14  C   UNL     1      36.711  13.591 123.414 -0.57 -0.00    +0.000 C 
DOCKED: BRANCH  13  14
DOCKED: ATOM     15  C   UNL     1      38.207  13.780 123.101 -0.48 -0.00    +0.000 C 
DOCKED: BRANCH  14  15
DOCKED: ATOM     16  C   UNL     1      38.455  14.467 121.747 -0.40 -0.00    +0.000 C 
DOCKED: BRANCH  15  16
DOCKED: ATOM     17  C   UNL     1      37.160  14.661 120.949 -0.28 -0.00    +0.000 C 
DOCKED: BRANCH  16  18
DOCKED: ATOM     18  O   UNL     1      37.704  12.646 119.783 -0.51 -0.00    +0.000 OA
DOCKED: ATOM     19  C   UNL     1      37.093  13.749 119.759 -0.38 -0.00    +0.000 C 
DOCKED: ATOM     20  N   UNL     1      36.367  14.134 118.590 -0.33 -0.00    +0.000 N 
DOCKED: ATOM     21  O   UNL     1      36.320  13.317 117.512 -0.45 -0.00    +0.000 OA
DOCKED: ATOM     22  H   UNL     1      35.898  14.999 118.568 -0.02 -0.00    +0.000 HD
DOCKED: ENDBRANCH  16  18
DOCKED: ENDBRANCH  15  16
DOCKED: ENDBRANCH  14  15
DOCKED: ENDBRANCH  13  14
DOCKED: ENDBRANCH  12  13
DOCKED: ENDBRANCH   1  12
DOCKED: TORSDOF 8DOCKED: TER
DOCKED: ENDMDL
________________________________________________________________________________


	BEGINNING GENETIC ALGORITHM DOCKING 31 of 100
Run: 31 Seed: 417972728 1818977605 [ Run 31 of 100 GA/GALS ]
Beginning LAMARCKIAN GENETIC ALGORITHM (LGA), with a maximum of 2500000 energy evaluations.

Final-Value: -12.724


	FINAL GENETIC ALGORITHM DOCKED STATE
	_______________________________________________


Detailed state:  trans 40.090 14.730 122.443 quatxyzw -0.503194 0.511619 -0.692155 -0.077218 center 0.003 -0.142 -0.069 ntor 8 160.7537 93.4433 -110.9516 -9.6507 159.1682 -97.1822 -3.2370 128.2269
State:	 40.090  14.730 122.443  -0.505  0.513 -0.694 -171.143    160.75   93.44 -110.95   -9.65  159.17  -97.18   -3.24  128.23

DOCKED: MODEL       31
DOCKED: USER    Run = 31
DOCKED: USER    DPF = ligand_dock.biased.dpf
DOCKED: USER  
DOCKED: USER    Estimated Free Energy of Binding    =   -9.68 kcal/mol  [=(1)+(2)+(3)-(4)]
DOCKED: USER    Estimated Inhibition Constant, Ki   =   79.69 nM (nanomolar)  [Temperature = 298.15 K]
DOCKED: USER    
DOCKED: USER    (1) Final Intermolecular Energy     =  -12.07 kcal/mol
DOCKED: USER        vdW + Hbond + desolv Energy     =  -12.07 kcal/mol
DOCKED: USER        Electrostatic Energy            =   +0.00 kcal/mol
DOCKED: USER    (2) Final Total Internal Energy     =   -0.65 kcal/mol
DOCKED: USER    (3) Torsional Free Energy           =   +2.39 kcal/mol
DOCKED: USER    (4) Unbound System's Energy  [=(2)] =   -0.65 kcal/mol
DOCKED: USER    
DOCKED: USER    
DOCKED: USER    NEWDPF move ligand.dum.pdbqt
DOCKED: USER    NEWDPF about 0.003000 -0.142000 -0.069000
DOCKED: USER    NEWDPF tran0 40.089855 14.730095 122.442912
DOCKED: USER    NEWDPF quaternion0 -0.503194 0.511619 -0.692155 -0.077218
DOCKED: USER    NEWDPF axisangle0 -0.504701 0.513151 -0.694228 -171.142685
DOCKED: USER    NEWDPF quat0 -0.504701 0.513151 -0.694228 -171.142685
DOCKED: USER    NEWDPF dihe0 160.75 93.44 -110.95 -9.65 159.17 -97.18 -3.24 128.23 
DOCKED: USER  keepresnum = 1 
DOCKED: USER  
DOCKED: REMARK  Name = 
DOCKED: REMARK  8 active torsions:
DOCKED: REMARK  status: ('A' for Active; 'I' for Inactive)
DOCKED: REMARK    1  A    between atoms: C_2  and  C_5
DOCKED: REMARK    2  A    between atoms: C_5  and  C_6
DOCKED: REMARK    3  A    between atoms: C_6  and  C_7
DOCKED: REMARK    4  A    between atoms: C_7  and  C_8
DOCKED: REMARK    5  A    between atoms: C_8  and  C_9
DOCKED: REMARK    6  A    between atoms: C_9  and  C_10
DOCKED: REMARK    7  A    between atoms: C_10  and  C_11
DOCKED: REMARK    8  A    between atoms: N_12  and  C_13
DOCKED: REMARK                            x       y       z     vdW  Elec       q    Type
DOCKED: REMARK                         _______ _______ _______ _____ _____    ______ ____
DOCKED: USER                              x       y       z     vdW  Elec       q    Type
DOCKED: USER                           _______ _______ _______ _____ _____    ______ ____
DOCKED: ROOT
DOCKED: ATOM      1  C   UNL     1      40.392  15.363 122.883 -0.27 -0.00    +0.000 C 
DOCKED: ENDROOT
DOCKED: BRANCH   1   2
DOCKED: ATOM      2  C   UNL     1      41.533  15.814 122.022 -0.40 -0.00    +0.000 C 
DOCKED: ATOM      3  N   UNL     1      42.878  15.749 122.523 -0.41 -0.00    +0.000 N 
DOCKED: ATOM      4  O   UNL     1      41.298  16.250 120.863 -0.22 -0.00    +0.000 OA
DOCKED: ATOM      5  H   UNL     1      43.037  15.245 123.354 -0.07 +0.00    +0.000 HD
DOCKED: BRANCH   3   6
DOCKED: ATOM      6  C   UNL     1      44.007  16.371 121.885 -0.24 -0.00    +0.000 A 
DOCKED: ATOM      7  C   UNL     1      44.598  15.827 120.732 -0.21 +0.00    +0.000 A 
DOCKED: ATOM      8  C   UNL     1      45.676  16.477 120.128 -0.18 +0.00    +0.000 A 
DOCKED: ATOM      9  C   UNL     1      46.146  17.673 120.671 -0.10 -0.00    +0.000 A 
DOCKED: ATOM     10  N   UNL     1      45.550  18.201 121.773 -0.15 -0.00    +0.000 NA
DOCKED: ATOM     11  C   UNL     1      44.499  17.588 122.380 -0.26 -0.00    +0.000 A 
DOCKED: ATOM     12  CM  UNL     1      45.092  17.055 121.275 +0.00 -0.00    +0.000 AC
DOCKED: ENDBRANCH   3   6
DOCKED: ENDBRANCH   1   2
DOCKED: BRANCH   1  12
DOCKED: ATOM     13  C   UNL     1      39.249  14.822 122.014 -0.41 -0.00    +0.000 C 
DOCKED: BRANCH  12  13
DOCKED: ATOM     14  C   UNL     1      38.000  14.442 122.830 -0.46 -0.00    +0.000 C 
DOCKED: BRANCH  13  14
DOCKED: ATOM     15  C   UNL     1      37.051  13.444 122.141 -0.49 -0.00    +0.000 C 
DOCKED: BRANCH  14  15
DOCKED: ATOM     16  C   UNL     1      37.282  11.990 122.586 -0.52 -0.00    +0.000 C 
DOCKED: BRANCH  15  16
DOCKED: ATOM     17  C   UNL     1      36.253  11.028 121.980 -0.60 -0.00    +0.000 C 
DOCKED: BRANCH  16  18
DOCKED: ATOM     18  O   UNL     1      36.827   8.907 121.036 -2.65 -0.00    +0.000 OA
DOCKED: ATOM     19  C   UNL     1      36.696   9.597 122.084 -0.69 -0.00    +0.000 C 
DOCKED: ATOM     20  N   UNL     1      36.941   9.005 123.361 -0.60 -0.00    +0.000 N 
DOCKED: ATOM     21  O   UNL     1      37.327   7.711 123.455 -2.63 -0.00    +0.000 OA
DOCKED: ATOM     22  H   UNL     1      36.830   9.542 124.179 -0.52 -0.00    +0.000 HD
DOCKED: ENDBRANCH  16  18
DOCKED: ENDBRANCH  15  16
DOCKED: ENDBRANCH  14  15
DOCKED: ENDBRANCH  13  14
DOCKED: ENDBRANCH  12  13
DOCKED: ENDBRANCH   1  12
DOCKED: TORSDOF 8DOCKED: TER
DOCKED: ENDMDL
________________________________________________________________________________


	BEGINNING GENETIC ALGORITHM DOCKING 32 of 100
Run: 32 Seed: 602578982 401018324 [ Run 32 of 100 GA/GALS ]
Beginning LAMARCKIAN GENETIC ALGORITHM (LGA), with a maximum of 2500000 energy evaluations.

Final-Value: -14.022


	FINAL GENETIC ALGORITHM DOCKED STATE
	_______________________________________________


Detailed state:  trans 37.064 15.256 122.632 quatxyzw -0.619301 -0.120233 0.483664 0.606696 center 0.003 -0.142 -0.069 ntor 8 -148.1942 173.0471 -29.3582 12.3134 179.7998 15.2409 -78.7360 16.7975
State:	 37.064  15.256 122.632  -0.779 -0.151  0.608 105.298   -148.19  173.05  -29.36   12.31  179.80   15.24  -78.74   16.80

DOCKED: MODEL       32
DOCKED: USER    Run = 32
DOCKED: USER    DPF = ligand_dock.biased.dpf
DOCKED: USER  
DOCKED: USER    Estimated Free Energy of Binding    =  -10.81 kcal/mol  [=(1)+(2)+(3)-(4)]
DOCKED: USER    Estimated Inhibition Constant, Ki   =   12.02 nM (nanomolar)  [Temperature = 298.15 K]
DOCKED: USER    
DOCKED: USER    (1) Final Intermolecular Energy     =  -13.19 kcal/mol
DOCKED: USER        vdW + Hbond + desolv Energy     =  -13.19 kcal/mol
DOCKED: USER        Electrostatic Energy            =   +0.00 kcal/mol
DOCKED: USER    (2) Final Total Internal Energy     =   -0.83 kcal/mol
DOCKED: USER    (3) Torsional Free Energy           =   +2.39 kcal/mol
DOCKED: USER    (4) Unbound System's Energy  [=(2)] =   -0.83 kcal/mol
DOCKED: USER    
DOCKED: USER    
DOCKED: USER    NEWDPF move ligand.dum.pdbqt
DOCKED: USER    NEWDPF about 0.003000 -0.142000 -0.069000
DOCKED: USER    NEWDPF tran0 37.063578 15.255707 122.632390
DOCKED: USER    NEWDPF quaternion0 -0.619301 -0.120233 0.483664 0.606696
DOCKED: USER    NEWDPF axisangle0 -0.779059 -0.151249 0.608433 105.298048
DOCKED: USER    NEWDPF quat0 -0.779059 -0.151249 0.608433 105.298048
DOCKED: USER    NEWDPF dihe0 -148.19 173.05 -29.36 12.31 179.80 15.24 -78.74 16.80 
DOCKED: USER  keepresnum = 1 
DOCKED: USER  
DOCKED: REMARK  Name = 
DOCKED: REMARK  8 active torsions:
DOCKED: REMARK  status: ('A' for Active; 'I' for Inactive)
DOCKED: REMARK    1  A    between atoms: C_2  and  C_5
DOCKED: REMARK    2  A    between atoms: C_5  and  C_6
DOCKED: REMARK    3  A    between atoms: C_6  and  C_7
DOCKED: REMARK    4  A    between atoms: C_7  and  C_8
DOCKED: REMARK    5  A    between atoms: C_8  and  C_9
DOCKED: REMARK    6  A    between atoms: C_9  and  C_10
DOCKED: REMARK    7  A    between atoms: C_10  and  C_11
DOCKED: REMARK    8  A    between atoms: N_12  and  C_13
DOCKED: REMARK                            x       y       z     vdW  Elec       q    Type
DOCKED: REMARK                         _______ _______ _______ _____ _____    ______ ____
DOCKED: USER                              x       y       z     vdW  Elec       q    Type
DOCKED: USER                           _______ _______ _______ _____ _____    ______ ____
DOCKED: ROOT
DOCKED: ATOM      1  C   UNL     1      36.448  15.706 122.310 -0.30 -0.00    +0.000 C 
DOCKED: ENDROOT
DOCKED: BRANCH   1   2
DOCKED: ATOM      2  C   UNL     1      35.480  15.759 123.453 -0.47 -0.00    +0.000 C 
DOCKED: ATOM      3  N   UNL     1      34.915  17.017 123.857 -0.38 -0.00    +0.000 N 
DOCKED: ATOM      4  O   UNL     1      35.172  14.694 124.052 -0.63 -0.00    +0.000 OA
DOCKED: ATOM      5  H   UNL     1      35.041  17.792 123.262 -0.01 -0.00    +0.000 HD
DOCKED: BRANCH   3   6
DOCKED: ATOM      6  C   UNL     1      34.175  17.216 125.073 -0.39 -0.00    +0.000 A 
DOCKED: ATOM      7  C   UNL     1      34.043  16.199 126.034 -0.28 -0.00    +0.000 A 
DOCKED: ATOM      8  C   UNL     1      33.338  16.441 127.215 -0.38 -0.00    +0.000 A 
DOCKED: ATOM      9  C   UNL     1      32.785  17.703 127.435 -0.28 -0.00    +0.000 A 
DOCKED: ATOM     10  N   UNL     1      32.941  18.686 126.509 -0.30 -0.00    +0.000 NA
DOCKED: ATOM     11  C   UNL     1      33.622  18.475 125.351 -0.30 -0.00    +0.000 A 
DOCKED: ATOM     12  CM  UNL     1      33.470  17.487 126.276 -0.04 -0.00    +0.000 AC
DOCKED: ENDBRANCH   3   6
DOCKED: ENDBRANCH   1   2
DOCKED: BRANCH   1  12
DOCKED: ATOM     13  C   UNL     1      37.890  15.675 122.833 -0.34 -0.00    +0.000 C 
DOCKED: BRANCH  12  13
DOCKED: ATOM     14  C   UNL     1      38.573  14.309 122.634 -0.46 -0.00    +0.000 C 
DOCKED: BRANCH  13  14
DOCKED: ATOM     15  C   UNL     1      37.723  13.091 123.037 -0.52 -0.00    +0.000 C 
DOCKED: BRANCH  14  15
DOCKED: ATOM     16  C   UNL     1      37.416  12.155 121.855 -0.49 -0.00    +0.000 C 
DOCKED: BRANCH  15  16
DOCKED: ATOM     17  C   UNL     1      36.252  11.202 122.157 -0.63 -0.00    +0.000 C 
DOCKED: BRANCH  16  18
DOCKED: ATOM     18  O   UNL     1      37.008   9.216 121.060 -2.72 -0.00    +0.000 OA
DOCKED: ATOM     19  C   UNL     1      36.689   9.766 122.149 -0.68 -0.00    +0.000 C 
DOCKED: ATOM     20  N   UNL     1      36.718   9.011 123.362 -0.59 -0.00    +0.000 N 
DOCKED: ATOM     21  O   UNL     1      37.099   7.712 123.353 -2.63 -0.00    +0.000 OA
DOCKED: ATOM     22  H   UNL     1      36.460   9.439 124.211 -0.40 -0.00    +0.000 HD
DOCKED: ENDBRANCH  16  18
DOCKED: ENDBRANCH  15  16
DOCKED: ENDBRANCH  14  15
DOCKED: ENDBRANCH  13  14
DOCKED: ENDBRANCH  12  13
DOCKED: ENDBRANCH   1  12
DOCKED: TORSDOF 8DOCKED: TER
DOCKED: ENDMDL
________________________________________________________________________________


	BEGINNING GENETIC ALGORITHM DOCKING 33 of 100
Run: 33 Seed: 690893892 776246752 [ Run 33 of 100 GA/GALS ]
Beginning LAMARCKIAN GENETIC ALGORITHM (LGA), with a maximum of 2500000 energy evaluations.

Final-Value: -14.039


	FINAL GENETIC ALGORITHM DOCKED STATE
	_______________________________________________


Detailed state:  trans 39.339 14.817 121.114 quatxyzw 0.688429 -0.266274 -0.083787 0.669435 center 0.003 -0.142 -0.069 ntor 8 -151.5872 -10.1972 -74.3621 -42.5637 179.4444 -22.6096 121.7055 13.3506
State:	 39.339  14.817 121.114   0.927 -0.358 -0.113 95.953   -151.59  -10.20  -74.36  -42.56  179.44  -22.61  121.71   13.35

DOCKED: MODEL       33
DOCKED: USER    Run = 33
DOCKED: USER    DPF = ligand_dock.biased.dpf
DOCKED: USER  
DOCKED: USER    Estimated Free Energy of Binding    =  -10.48 kcal/mol  [=(1)+(2)+(3)-(4)]
DOCKED: USER    Estimated Inhibition Constant, Ki   =   20.87 nM (nanomolar)  [Temperature = 298.15 K]
DOCKED: USER    
DOCKED: USER    (1) Final Intermolecular Energy     =  -12.86 kcal/mol
DOCKED: USER        vdW + Hbond + desolv Energy     =  -12.86 kcal/mol
DOCKED: USER        Electrostatic Energy            =   +0.00 kcal/mol
DOCKED: USER    (2) Final Total Internal Energy     =   -1.17 kcal/mol
DOCKED: USER    (3) Torsional Free Energy           =   +2.39 kcal/mol
DOCKED: USER    (4) Unbound System's Energy  [=(2)] =   -1.17 kcal/mol
DOCKED: USER    
DOCKED: USER    
DOCKED: USER    NEWDPF move ligand.dum.pdbqt
DOCKED: USER    NEWDPF about 0.003000 -0.142000 -0.069000
DOCKED: USER    NEWDPF tran0 39.338622 14.816630 121.113985
DOCKED: USER    NEWDPF quaternion0 0.688429 -0.266274 -0.083787 0.669435
DOCKED: USER    NEWDPF axisangle0 0.926715 -0.358440 -0.112789 95.953098
DOCKED: USER    NEWDPF quat0 0.926715 -0.358440 -0.112789 95.953098
DOCKED: USER    NEWDPF dihe0 -151.59 -10.20 -74.36 -42.56 179.44 -22.61 121.71 13.35 
DOCKED: USER  keepresnum = 1 
DOCKED: USER  
DOCKED: REMARK  Name = 
DOCKED: REMARK  8 active torsions:
DOCKED: REMARK  status: ('A' for Active; 'I' for Inactive)
DOCKED: REMARK    1  A    between atoms: C_2  and  C_5
DOCKED: REMARK    2  A    between atoms: C_5  and  C_6
DOCKED: REMARK    3  A    between atoms: C_6  and  C_7
DOCKED: REMARK    4  A    between atoms: C_7  and  C_8
DOCKED: REMARK    5  A    between atoms: C_8  and  C_9
DOCKED: REMARK    6  A    between atoms: C_9  and  C_10
DOCKED: REMARK    7  A    between atoms: C_10  and  C_11
DOCKED: REMARK    8  A    between atoms: N_12  and  C_13
DOCKED: REMARK                            x       y       z     vdW  Elec       q    Type
DOCKED: REMARK                         _______ _______ _______ _____ _____    ______ ____
DOCKED: USER                              x       y       z     vdW  Elec       q    Type
DOCKED: USER                           _______ _______ _______ _____ _____    ______ ____
DOCKED: ROOT
DOCKED: ATOM      1  C   UNL     1      39.436  14.683 121.925 -0.40 -0.00    +0.000 C 
DOCKED: ENDROOT
DOCKED: BRANCH   1   2
DOCKED: ATOM      2  C   UNL     1      38.436  15.635 122.511 -0.33 -0.00    +0.000 C 
DOCKED: ATOM      3  N   UNL     1      37.466  15.162 123.459 -0.38 -0.00    +0.000 N 
DOCKED: ATOM      4  O   UNL     1      38.459  16.846 122.162 -0.18 -0.00    +0.000 OA
DOCKED: ATOM      5  H   UNL     1      37.590  14.261 123.835 -0.04 -0.00    +0.000 HD
DOCKED: BRANCH   3   6
DOCKED: ATOM      6  C   UNL     1      36.326  15.922 123.894 -0.32 -0.00    +0.000 A 
DOCKED: ATOM      7  C   UNL     1      36.407  17.304 124.139 -0.24 -0.00    +0.000 A 
DOCKED: ATOM      8  C   UNL     1      35.270  18.011 124.534 -0.28 -0.00    +0.000 A 
DOCKED: ATOM      9  C   UNL     1      34.056  17.336 124.667 -0.38 -0.00    +0.000 A 
DOCKED: ATOM     10  N   UNL     1      33.985  16.004 124.403 -0.51 -0.00    +0.000 NA
DOCKED: ATOM     11  C   UNL     1      35.078  15.293 124.017 -0.51 -0.00    +0.000 A 
DOCKED: ATOM     12  CM  UNL     1      35.155  16.628 124.279 -0.13 -0.00    +0.000 AC
DOCKED: ENDBRANCH   3   6
DOCKED: ENDBRANCH   1   2
DOCKED: BRANCH   1  12
DOCKED: ATOM     13  C   UNL     1      38.936  14.146 120.579 -0.27 -0.00    +0.000 C 
DOCKED: BRANCH  12  13
DOCKED: ATOM     14  C   UNL     1      37.500  13.595 120.646 -0.43 -0.00    +0.000 C 
DOCKED: BRANCH  13  14
DOCKED: ATOM     15  C   UNL     1      37.383  12.140 121.135 -0.52 -0.00    +0.000 C 
DOCKED: BRANCH  14  15
DOCKED: ATOM     16  C   UNL     1      36.594  12.010 122.449 -0.62 -0.00    +0.000 C 
DOCKED: BRANCH  15  16
DOCKED: ATOM     17  C   UNL     1      35.711  10.756 122.474 -0.65 -0.00    +0.000 C 
DOCKED: BRANCH  16  18
DOCKED: ATOM     18  O   UNL     1      37.012   9.200 121.207 -2.72 -0.00    +0.000 OA
DOCKED: ATOM     19  C   UNL     1      36.520   9.500 122.329 -0.71 -0.00    +0.000 C 
DOCKED: ATOM     20  N   UNL     1      36.712   8.628 123.444 -0.63 -0.00    +0.000 N 
DOCKED: ATOM     21  O   UNL     1      37.430   7.488 123.309 -2.34 -0.00    +0.000 OA
DOCKED: ATOM     22  H   UNL     1      36.320   8.857 124.318 -0.29 -0.00    +0.000 HD
DOCKED: ENDBRANCH  16  18
DOCKED: ENDBRANCH  15  16
DOCKED: ENDBRANCH  14  15
DOCKED: ENDBRANCH  13  14
DOCKED: ENDBRANCH  12  13
DOCKED: ENDBRANCH   1  12
DOCKED: TORSDOF 8DOCKED: TER
DOCKED: ENDMDL
________________________________________________________________________________


	BEGINNING GENETIC ALGORITHM DOCKING 34 of 100
Run: 34 Seed: 725722911 2052543148 [ Run 34 of 100 GA/GALS ]
Beginning LAMARCKIAN GENETIC ALGORITHM (LGA), with a maximum of 2500000 energy evaluations.

Final-Value: -12.129


	FINAL GENETIC ALGORITHM DOCKED STATE
	_______________________________________________


Detailed state:  trans 38.326 14.865 121.537 quatxyzw 0.824266 -0.284540 0.267547 -0.409927 center 0.003 -0.142 -0.069 ntor 8 142.3360 155.8159 86.9036 -91.9785 -115.3735 -127.1400 -134.7558 178.1371
State:	 38.326  14.865 121.537   0.904 -0.312  0.293 -131.599    142.34  155.82   86.90  -91.98 -115.37 -127.14 -134.76  178.14

DOCKED: MODEL       34
DOCKED: USER    Run = 34
DOCKED: USER    DPF = ligand_dock.biased.dpf
DOCKED: USER  
DOCKED: USER    Estimated Free Energy of Binding    =   -8.70 kcal/mol  [=(1)+(2)+(3)-(4)]
DOCKED: USER    Estimated Inhibition Constant, Ki   =  418.62 nM (nanomolar)  [Temperature = 298.15 K]
DOCKED: USER    
DOCKED: USER    (1) Final Intermolecular Energy     =  -11.09 kcal/mol
DOCKED: USER        vdW + Hbond + desolv Energy     =  -11.09 kcal/mol
DOCKED: USER        Electrostatic Energy            =   +0.00 kcal/mol
DOCKED: USER    (2) Final Total Internal Energy     =   -1.04 kcal/mol
DOCKED: USER    (3) Torsional Free Energy           =   +2.39 kcal/mol
DOCKED: USER    (4) Unbound System's Energy  [=(2)] =   -1.04 kcal/mol
DOCKED: USER    
DOCKED: USER    
DOCKED: USER    NEWDPF move ligand.dum.pdbqt
DOCKED: USER    NEWDPF about 0.003000 -0.142000 -0.069000
DOCKED: USER    NEWDPF tran0 38.325718 14.865278 121.537164
DOCKED: USER    NEWDPF quaternion0 0.824266 -0.284540 0.267547 -0.409927
DOCKED: USER    NEWDPF axisangle0 0.903684 -0.311955 0.293325 -131.599465
DOCKED: USER    NEWDPF quat0 0.903684 -0.311955 0.293325 -131.599465
DOCKED: USER    NEWDPF dihe0 142.34 155.82 86.90 -91.98 -115.37 -127.14 -134.76 178.14 
DOCKED: USER  keepresnum = 1 
DOCKED: USER  
DOCKED: REMARK  Name = 
DOCKED: REMARK  8 active torsions:
DOCKED: REMARK  status: ('A' for Active; 'I' for Inactive)
DOCKED: REMARK    1  A    between atoms: C_2  and  C_5
DOCKED: REMARK    2  A    between atoms: C_5  and  C_6
DOCKED: REMARK    3  A    between atoms: C_6  and  C_7
DOCKED: REMARK    4  A    between atoms: C_7  and  C_8
DOCKED: REMARK    5  A    between atoms: C_8  and  C_9
DOCKED: REMARK    6  A    between atoms: C_9  and  C_10
DOCKED: REMARK    7  A    between atoms: C_10  and  C_11
DOCKED: REMARK    8  A    between atoms: N_12  and  C_13
DOCKED: REMARK                            x       y       z     vdW  Elec       q    Type
DOCKED: REMARK                         _______ _______ _______ _____ _____    ______ ____
DOCKED: USER                              x       y       z     vdW  Elec       q    Type
DOCKED: USER                           _______ _______ _______ _____ _____    ______ ____
DOCKED: ROOT
DOCKED: ATOM      1  C   UNL     1      38.628  15.462 121.050 -0.26 -0.00    +0.000 C 
DOCKED: ENDROOT
DOCKED: BRANCH   1   2
DOCKED: ATOM      2  C   UNL     1      37.811  15.284 119.806 -0.23 -0.00    +0.000 C 
DOCKED: ATOM      3  N   UNL     1      37.974  14.102 119.005 -0.27 -0.00    +0.000 N 
DOCKED: ATOM      4  O   UNL     1      36.987  16.178 119.475 -0.17 -0.00    +0.000 OA
DOCKED: ATOM      5  H   UNL     1      38.492  13.355 119.384 -0.12 -0.00    +0.000 HD
DOCKED: BRANCH   3   6
DOCKED: ATOM      6  C   UNL     1      37.427  13.941 117.686 -0.33 -0.00    +0.000 A 
DOCKED: ATOM      7  C   UNL     1      38.243  13.669 116.574 -0.33 -0.00    +0.000 A 
DOCKED: ATOM      8  C   UNL     1      37.669  13.492 115.313 -0.39 -0.00    +0.000 A 
DOCKED: ATOM      9  C   UNL     1      36.283  13.575 115.175 -0.22 -0.00    +0.000 A 
DOCKED: ATOM     10  N   UNL     1      35.503  13.815 116.262 -0.31 -0.00    +0.000 NA
DOCKED: ATOM     11  C   UNL     1      36.037  13.990 117.500 -0.34 -0.00    +0.000 A 
DOCKED: ATOM     12  CM  UNL     1      36.824  13.748 116.414 +0.00 -0.00    +0.000 AC
DOCKED: ENDBRANCH   3   6
DOCKED: ENDBRANCH   1   2
DOCKED: BRANCH   1  12
DOCKED: ATOM     13  C   UNL     1      37.800  15.102 122.290 -0.37 -0.00    +0.000 C 
DOCKED: BRANCH  12  13
DOCKED: ATOM     14  C   UNL     1      37.159  13.705 122.200 -0.48 -0.00    +0.000 C 
DOCKED: BRANCH  13  14
DOCKED: ATOM     15  C   UNL     1      36.488  13.213 123.495 -0.61 -0.00    +0.000 C 
DOCKED: BRANCH  14  15
DOCKED: ATOM     16  C   UNL     1      35.913  11.791 123.371 -0.67 -0.00    +0.000 C 
DOCKED: BRANCH  15  16
DOCKED: ATOM     17  C   UNL     1      36.911  10.720 123.827 -0.26 -0.00    +0.000 C 
DOCKED: BRANCH  16  18
DOCKED: ATOM     18  O   UNL     1      37.067   8.395 123.291 -2.12 -0.00    +0.000 OA
DOCKED: ATOM     19  C   UNL     1      36.986   9.576 122.857 -0.61 -0.00    +0.000 C 
DOCKED: ATOM     20  N   UNL     1      36.997   9.819 121.449 -0.53 -0.00    +0.000 N 
DOCKED: ATOM     21  O   UNL     1      37.079   8.789 120.575 -2.43 -0.00    +0.000 OA
DOCKED: ATOM     22  H   UNL     1      36.944  10.743 121.112 -0.02 -0.00    +0.000 HD
DOCKED: ENDBRANCH  16  18
DOCKED: ENDBRANCH  15  16
DOCKED: ENDBRANCH  14  15
DOCKED: ENDBRANCH  13  14
DOCKED: ENDBRANCH  12  13
DOCKED: ENDBRANCH   1  12
DOCKED: TORSDOF 8DOCKED: TER
DOCKED: ENDMDL
________________________________________________________________________________


	BEGINNING GENETIC ALGORITHM DOCKING 35 of 100
Run: 35 Seed: 583014290 989066776 [ Run 35 of 100 GA/GALS ]
Beginning LAMARCKIAN GENETIC ALGORITHM (LGA), with a maximum of 2500000 energy evaluations.

Final-Value: -13.997


	FINAL GENETIC ALGORITHM DOCKED STATE
	_______________________________________________


Detailed state:  trans 37.508 14.925 120.361 quatxyzw 0.236218 -0.828619 -0.482793 0.156532 center 0.003 -0.142 -0.069 ntor 8 130.9821 106.9732 -114.0973 86.3118 165.2222 -80.6015 115.1245 8.9454
State:	 37.508  14.925 120.361   0.239 -0.839 -0.489 161.989    130.98  106.97 -114.10   86.31  165.22  -80.60  115.12    8.95

DOCKED: MODEL       35
DOCKED: USER    Run = 35
DOCKED: USER    DPF = ligand_dock.biased.dpf
DOCKED: USER  
DOCKED: USER    Estimated Free Energy of Binding    =  -10.61 kcal/mol  [=(1)+(2)+(3)-(4)]
DOCKED: USER    Estimated Inhibition Constant, Ki   =   16.74 nM (nanomolar)  [Temperature = 298.15 K]
DOCKED: USER    
DOCKED: USER    (1) Final Intermolecular Energy     =  -12.99 kcal/mol
DOCKED: USER        vdW + Hbond + desolv Energy     =  -12.99 kcal/mol
DOCKED: USER        Electrostatic Energy            =   +0.00 kcal/mol
DOCKED: USER    (2) Final Total Internal Energy     =   -1.00 kcal/mol
DOCKED: USER    (3) Torsional Free Energy           =   +2.39 kcal/mol
DOCKED: USER    (4) Unbound System's Energy  [=(2)] =   -1.00 kcal/mol
DOCKED: USER    
DOCKED: USER    
DOCKED: USER    NEWDPF move ligand.dum.pdbqt
DOCKED: USER    NEWDPF about 0.003000 -0.142000 -0.069000
DOCKED: USER    NEWDPF tran0 37.508405 14.925148 120.360665
DOCKED: USER    NEWDPF quaternion0 0.236218 -0.828619 -0.482793 0.156532
DOCKED: USER    NEWDPF axisangle0 0.239166 -0.838961 -0.488819 161.988741
DOCKED: USER    NEWDPF quat0 0.239166 -0.838961 -0.488819 161.988741
DOCKED: USER    NEWDPF dihe0 130.98 106.97 -114.10 86.31 165.22 -80.60 115.12 8.95 
DOCKED: USER  keepresnum = 1 
DOCKED: USER  
DOCKED: REMARK  Name = 
DOCKED: REMARK  8 active torsions:
DOCKED: REMARK  status: ('A' for Active; 'I' for Inactive)
DOCKED: REMARK    1  A    between atoms: C_2  and  C_5
DOCKED: REMARK    2  A    between atoms: C_5  and  C_6
DOCKED: REMARK    3  A    between atoms: C_6  and  C_7
DOCKED: REMARK    4  A    between atoms: C_7  and  C_8
DOCKED: REMARK    5  A    between atoms: C_8  and  C_9
DOCKED: REMARK    6  A    between atoms: C_9  and  C_10
DOCKED: REMARK    7  A    between atoms: C_10  and  C_11
DOCKED: REMARK    8  A    between atoms: N_12  and  C_13
DOCKED: REMARK                            x       y       z     vdW  Elec       q    Type
DOCKED: REMARK                         _______ _______ _______ _____ _____    ______ ____
DOCKED: USER                              x       y       z     vdW  Elec       q    Type
DOCKED: USER                           _______ _______ _______ _____ _____    ______ ____
DOCKED: ROOT
DOCKED: ATOM      1  C   UNL     1      38.141  14.512 120.023 -0.30 -0.00    +0.000 C 
DOCKED: ENDROOT
DOCKED: BRANCH   1   2
DOCKED: ATOM      2  C   UNL     1      39.303  15.386 120.384 -0.23 -0.00    +0.000 C 
DOCKED: ATOM      3  N   UNL     1      40.408  14.842 121.124 -0.21 -0.00    +0.000 N 
DOCKED: ATOM      4  O   UNL     1      39.297  16.597 120.034 -0.12 -0.00    +0.000 OA
DOCKED: ATOM      5  H   UNL     1      40.458  13.864 121.225 -0.03 +0.00    +0.000 HD
DOCKED: BRANCH   3   6
DOCKED: ATOM      6  C   UNL     1      41.446  15.635 121.723 -0.33 -0.00    +0.000 A 
DOCKED: ATOM      7  C   UNL     1      42.509  16.158 120.967 -0.23 -0.00    +0.000 A 
DOCKED: ATOM      8  C   UNL     1      43.483  16.946 121.583 -0.24 -0.00    +0.000 A 
DOCKED: ATOM      9  C   UNL     1      43.380  17.219 122.947 -0.30 -0.00    +0.000 A 
DOCKED: ATOM     10  N   UNL     1      42.334  16.728 123.664 -0.95 -0.00    +0.000 NA
DOCKED: ATOM     11  C   UNL     1      41.373  15.957 123.087 -0.38 -0.00    +0.000 A 
DOCKED: ATOM     12  CM  UNL     1      42.419  16.449 122.364 +0.00 -0.00    +0.000 AC
DOCKED: ENDBRANCH   3   6
DOCKED: ENDBRANCH   1   2
DOCKED: BRANCH   1  12
DOCKED: ATOM     13  C   UNL     1      37.071  14.565 121.121 -0.29 -0.00    +0.000 C 
DOCKED: BRANCH  12  13
DOCKED: ATOM     14  C   UNL     1      37.607  14.156 122.505 -0.47 -0.00    +0.000 C 
DOCKED: BRANCH  13  14
DOCKED: ATOM     15  C   UNL     1      36.632  13.328 123.362 -0.60 -0.00    +0.000 C 
DOCKED: BRANCH  14  15
DOCKED: ATOM     16  C   UNL     1      36.978  11.830 123.387 -0.68 -0.00    +0.000 C 
DOCKED: BRANCH  15  16
DOCKED: ATOM     17  C   UNL     1      36.308  11.060 122.242 -0.65 -0.00    +0.000 C 
DOCKED: BRANCH  16  18
DOCKED: ATOM     18  O   UNL     1      36.729   8.978 121.144 -2.63 -0.00    +0.000 OA
DOCKED: ATOM     19  C   UNL     1      36.705   9.612 122.234 -0.70 -0.00    +0.000 C 
DOCKED: ATOM     20  N   UNL     1      37.027   8.942 123.454 -0.59 -0.00    +0.000 N 
DOCKED: ATOM     21  O   UNL     1      37.371   7.633 123.447 -2.55 -0.00    +0.000 OA
DOCKED: ATOM     22  H   UNL     1      36.999   9.435 124.305 -0.51 -0.00    +0.000 HD
DOCKED: ENDBRANCH  16  18
DOCKED: ENDBRANCH  15  16
DOCKED: ENDBRANCH  14  15
DOCKED: ENDBRANCH  13  14
DOCKED: ENDBRANCH  12  13
DOCKED: ENDBRANCH   1  12
DOCKED: TORSDOF 8DOCKED: TER
DOCKED: ENDMDL
________________________________________________________________________________


	BEGINNING GENETIC ALGORITHM DOCKING 36 of 100
Run: 36 Seed: 1497632198 472718675 [ Run 36 of 100 GA/GALS ]
Beginning LAMARCKIAN GENETIC ALGORITHM (LGA), with a maximum of 2500000 energy evaluations.

Final-Value: -12.923


	FINAL GENETIC ALGORITHM DOCKED STATE
	_______________________________________________


Detailed state:  trans 35.010 15.549 124.204 quatxyzw -0.111129 -0.172716 -0.769668 -0.604509 center 0.003 -0.142 -0.069 ntor 8 156.6509 176.0407 -80.0864 109.7713 -46.5905 -93.3220 -2.0883 175.6209
State:	 35.010  15.549 124.204  -0.140 -0.217 -0.966 -105.613    156.65  176.04  -80.09  109.77  -46.59  -93.32   -2.09  175.62

DOCKED: MODEL       36
DOCKED: USER    Run = 36
DOCKED: USER    DPF = ligand_dock.biased.dpf
DOCKED: USER  
DOCKED: USER    Estimated Free Energy of Binding    =   -9.86 kcal/mol  [=(1)+(2)+(3)-(4)]
DOCKED: USER    Estimated Inhibition Constant, Ki   =   59.40 nM (nanomolar)  [Temperature = 298.15 K]
DOCKED: USER    
DOCKED: USER    (1) Final Intermolecular Energy     =  -12.24 kcal/mol
DOCKED: USER        vdW + Hbond + desolv Energy     =  -12.24 kcal/mol
DOCKED: USER        Electrostatic Energy            =   +0.00 kcal/mol
DOCKED: USER    (2) Final Total Internal Energy     =   -0.68 kcal/mol
DOCKED: USER    (3) Torsional Free Energy           =   +2.39 kcal/mol
DOCKED: USER    (4) Unbound System's Energy  [=(2)] =   -0.68 kcal/mol
DOCKED: USER    
DOCKED: USER    
DOCKED: USER    NEWDPF move ligand.dum.pdbqt
DOCKED: USER    NEWDPF about 0.003000 -0.142000 -0.069000
DOCKED: USER    NEWDPF tran0 35.010260 15.549020 124.204082
DOCKED: USER    NEWDPF quaternion0 -0.111129 -0.172716 -0.769668 -0.604509
DOCKED: USER    NEWDPF axisangle0 -0.139504 -0.216817 -0.966193 -105.613021
DOCKED: USER    NEWDPF quat0 -0.139504 -0.216817 -0.966193 -105.613021
DOCKED: USER    NEWDPF dihe0 156.65 176.04 -80.09 109.77 -46.59 -93.32 -2.09 175.62 
DOCKED: USER  keepresnum = 1 
DOCKED: USER  
DOCKED: REMARK  Name = 
DOCKED: REMARK  8 active torsions:
DOCKED: REMARK  status: ('A' for Active; 'I' for Inactive)
DOCKED: REMARK    1  A    between atoms: C_2  and  C_5
DOCKED: REMARK    2  A    between atoms: C_5  and  C_6
DOCKED: REMARK    3  A    between atoms: C_6  and  C_7
DOCKED: REMARK    4  A    between atoms: C_7  and  C_8
DOCKED: REMARK    5  A    between atoms: C_8  and  C_9
DOCKED: REMARK    6  A    between atoms: C_9  and  C_10
DOCKED: REMARK    7  A    between atoms: C_10  and  C_11
DOCKED: REMARK    8  A    between atoms: N_12  and  C_13
DOCKED: REMARK                            x       y       z     vdW  Elec       q    Type
DOCKED: REMARK                         _______ _______ _______ _____ _____    ______ ____
DOCKED: USER                              x       y       z     vdW  Elec       q    Type
DOCKED: USER                           _______ _______ _______ _____ _____    ______ ____
DOCKED: ROOT
DOCKED: ATOM      1  C   UNL     1      34.343  15.876 123.839 -0.56 -0.00    +0.000 C 
DOCKED: ENDROOT
DOCKED: BRANCH   1   2
DOCKED: ATOM      2  C   UNL     1      34.653  17.341 123.895 -0.42 -0.00    +0.000 C 
DOCKED: ATOM      3  N   UNL     1      34.638  18.030 125.156 -0.32 -0.00    +0.000 N 
DOCKED: ATOM      4  O   UNL     1      34.924  17.956 122.829 -0.34 -0.00    +0.000 OA
DOCKED: ATOM      5  H   UNL     1      34.596  17.488 125.977 -0.01 -0.00    +0.000 HD
DOCKED: BRANCH   3   6
DOCKED: ATOM      6  C   UNL     1      34.682  19.460 125.295 -0.20 -0.00    +0.000 A 
DOCKED: ATOM      7  C   UNL     1      35.579  20.248 124.554 -0.15 -0.00    +0.000 A 
DOCKED: ATOM      8  C   UNL     1      35.571  21.637 124.698 -0.15 -0.00    +0.000 A 
DOCKED: ATOM      9  C   UNL     1      34.657  22.230 125.569 -0.15 -0.00    +0.000 A 
DOCKED: ATOM     10  N   UNL     1      33.777  21.458 126.262 -0.16 -0.00    +0.000 NA
DOCKED: ATOM     11  C   UNL     1      33.765  20.104 126.140 -0.18 -0.00    +0.000 A 
DOCKED: ATOM     12  CM  UNL     1      34.648  20.873 125.442 +0.00 -0.00    +0.000 AC
DOCKED: ENDBRANCH   3   6
DOCKED: ENDBRANCH   1   2
DOCKED: BRANCH   1  12
DOCKED: ATOM     13  C   UNL     1      35.633  15.063 123.681 -0.52 -0.00    +0.000 C 
DOCKED: BRANCH  12  13
DOCKED: ATOM     14  C   UNL     1      35.377  13.558 123.479 -0.29 -0.00    +0.000 C 
DOCKED: BRANCH  13  14
DOCKED: ATOM     15  C   UNL     1      36.530  12.636 123.915 -0.56 -0.00    +0.000 C 
DOCKED: BRANCH  14  15
DOCKED: ATOM     16  C   UNL     1      37.261  11.986 122.727 -0.54 -0.00    +0.000 C 
DOCKED: BRANCH  15  16
DOCKED: ATOM     17  C   UNL     1      36.359  11.020 121.949 -0.60 -0.00    +0.000 C 
DOCKED: BRANCH  16  18
DOCKED: ATOM     18  O   UNL     1      37.053   8.928 121.025 -2.71 -0.00    +0.000 OA
DOCKED: ATOM     19  C   UNL     1      36.827   9.599 122.068 -0.66 -0.00    +0.000 C 
DOCKED: ATOM     20  N   UNL     1      36.991   8.995 123.352 -0.61 -0.00    +0.000 N 
DOCKED: ATOM     21  O   UNL     1      37.400   7.709 123.458 -2.61 -0.00    +0.000 OA
DOCKED: ATOM     22  H   UNL     1      36.805   9.517 124.166 -0.51 -0.00    +0.000 HD
DOCKED: ENDBRANCH  16  18
DOCKED: ENDBRANCH  15  16
DOCKED: ENDBRANCH  14  15
DOCKED: ENDBRANCH  13  14
DOCKED: ENDBRANCH  12  13
DOCKED: ENDBRANCH   1  12
DOCKED: TORSDOF 8DOCKED: TER
DOCKED: ENDMDL
________________________________________________________________________________


	BEGINNING GENETIC ALGORITHM DOCKING 37 of 100
Run: 37 Seed: 576293664 632638563 [ Run 37 of 100 GA/GALS ]
Beginning LAMARCKIAN GENETIC ALGORITHM (LGA), with a maximum of 2500000 energy evaluations.

Final-Value: -12.388


	FINAL GENETIC ALGORITHM DOCKED STATE
	_______________________________________________


Detailed state:  trans 37.837 12.961 118.994 quatxyzw -0.933669 0.135658 -0.118015 0.309729 center 0.003 -0.142 -0.069 ntor 8 -77.0132 -178.0191 -11.1022 -42.6349 51.7671 -139.7609 32.9208 126.9520
State:	 37.837  12.961 118.994  -0.982  0.143 -0.124 143.914    -77.01 -178.02  -11.10  -42.63   51.77 -139.76   32.92  126.95

DOCKED: MODEL       37
DOCKED: USER    Run = 37
DOCKED: USER    DPF = ligand_dock.biased.dpf
DOCKED: USER  
DOCKED: USER    Estimated Free Energy of Binding    =   -9.17 kcal/mol  [=(1)+(2)+(3)-(4)]
DOCKED: USER    Estimated Inhibition Constant, Ki   =  191.25 nM (nanomolar)  [Temperature = 298.15 K]
DOCKED: USER    
DOCKED: USER    (1) Final Intermolecular Energy     =  -11.55 kcal/mol
DOCKED: USER        vdW + Hbond + desolv Energy     =  -11.55 kcal/mol
DOCKED: USER        Electrostatic Energy            =   +0.00 kcal/mol
DOCKED: USER    (2) Final Total Internal Energy     =   -0.84 kcal/mol
DOCKED: USER    (3) Torsional Free Energy           =   +2.39 kcal/mol
DOCKED: USER    (4) Unbound System's Energy  [=(2)] =   -0.84 kcal/mol
DOCKED: USER    
DOCKED: USER    
DOCKED: USER    NEWDPF move ligand.dum.pdbqt
DOCKED: USER    NEWDPF about 0.003000 -0.142000 -0.069000
DOCKED: USER    NEWDPF tran0 37.837170 12.960990 118.994365
DOCKED: USER    NEWDPF quaternion0 -0.933669 0.135658 -0.118015 0.309729
DOCKED: USER    NEWDPF axisangle0 -0.981957 0.142674 -0.124118 143.914178
DOCKED: USER    NEWDPF quat0 -0.981957 0.142674 -0.124118 143.914178
DOCKED: USER    NEWDPF dihe0 -77.01 -178.02 -11.10 -42.63 51.77 -139.76 32.92 126.95 
DOCKED: USER  keepresnum = 1 
DOCKED: USER  
DOCKED: REMARK  Name = 
DOCKED: REMARK  8 active torsions:
DOCKED: REMARK  status: ('A' for Active; 'I' for Inactive)
DOCKED: REMARK    1  A    between atoms: C_2  and  C_5
DOCKED: REMARK    2  A    between atoms: C_5  and  C_6
DOCKED: REMARK    3  A    between atoms: C_6  and  C_7
DOCKED: REMARK    4  A    between atoms: C_7  and  C_8
DOCKED: REMARK    5  A    between atoms: C_8  and  C_9
DOCKED: REMARK    6  A    between atoms: C_9  and  C_10
DOCKED: REMARK    7  A    between atoms: C_10  and  C_11
DOCKED: REMARK    8  A    between atoms: N_12  and  C_13
DOCKED: REMARK                            x       y       z     vdW  Elec       q    Type
DOCKED: REMARK                         _______ _______ _______ _____ _____    ______ ____
DOCKED: USER                              x       y       z     vdW  Elec       q    Type
DOCKED: USER                           _______ _______ _______ _____ _____    ______ ____
DOCKED: ROOT
DOCKED: ATOM      1  C   UNL     1      37.812  13.706 118.635 -0.31 -0.00    +0.000 C 
DOCKED: ENDROOT
DOCKED: BRANCH   1   2
DOCKED: ATOM      2  C   UNL     1      36.623  13.569 117.733 -0.39 -0.00    +0.000 C 
DOCKED: ATOM      3  N   UNL     1      36.783  13.700 116.311 -0.35 -0.00    +0.000 N 
DOCKED: ATOM      4  O   UNL     1      35.490  13.340 118.234 -0.43 -0.00    +0.000 OA
DOCKED: ATOM      5  H   UNL     1      37.699  13.703 115.948 -0.02 -0.00    +0.000 HD
DOCKED: BRANCH   3   6
DOCKED: ATOM      6  C   UNL     1      35.691  13.825 115.385 -0.23 -0.00    +0.000 A 
DOCKED: ATOM      7  C   UNL     1      34.435  14.313 115.783 -0.27 -0.00    +0.000 A 
DOCKED: ATOM      8  C   UNL     1      33.408  14.445 114.846 -0.23 -0.00    +0.000 A 
DOCKED: ATOM      9  C   UNL     1      33.648  14.103 113.515 -0.20 -0.00    +0.000 A 
DOCKED: ATOM     10  N   UNL     1      34.875  13.654 113.137 -0.23 -0.00    +0.000 NA
DOCKED: ATOM     11  C   UNL     1      35.891  13.517 114.030 -0.26 -0.00    +0.000 A 
DOCKED: ATOM     12  CM  UNL     1      34.664  13.968 114.414 +0.00 -0.00    +0.000 AC
DOCKED: ENDBRANCH   3   6
DOCKED: ENDBRANCH   1   2
DOCKED: BRANCH   1  12
DOCKED: ATOM     13  C   UNL     1      37.612  12.880 119.912 -0.47 -0.00    +0.000 C 
DOCKED: BRANCH  12  13
DOCKED: ATOM     14  C   UNL     1      38.101  13.603 121.180 -0.43 -0.00    +0.000 C 
DOCKED: BRANCH  13  14
DOCKED: ATOM     15  C   UNL     1      37.492  13.089 122.498 -0.53 -0.00    +0.000 C 
DOCKED: BRANCH  14  15
DOCKED: ATOM     16  C   UNL     1      36.317  12.120 122.279 -0.57 -0.00    +0.000 C 
DOCKED: BRANCH  15  16
DOCKED: ATOM     17  C   UNL     1      36.310  10.977 123.301 -0.69 -0.00    +0.000 C 
DOCKED: BRANCH  16  18
DOCKED: ATOM     18  O   UNL     1      37.018   9.627 121.458 -2.17 -0.00    +0.000 OA
DOCKED: ATOM     19  C   UNL     1      36.709   9.669 122.680 -0.70 -0.00    +0.000 C 
DOCKED: ATOM     20  N   UNL     1      36.713   8.470 123.456 -0.66 -0.00    +0.000 N 
DOCKED: ATOM     21  O   UNL     1      37.060   7.289 122.892 -2.11 -0.00    +0.000 OA
DOCKED: ATOM     22  H   UNL     1      36.464   8.502 124.408 -0.30 -0.00    +0.000 HD
DOCKED: ENDBRANCH  16  18
DOCKED: ENDBRANCH  15  16
DOCKED: ENDBRANCH  14  15
DOCKED: ENDBRANCH  13  14
DOCKED: ENDBRANCH  12  13
DOCKED: ENDBRANCH   1  12
DOCKED: TORSDOF 8DOCKED: TER
DOCKED: ENDMDL
________________________________________________________________________________


	BEGINNING GENETIC ALGORITHM DOCKING 38 of 100
Run: 38 Seed: 559793615 589208774 [ Run 38 of 100 GA/GALS ]
Beginning LAMARCKIAN GENETIC ALGORITHM (LGA), with a maximum of 2500000 energy evaluations.

Final-Value: -14.045


	FINAL GENETIC ALGORITHM DOCKED STATE
	_______________________________________________


Detailed state:  trans 37.527 14.282 121.070 quatxyzw -0.260624 0.893322 0.341598 -0.131765 center 0.003 -0.142 -0.069 ntor 8 61.8809 81.3646 54.4698 171.9998 144.3690 -70.3858 82.6113 -7.4032
State:	 37.527  14.282 121.070  -0.263  0.901  0.345 -164.857     61.88   81.36   54.47  172.00  144.37  -70.39   82.61   -7.40

DOCKED: MODEL       38
DOCKED: USER    Run = 38
DOCKED: USER    DPF = ligand_dock.biased.dpf
DOCKED: USER  
DOCKED: USER    Estimated Free Energy of Binding    =  -10.69 kcal/mol  [=(1)+(2)+(3)-(4)]
DOCKED: USER    Estimated Inhibition Constant, Ki   =   14.64 nM (nanomolar)  [Temperature = 298.15 K]
DOCKED: USER    
DOCKED: USER    (1) Final Intermolecular Energy     =  -13.07 kcal/mol
DOCKED: USER        vdW + Hbond + desolv Energy     =  -13.07 kcal/mol
DOCKED: USER        Electrostatic Energy            =   +0.00 kcal/mol
DOCKED: USER    (2) Final Total Internal Energy     =   -0.97 kcal/mol
DOCKED: USER    (3) Torsional Free Energy           =   +2.39 kcal/mol
DOCKED: USER    (4) Unbound System's Energy  [=(2)] =   -0.97 kcal/mol
DOCKED: USER    
DOCKED: USER    
DOCKED: USER    NEWDPF move ligand.dum.pdbqt
DOCKED: USER    NEWDPF about 0.003000 -0.142000 -0.069000
DOCKED: USER    NEWDPF tran0 37.527473 14.282483 121.070226
DOCKED: USER    NEWDPF quaternion0 -0.260624 0.893322 0.341598 -0.131765
DOCKED: USER    NEWDPF axisangle0 -0.262916 0.901179 0.344602 -164.856817
DOCKED: USER    NEWDPF quat0 -0.262916 0.901179 0.344602 -164.856817
DOCKED: USER    NEWDPF dihe0 61.88 81.36 54.47 172.00 144.37 -70.39 82.61 -7.40 
DOCKED: USER  keepresnum = 1 
DOCKED: USER  
DOCKED: REMARK  Name = 
DOCKED: REMARK  8 active torsions:
DOCKED: REMARK  status: ('A' for Active; 'I' for Inactive)
DOCKED: REMARK    1  A    between atoms: C_2  and  C_5
DOCKED: REMARK    2  A    between atoms: C_5  and  C_6
DOCKED: REMARK    3  A    between atoms: C_6  and  C_7
DOCKED: REMARK    4  A    between atoms: C_7  and  C_8
DOCKED: REMARK    5  A    between atoms: C_8  and  C_9
DOCKED: REMARK    6  A    between atoms: C_9  and  C_10
DOCKED: REMARK    7  A    between atoms: C_10  and  C_11
DOCKED: REMARK    8  A    between atoms: N_12  and  C_13
DOCKED: REMARK                            x       y       z     vdW  Elec       q    Type
DOCKED: REMARK                         _______ _______ _______ _____ _____    ______ ____
DOCKED: USER                              x       y       z     vdW  Elec       q    Type
DOCKED: USER                           _______ _______ _______ _____ _____    ______ ____
DOCKED: ROOT
DOCKED: ATOM      1  C   UNL     1      38.163  13.781 120.898 -0.40 -0.00    +0.000 C 
DOCKED: ENDROOT
DOCKED: BRANCH   1   2
DOCKED: ATOM      2  C   UNL     1      39.328  14.718 121.003 -0.31 -0.00    +0.000 C 
DOCKED: ATOM      3  N   UNL     1      40.218  14.632 122.128 -0.40 -0.00    +0.000 N 
DOCKED: ATOM      4  O   UNL     1      39.513  15.577 120.099 -0.21 -0.00    +0.000 OA
DOCKED: ATOM      5  H   UNL     1      40.145  13.844 122.715 -0.02 +0.00    +0.000 HD
DOCKED: BRANCH   3   6
DOCKED: ATOM      6  C   UNL     1      41.210  15.621 122.448 -0.42 -0.00    +0.000 A 
DOCKED: ATOM      7  C   UNL     1      40.921  16.717 123.278 -0.29 -0.00    +0.000 A 
DOCKED: ATOM      8  C   UNL     1      41.921  17.642 123.587 -0.29 -0.00    +0.000 A 
DOCKED: ATOM      9  C   UNL     1      43.206  17.456 123.078 -0.27 -0.00    +0.000 A 
DOCKED: ATOM     10  N   UNL     1      43.479  16.378 122.295 -0.38 -0.00    +0.000 NA
DOCKED: ATOM     11  C   UNL     1      42.523  15.464 121.980 -0.33 -0.00    +0.000 A 
DOCKED: ATOM     12  CM  UNL     1      42.245  16.542 122.765 +0.00 -0.00    +0.000 AC
DOCKED: ENDBRANCH   3   6
DOCKED: ENDBRANCH   1   2
DOCKED: BRANCH   1  12
DOCKED: ATOM     13  C   UNL     1      37.065  14.180 121.891 -0.39 -0.00    +0.000 C 
DOCKED: BRANCH  12  13
DOCKED: ATOM     14  C   UNL     1      37.222  13.506 123.266 -0.55 -0.00    +0.000 C 
DOCKED: BRANCH  13  14
DOCKED: ATOM     15  C   UNL     1      35.942  12.856 123.823 -0.60 -0.00    +0.000 C 
DOCKED: BRANCH  14  15
DOCKED: ATOM     16  C   UNL     1      35.683  11.452 123.251 -0.62 -0.00    +0.000 C 
DOCKED: BRANCH  15  16
DOCKED: ATOM     17  C   UNL     1      36.723  11.055 122.195 -0.63 -0.00    +0.000 C 
DOCKED: BRANCH  16  18
DOCKED: ATOM     18  O   UNL     1      37.062   9.000 121.020 -2.72 -0.00    +0.000 OA
DOCKED: ATOM     19  C   UNL     1      36.921   9.568 122.137 -0.64 -0.00    +0.000 C 
DOCKED: ATOM     20  N   UNL     1      36.922   8.790 123.335 -0.64 -0.00    +0.000 N 
DOCKED: ATOM     21  O   UNL     1      37.086   7.447 123.281 -2.44 -0.00    +0.000 OA
DOCKED: ATOM     22  H   UNL     1      36.802   9.232 124.207 -0.52 -0.00    +0.000 HD
DOCKED: ENDBRANCH  16  18
DOCKED: ENDBRANCH  15  16
DOCKED: ENDBRANCH  14  15
DOCKED: ENDBRANCH  13  14
DOCKED: ENDBRANCH  12  13
DOCKED: ENDBRANCH   1  12
DOCKED: TORSDOF 8DOCKED: TER
DOCKED: ENDMDL
________________________________________________________________________________


	BEGINNING GENETIC ALGORITHM DOCKING 39 of 100
Run: 39 Seed: 1104925153 1372583890 [ Run 39 of 100 GA/GALS ]
Beginning LAMARCKIAN GENETIC ALGORITHM (LGA), with a maximum of 2500000 energy evaluations.

Final-Value: -13.248


	FINAL GENETIC ALGORITHM DOCKED STATE
	_______________________________________________


Detailed state:  trans 37.264 15.322 121.775 quatxyzw 0.806723 -0.197607 0.505850 -0.232950 center 0.003 -0.142 -0.069 ntor 8 96.9315 77.4098 -147.5719 173.9654 -163.7357 -142.7170 -98.7220 -157.4469
State:	 37.264  15.322 121.775   0.830 -0.203  0.520 -153.058     96.93   77.41 -147.57  173.97 -163.74 -142.72  -98.72 -157.45

DOCKED: MODEL       39
DOCKED: USER    Run = 39
DOCKED: USER    DPF = ligand_dock.biased.dpf
DOCKED: USER  
DOCKED: USER    Estimated Free Energy of Binding    =   -9.87 kcal/mol  [=(1)+(2)+(3)-(4)]
DOCKED: USER    Estimated Inhibition Constant, Ki   =   58.53 nM (nanomolar)  [Temperature = 298.15 K]
DOCKED: USER    
DOCKED: USER    (1) Final Intermolecular Energy     =  -12.25 kcal/mol
DOCKED: USER        vdW + Hbond + desolv Energy     =  -12.25 kcal/mol
DOCKED: USER        Electrostatic Energy            =   +0.00 kcal/mol
DOCKED: USER    (2) Final Total Internal Energy     =   -0.99 kcal/mol
DOCKED: USER    (3) Torsional Free Energy           =   +2.39 kcal/mol
DOCKED: USER    (4) Unbound System's Energy  [=(2)] =   -0.99 kcal/mol
DOCKED: USER    
DOCKED: USER    
DOCKED: USER    NEWDPF move ligand.dum.pdbqt
DOCKED: USER    NEWDPF about 0.003000 -0.142000 -0.069000
DOCKED: USER    NEWDPF tran0 37.264081 15.321590 121.774897
DOCKED: USER    NEWDPF quaternion0 0.806723 -0.197607 0.505850 -0.232950
DOCKED: USER    NEWDPF axisangle0 0.829544 -0.203197 0.520161 -153.058430
DOCKED: USER    NEWDPF quat0 0.829544 -0.203197 0.520161 -153.058430
DOCKED: USER    NEWDPF dihe0 96.93 77.41 -147.57 173.97 -163.74 -142.72 -98.72 -157.45 
DOCKED: USER  keepresnum = 1 
DOCKED: USER  
DOCKED: REMARK  Name = 
DOCKED: REMARK  8 active torsions:
DOCKED: REMARK  status: ('A' for Active; 'I' for Inactive)
DOCKED: REMARK    1  A    between atoms: C_2  and  C_5
DOCKED: REMARK    2  A    between atoms: C_5  and  C_6
DOCKED: REMARK    3  A    between atoms: C_6  and  C_7
DOCKED: REMARK    4  A    between atoms: C_7  and  C_8
DOCKED: REMARK    5  A    between atoms: C_8  and  C_9
DOCKED: REMARK    6  A    between atoms: C_9  and  C_10
DOCKED: REMARK    7  A    between atoms: C_10  and  C_11
DOCKED: REMARK    8  A    between atoms: N_12  and  C_13
DOCKED: REMARK                            x       y       z     vdW  Elec       q    Type
DOCKED: REMARK                         _______ _______ _______ _____ _____    ______ ____
DOCKED: USER                              x       y       z     vdW  Elec       q    Type
DOCKED: USER                           _______ _______ _______ _____ _____    ______ ____
DOCKED: ROOT
DOCKED: ATOM      1  C   UNL     1      37.449  16.067 121.466 -0.22 -0.00    +0.000 C 
DOCKED: ENDROOT
DOCKED: BRANCH   1   2
DOCKED: ATOM      2  C   UNL     1      37.343  15.819 119.991 -0.20 -0.00    +0.000 C 
DOCKED: ATOM      3  N   UNL     1      37.894  14.619 119.424 -0.25 -0.00    +0.000 N 
DOCKED: ATOM      4  O   UNL     1      36.769  16.671 119.261 -0.15 -0.00    +0.000 OA
DOCKED: ATOM      5  H   UNL     1      38.175  13.904 120.041 -0.04 -0.00    +0.000 HD
DOCKED: BRANCH   3   6
DOCKED: ATOM      6  C   UNL     1      38.061  14.397 118.014 -0.20 -0.00    +0.000 A 
DOCKED: ATOM      7  C   UNL     1      37.315  13.425 117.325 -0.37 -0.00    +0.000 A 
DOCKED: ATOM      8  C   UNL     1      37.488  13.259 115.949 -0.36 -0.00    +0.000 A 
DOCKED: ATOM      9  C   UNL     1      38.393  14.074 115.269 -0.37 -0.00    +0.000 A 
DOCKED: ATOM     10  N   UNL     1      39.091  15.027 115.943 -0.24 -0.00    +0.000 NA
DOCKED: ATOM     11  C   UNL     1      38.941  15.208 117.283 -0.17 -0.00    +0.000 A 
DOCKED: ATOM     12  CM  UNL     1      38.238  14.253 116.612 +0.00 -0.00    +0.000 AC
DOCKED: ENDBRANCH   3   6
DOCKED: ENDBRANCH   1   2
DOCKED: BRANCH   1  12
DOCKED: ATOM     13  C   UNL     1      36.440  15.198 122.227 -0.25 -0.00    +0.000 C 
DOCKED: BRANCH  12  13
DOCKED: ATOM     14  C   UNL     1      37.002  13.816 122.608 -0.50 -0.00    +0.000 C 
DOCKED: BRANCH  13  14
DOCKED: ATOM     15  C   UNL     1      36.320  13.146 123.814 -0.60 -0.00    +0.000 C 
DOCKED: BRANCH  14  15
DOCKED: ATOM     16  C   UNL     1      35.984  11.665 123.567 -0.68 -0.00    +0.000 C 
DOCKED: BRANCH  15  16
DOCKED: ATOM     17  C   UNL     1      36.383  11.206 122.159 -0.63 -0.00    +0.000 C 
DOCKED: BRANCH  16  18
DOCKED: ATOM     18  O   UNL     1      37.068   9.209 121.038 -2.73 -0.00    +0.000 OA
DOCKED: ATOM     19  C   UNL     1      36.800   9.765 122.138 -0.65 -0.00    +0.000 C 
DOCKED: ATOM     20  N   UNL     1      36.867   9.011 123.350 -0.60 -0.00    +0.000 N 
DOCKED: ATOM     21  O   UNL     1      37.230   7.707 123.328 -2.57 -0.00    +0.000 OA
DOCKED: ATOM     22  H   UNL     1      36.649   9.443 124.207 -0.47 -0.00    +0.000 HD
DOCKED: ENDBRANCH  16  18
DOCKED: ENDBRANCH  15  16
DOCKED: ENDBRANCH  14  15
DOCKED: ENDBRANCH  13  14
DOCKED: ENDBRANCH  12  13
DOCKED: ENDBRANCH   1  12
DOCKED: TORSDOF 8DOCKED: TER
DOCKED: ENDMDL
________________________________________________________________________________


	BEGINNING GENETIC ALGORITHM DOCKING 40 of 100
Run: 40 Seed: 840595278 1680699486 [ Run 40 of 100 GA/GALS ]
Beginning LAMARCKIAN GENETIC ALGORITHM (LGA), with a maximum of 2500000 energy evaluations.

Final-Value: -13.813


	FINAL GENETIC ALGORITHM DOCKED STATE
	_______________________________________________


Detailed state:  trans 36.913 12.174 121.545 quatxyzw 0.669721 0.704916 -0.224847 -0.063333 center 0.003 -0.142 -0.069 ntor 8 55.2937 -160.0913 179.1572 161.4305 -8.2439 -28.4612 46.6559 57.6381
State:	 36.913  12.174 121.545   0.671  0.706 -0.225 -172.738     55.29 -160.09  179.16  161.43   -8.24  -28.46   46.66   57.64

DOCKED: MODEL       40
DOCKED: USER    Run = 40
DOCKED: USER    DPF = ligand_dock.biased.dpf
DOCKED: USER  
DOCKED: USER    Estimated Free Energy of Binding    =  -10.63 kcal/mol  [=(1)+(2)+(3)-(4)]
DOCKED: USER    Estimated Inhibition Constant, Ki   =   16.21 nM (nanomolar)  [Temperature = 298.15 K]
DOCKED: USER    
DOCKED: USER    (1) Final Intermolecular Energy     =  -13.01 kcal/mol
DOCKED: USER        vdW + Hbond + desolv Energy     =  -13.01 kcal/mol
DOCKED: USER        Electrostatic Energy            =   +0.00 kcal/mol
DOCKED: USER    (2) Final Total Internal Energy     =   -0.80 kcal/mol
DOCKED: USER    (3) Torsional Free Energy           =   +2.39 kcal/mol
DOCKED: USER    (4) Unbound System's Energy  [=(2)] =   -0.80 kcal/mol
DOCKED: USER    
DOCKED: USER    
DOCKED: USER    NEWDPF move ligand.dum.pdbqt
DOCKED: USER    NEWDPF about 0.003000 -0.142000 -0.069000
DOCKED: USER    NEWDPF tran0 36.912561 12.173518 121.545211
DOCKED: USER    NEWDPF quaternion0 0.669721 0.704916 -0.224847 -0.063333
DOCKED: USER    NEWDPF axisangle0 0.671068 0.706334 -0.225300 -172.737728
DOCKED: USER    NEWDPF quat0 0.671068 0.706334 -0.225300 -172.737728
DOCKED: USER    NEWDPF dihe0 55.29 -160.09 179.16 161.43 -8.24 -28.46 46.66 57.64 
DOCKED: USER  keepresnum = 1 
DOCKED: USER  
DOCKED: REMARK  Name = 
DOCKED: REMARK  8 active torsions:
DOCKED: REMARK  status: ('A' for Active; 'I' for Inactive)
DOCKED: REMARK    1  A    between atoms: C_2  and  C_5
DOCKED: REMARK    2  A    between atoms: C_5  and  C_6
DOCKED: REMARK    3  A    between atoms: C_6  and  C_7
DOCKED: REMARK    4  A    between atoms: C_7  and  C_8
DOCKED: REMARK    5  A    between atoms: C_8  and  C_9
DOCKED: REMARK    6  A    between atoms: C_9  and  C_10
DOCKED: REMARK    7  A    between atoms: C_10  and  C_11
DOCKED: REMARK    8  A    between atoms: N_12  and  C_13
DOCKED: REMARK                            x       y       z     vdW  Elec       q    Type
DOCKED: REMARK                         _______ _______ _______ _____ _____    ______ ____
DOCKED: USER                              x       y       z     vdW  Elec       q    Type
DOCKED: USER                           _______ _______ _______ _____ _____    ______ ____
DOCKED: ROOT
DOCKED: ATOM      1  C   UNL     1      36.233  11.999 121.985 -0.48 -0.00    +0.000 C 
DOCKED: ENDROOT
DOCKED: BRANCH   1   2
DOCKED: ATOM      2  C   UNL     1      36.231  10.500 121.959 -0.56 -0.00    +0.000 C 
DOCKED: ATOM      3  N   UNL     1      35.292   9.771 122.765 -0.60 -0.00    +0.000 N 
DOCKED: ATOM      4  O   UNL     1      37.059   9.894 121.227 -1.97 -0.00    +0.000 OA
DOCKED: ATOM      5  H   UNL     1      34.555  10.272 123.183 -0.36 -0.00    +0.000 HD
DOCKED: BRANCH   3   6
DOCKED: ATOM      6  C   UNL     1      35.360   8.354 122.999 -0.61 -0.00    +0.000 A 
DOCKED: ATOM      7  C   UNL     1      34.202   7.571 123.141 -0.65 -0.00    +0.000 A 
DOCKED: ATOM      8  C   UNL     1      34.310   6.193 123.340 -0.67 -0.00    +0.000 A 
DOCKED: ATOM      9  C   UNL     1      35.575   5.605 123.380 -0.52 -0.00    +0.000 A 
DOCKED: ATOM     10  N   UNL     1      36.687   6.370 123.217 -1.06 -0.00    +0.000 NA
DOCKED: ATOM     11  C   UNL     1      36.608   7.713 123.022 -0.70 -0.00    +0.000 A 
DOCKED: ATOM     12  CM  UNL     1      35.490   6.951 123.183 +0.00 -0.00    +0.000 AC
DOCKED: ENDBRANCH   3   6
DOCKED: ENDBRANCH   1   2
DOCKED: BRANCH   1  12
DOCKED: ATOM     13  C   UNL     1      37.672  12.531 121.986 -0.38 -0.00    +0.000 C 
DOCKED: BRANCH  12  13
DOCKED: ATOM     14  C   UNL     1      37.958  13.494 123.153 -0.48 -0.00    +0.000 C 
DOCKED: BRANCH  13  14
DOCKED: ATOM     15  C   UNL     1      37.675  14.978 122.856 -0.41 -0.00    +0.000 C 
DOCKED: BRANCH  14  15
DOCKED: ATOM     16  C   UNL     1      38.682  15.595 121.870 -0.29 -0.00    +0.000 C 
DOCKED: BRANCH  15  16
DOCKED: ATOM     17  C   UNL     1      39.917  14.708 121.670 -0.35 -0.00    +0.000 C 
DOCKED: BRANCH  16  18
DOCKED: ATOM     18  O   UNL     1      41.588  14.098 123.267 -1.01 -0.00    +0.000 OA
DOCKED: ATOM     19  C   UNL     1      41.003  15.032 122.654 -0.52 -0.00    +0.000 C 
DOCKED: ATOM     20  N   UNL     1      41.357  16.390 122.922 -0.36 -0.00    +0.000 N 
DOCKED: ATOM     21  O   UNL     1      42.327  16.681 123.821 -1.02 -0.00    +0.000 OA
DOCKED: ATOM     22  H   UNL     1      40.894  17.119 122.450 +0.00 -0.00    +0.000 HD
DOCKED: ENDBRANCH  16  18
DOCKED: ENDBRANCH  15  16
DOCKED: ENDBRANCH  14  15
DOCKED: ENDBRANCH  13  14
DOCKED: ENDBRANCH  12  13
DOCKED: ENDBRANCH   1  12
DOCKED: TORSDOF 8DOCKED: TER
DOCKED: ENDMDL
________________________________________________________________________________


	BEGINNING GENETIC ALGORITHM DOCKING 41 of 100
Run: 41 Seed: 1923713617 93906634 [ Run 41 of 100 GA/GALS ]
Beginning LAMARCKIAN GENETIC ALGORITHM (LGA), with a maximum of 2500000 energy evaluations.

Final-Value: -12.232


	FINAL GENETIC ALGORITHM DOCKED STATE
	_______________________________________________


Detailed state:  trans 38.405 15.359 120.050 quatxyzw 0.872528 -0.136460 0.372377 -0.285321 center 0.003 -0.142 -0.069 ntor 8 -61.3220 180.0000 32.9307 29.8304 180.0000 179.4868 -170.8774 180.0000
State:	 38.405  15.359 120.050   0.910 -0.142  0.389 -146.844    -61.32  180.00   32.93   29.83  180.00  179.49 -170.88  180.00

DOCKED: MODEL       41
DOCKED: USER    Run = 41
DOCKED: USER    DPF = ligand_dock.biased.dpf
DOCKED: USER  
DOCKED: USER    Estimated Free Energy of Binding    =   -8.94 kcal/mol  [=(1)+(2)+(3)-(4)]
DOCKED: USER    Estimated Inhibition Constant, Ki   =  280.14 nM (nanomolar)  [Temperature = 298.15 K]
DOCKED: USER    
DOCKED: USER    (1) Final Intermolecular Energy     =  -11.33 kcal/mol
DOCKED: USER        vdW + Hbond + desolv Energy     =  -11.33 kcal/mol
DOCKED: USER        Electrostatic Energy            =   +0.00 kcal/mol
DOCKED: USER    (2) Final Total Internal Energy     =   -0.91 kcal/mol
DOCKED: USER    (3) Torsional Free Energy           =   +2.39 kcal/mol
DOCKED: USER    (4) Unbound System's Energy  [=(2)] =   -0.91 kcal/mol
DOCKED: USER    
DOCKED: USER    
DOCKED: USER    NEWDPF move ligand.dum.pdbqt
DOCKED: USER    NEWDPF about 0.003000 -0.142000 -0.069000
DOCKED: USER    NEWDPF tran0 38.404921 15.358662 120.049667
DOCKED: USER    NEWDPF quaternion0 0.872528 -0.136460 0.372377 -0.285321
DOCKED: USER    NEWDPF axisangle0 0.910371 -0.142378 0.388527 -146.843895
DOCKED: USER    NEWDPF quat0 0.910371 -0.142378 0.388527 -146.843895
DOCKED: USER    NEWDPF dihe0 -61.32 180.00 32.93 29.83 180.00 179.49 -170.88 180.00 
DOCKED: USER  keepresnum = 1 
DOCKED: USER  
DOCKED: REMARK  Name = 
DOCKED: REMARK  8 active torsions:
DOCKED: REMARK  status: ('A' for Active; 'I' for Inactive)
DOCKED: REMARK    1  A    between atoms: C_2  and  C_5
DOCKED: REMARK    2  A    between atoms: C_5  and  C_6
DOCKED: REMARK    3  A    between atoms: C_6  and  C_7
DOCKED: REMARK    4  A    between atoms: C_7  and  C_8
DOCKED: REMARK    5  A    between atoms: C_8  and  C_9
DOCKED: REMARK    6  A    between atoms: C_9  and  C_10
DOCKED: REMARK    7  A    between atoms: C_10  and  C_11
DOCKED: REMARK    8  A    between atoms: N_12  and  C_13
DOCKED: REMARK                            x       y       z     vdW  Elec       q    Type
DOCKED: REMARK                         _______ _______ _______ _____ _____    ______ ____
DOCKED: USER                              x       y       z     vdW  Elec       q    Type
DOCKED: USER                           _______ _______ _______ _____ _____    ______ ____
DOCKED: ROOT
DOCKED: ATOM      1  C   UNL     1      38.464  16.083 119.653 -0.16 -0.00    +0.000 C 
DOCKED: ENDROOT
DOCKED: BRANCH   1   2
DOCKED: ATOM      2  C   UNL     1      37.888  15.741 118.311 -0.17 -0.00    +0.000 C 
DOCKED: ATOM      3  N   UNL     1      38.567  14.808 117.456 -0.21 -0.00    +0.000 N 
DOCKED: ATOM      4  O   UNL     1      36.809  16.281 117.947 -0.14 -0.00    +0.000 OA
DOCKED: ATOM      5  H   UNL     1      39.303  14.280 117.842 -0.11 -0.00    +0.000 HD
DOCKED: BRANCH   3   6
DOCKED: ATOM      6  C   UNL     1      38.238  14.595 116.073 -0.26 -0.00    +0.000 A 
DOCKED: ATOM      7  C   UNL     1      38.458  15.583 115.099 -0.17 -0.00    +0.000 A 
DOCKED: ATOM      8  C   UNL     1      38.149  15.326 113.761 -0.17 -0.00    +0.000 A 
DOCKED: ATOM      9  C   UNL     1      37.637  14.078 113.404 -0.17 -0.00    +0.000 A 
DOCKED: ATOM     10  N   UNL     1      37.450  13.122 114.353 -0.39 -0.00    +0.000 NA
DOCKED: ATOM     11  C   UNL     1      37.743  13.348 115.662 -0.41 -0.00    +0.000 A 
DOCKED: ATOM     12  CM  UNL     1      37.933  14.309 114.715 +0.00 -0.00    +0.000 AC
DOCKED: ENDBRANCH   3   6
DOCKED: ENDBRANCH   1   2
DOCKED: BRANCH   1  12
DOCKED: ATOM     13  C   UNL     1      37.776  15.265 120.753 -0.26 -0.00    +0.000 C 
DOCKED: BRANCH  12  13
DOCKED: ATOM     14  C   UNL     1      37.004  14.050 120.207 -0.27 -0.00    +0.000 C 
DOCKED: BRANCH  13  14
DOCKED: ATOM     15  C   UNL     1      37.506  12.682 120.705 -0.51 -0.00    +0.000 C 
DOCKED: BRANCH  14  15
DOCKED: ATOM     16  C   UNL     1      36.448  11.913 121.514 -0.50 -0.00    +0.000 C 
DOCKED: BRANCH  15  16
DOCKED: ATOM     17  C   UNL     1      37.071  11.089 122.648 -0.59 -0.00    +0.000 C 
DOCKED: BRANCH  16  18
DOCKED: ATOM     18  O   UNL     1      36.760   9.207 121.206 -2.65 -0.00    +0.000 OA
DOCKED: ATOM     19  C   UNL     1      36.992   9.615 122.377 -0.62 -0.00    +0.000 C 
DOCKED: ATOM     20  N   UNL     1      37.150   8.673 123.440 -0.63 -0.00    +0.000 N 
DOCKED: ATOM     21  O   UNL     1      37.066   7.344 123.197 -2.36 -0.00    +0.000 OA
DOCKED: ATOM     22  H   UNL     1      37.323   8.992 124.355 -0.59 -0.00    +0.000 HD
DOCKED: ENDBRANCH  16  18
DOCKED: ENDBRANCH  15  16
DOCKED: ENDBRANCH  14  15
DOCKED: ENDBRANCH  13  14
DOCKED: ENDBRANCH  12  13
DOCKED: ENDBRANCH   1  12
DOCKED: TORSDOF 8DOCKED: TER
DOCKED: ENDMDL
________________________________________________________________________________


	BEGINNING GENETIC ALGORITHM DOCKING 42 of 100
Run: 42 Seed: 541595708 1667628593 [ Run 42 of 100 GA/GALS ]
Beginning LAMARCKIAN GENETIC ALGORITHM (LGA), with a maximum of 2500000 energy evaluations.

Final-Value: -12.947


	FINAL GENETIC ALGORITHM DOCKED STATE
	_______________________________________________


Detailed state:  trans 35.992 15.201 123.698 quatxyzw -0.275523 -0.163115 -0.922936 -0.213706 center 0.003 -0.142 -0.069 ntor 8 -124.4113 123.7468 59.4715 -149.8180 -40.8388 -34.0468 161.2426 -137.3950
State:	 35.992  15.201 123.698  -0.282 -0.167 -0.945 -155.321   -124.41  123.75   59.47 -149.82  -40.84  -34.05  161.24 -137.39

DOCKED: MODEL       42
DOCKED: USER    Run = 42
DOCKED: USER    DPF = ligand_dock.biased.dpf
DOCKED: USER  
DOCKED: USER    Estimated Free Energy of Binding    =   -9.70 kcal/mol  [=(1)+(2)+(3)-(4)]
DOCKED: USER    Estimated Inhibition Constant, Ki   =   77.58 nM (nanomolar)  [Temperature = 298.15 K]
DOCKED: USER    
DOCKED: USER    (1) Final Intermolecular Energy     =  -12.09 kcal/mol
DOCKED: USER        vdW + Hbond + desolv Energy     =  -12.09 kcal/mol
DOCKED: USER        Electrostatic Energy            =   +0.00 kcal/mol
DOCKED: USER    (2) Final Total Internal Energy     =   -0.86 kcal/mol
DOCKED: USER    (3) Torsional Free Energy           =   +2.39 kcal/mol
DOCKED: USER    (4) Unbound System's Energy  [=(2)] =   -0.86 kcal/mol
DOCKED: USER    
DOCKED: USER    
DOCKED: USER    NEWDPF move ligand.dum.pdbqt
DOCKED: USER    NEWDPF about 0.003000 -0.142000 -0.069000
DOCKED: USER    NEWDPF tran0 35.992429 15.201173 123.697572
DOCKED: USER    NEWDPF quaternion0 -0.275523 -0.163115 -0.922936 -0.213706
DOCKED: USER    NEWDPF axisangle0 -0.282039 -0.166972 -0.944762 -155.320802
DOCKED: USER    NEWDPF quat0 -0.282039 -0.166972 -0.944762 -155.320802
DOCKED: USER    NEWDPF dihe0 -124.41 123.75 59.47 -149.82 -40.84 -34.05 161.24 -137.39 
DOCKED: USER  keepresnum = 1 
DOCKED: USER  
DOCKED: REMARK  Name = 
DOCKED: REMARK  8 active torsions:
DOCKED: REMARK  status: ('A' for Active; 'I' for Inactive)
DOCKED: REMARK    1  A    between atoms: C_2  and  C_5
DOCKED: REMARK    2  A    between atoms: C_5  and  C_6
DOCKED: REMARK    3  A    between atoms: C_6  and  C_7
DOCKED: REMARK    4  A    between atoms: C_7  and  C_8
DOCKED: REMARK    5  A    between atoms: C_8  and  C_9
DOCKED: REMARK    6  A    between atoms: C_9  and  C_10
DOCKED: REMARK    7  A    between atoms: C_10  and  C_11
DOCKED: REMARK    8  A    between atoms: N_12  and  C_13
DOCKED: REMARK                            x       y       z     vdW  Elec       q    Type
DOCKED: REMARK                         _______ _______ _______ _____ _____    ______ ____
DOCKED: USER                              x       y       z     vdW  Elec       q    Type
DOCKED: USER                           _______ _______ _______ _____ _____    ______ ____
DOCKED: ROOT
DOCKED: ATOM      1  C   UNL     1      35.747  15.861 123.262 -0.42 -0.00    +0.000 C 
DOCKED: ENDROOT
DOCKED: BRANCH   1   2
DOCKED: ATOM      2  C   UNL     1      37.053  16.537 122.972 -0.28 -0.00    +0.000 C 
DOCKED: ATOM      3  N   UNL     1      38.190  16.292 123.815 -0.24 -0.00    +0.000 N 
DOCKED: ATOM      4  O   UNL     1      37.139  17.318 121.987 -0.16 -0.00    +0.000 OA
DOCKED: ATOM      5  H   UNL     1      38.134  15.550 124.461 +0.05 -0.00    +0.000 HD
DOCKED: BRANCH   3   6
DOCKED: ATOM      6  C   UNL     1      39.405  17.060 123.775 -0.16 -0.00    +0.000 A 
DOCKED: ATOM      7  C   UNL     1      39.621  18.149 124.636 -0.22 -0.00    +0.000 A 
DOCKED: ATOM      8  C   UNL     1      40.826  18.852 124.583 -0.21 -0.00    +0.000 A 
DOCKED: ATOM      9  C   UNL     1      41.812  18.453 123.681 -0.20 -0.00    +0.000 A 
DOCKED: ATOM     10  N   UNL     1      41.600  17.382 122.869 -0.29 -0.00    +0.000 NA
DOCKED: ATOM     11  C   UNL     1      40.436  16.682 122.902 -0.27 -0.00    +0.000 A 
DOCKED: ATOM     12  CM  UNL     1      40.643  17.753 123.718 +0.00 -0.00    +0.000 AC
DOCKED: ENDBRANCH   3   6
DOCKED: ENDBRANCH   1   2
DOCKED: BRANCH   1  12
DOCKED: ATOM     13  C   UNL     1      35.932  14.339 123.308 -0.49 -0.00    +0.000 C 
DOCKED: BRANCH  12  13
DOCKED: ATOM     14  C   UNL     1      37.308  13.884 122.789 -0.51 -0.00    +0.000 C 
DOCKED: BRANCH  13  14
DOCKED: ATOM     15  C   UNL     1      37.339  13.465 121.308 -0.45 -0.00    +0.000 C 
DOCKED: BRANCH  14  15
DOCKED: ATOM     16  C   UNL     1      37.372  11.939 121.116 -0.51 -0.00    +0.000 C 
DOCKED: BRANCH  15  16
DOCKED: ATOM     17  C   UNL     1      36.555  11.202 122.184 -0.64 -0.00    +0.000 C 
DOCKED: BRANCH  16  18
DOCKED: ATOM     18  O   UNL     1      36.896   9.090 121.117 -2.67 -0.00    +0.000 OA
DOCKED: ATOM     19  C   UNL     1      36.854   9.731 122.202 -0.64 -0.00    +0.000 C 
DOCKED: ATOM     20  N   UNL     1      37.063   9.049 123.439 -0.58 -0.00    +0.000 N 
DOCKED: ATOM     21  O   UNL     1      37.319   7.720 123.456 -2.63 -0.00    +0.000 OA
DOCKED: ATOM     22  H   UNL     1      37.021   9.549 124.287 -0.54 -0.00    +0.000 HD
DOCKED: ENDBRANCH  16  18
DOCKED: ENDBRANCH  15  16
DOCKED: ENDBRANCH  14  15
DOCKED: ENDBRANCH  13  14
DOCKED: ENDBRANCH  12  13
DOCKED: ENDBRANCH   1  12
DOCKED: TORSDOF 8DOCKED: TER
DOCKED: ENDMDL
________________________________________________________________________________


	BEGINNING GENETIC ALGORITHM DOCKING 43 of 100
Run: 43 Seed: 1011192627 1188114193 [ Run 43 of 100 GA/GALS ]
Beginning LAMARCKIAN GENETIC ALGORITHM (LGA), with a maximum of 2500000 energy evaluations.

Final-Value: -13.080


	FINAL GENETIC ALGORITHM DOCKED STATE
	_______________________________________________


Detailed state:  trans 37.375 15.605 120.433 quatxyzw -0.163762 0.025071 -0.985987 -0.019574 center 0.003 -0.142 -0.069 ntor 8 -168.7767 34.2971 -76.3919 -29.0446 -52.0754 -143.0775 -157.8200 -163.4477
State:	 37.375  15.605 120.433  -0.164  0.025 -0.986 -177.757   -168.78   34.30  -76.39  -29.04  -52.08 -143.08 -157.82 -163.45

DOCKED: MODEL       43
DOCKED: USER    Run = 43
DOCKED: USER    DPF = ligand_dock.biased.dpf
DOCKED: USER  
DOCKED: USER    Estimated Free Energy of Binding    =   -9.86 kcal/mol  [=(1)+(2)+(3)-(4)]
DOCKED: USER    Estimated Inhibition Constant, Ki   =   58.78 nM (nanomolar)  [Temperature = 298.15 K]
DOCKED: USER    
DOCKED: USER    (1) Final Intermolecular Energy     =  -12.25 kcal/mol
DOCKED: USER        vdW + Hbond + desolv Energy     =  -12.25 kcal/mol
DOCKED: USER        Electrostatic Energy            =   +0.00 kcal/mol
DOCKED: USER    (2) Final Total Internal Energy     =   -0.83 kcal/mol
DOCKED: USER    (3) Torsional Free Energy           =   +2.39 kcal/mol
DOCKED: USER    (4) Unbound System's Energy  [=(2)] =   -0.83 kcal/mol
DOCKED: USER    
DOCKED: USER    
DOCKED: USER    NEWDPF move ligand.dum.pdbqt
DOCKED: USER    NEWDPF about 0.003000 -0.142000 -0.069000
DOCKED: USER    NEWDPF tran0 37.375087 15.605076 120.433353
DOCKED: USER    NEWDPF quaternion0 -0.163762 0.025071 -0.985987 -0.019574
DOCKED: USER    NEWDPF axisangle0 -0.163794 0.025076 -0.986176 -177.756889
DOCKED: USER    NEWDPF quat0 -0.163794 0.025076 -0.986176 -177.756889
DOCKED: USER    NEWDPF dihe0 -168.78 34.30 -76.39 -29.04 -52.08 -143.08 -157.82 -163.45 
DOCKED: USER  keepresnum = 1 
DOCKED: USER  
DOCKED: REMARK  Name = 
DOCKED: REMARK  8 active torsions:
DOCKED: REMARK  status: ('A' for Active; 'I' for Inactive)
DOCKED: REMARK    1  A    between atoms: C_2  and  C_5
DOCKED: REMARK    2  A    between atoms: C_5  and  C_6
DOCKED: REMARK    3  A    between atoms: C_6  and  C_7
DOCKED: REMARK    4  A    between atoms: C_7  and  C_8
DOCKED: REMARK    5  A    between atoms: C_8  and  C_9
DOCKED: REMARK    6  A    between atoms: C_9  and  C_10
DOCKED: REMARK    7  A    between atoms: C_10  and  C_11
DOCKED: REMARK    8  A    between atoms: N_12  and  C_13
DOCKED: REMARK                            x       y       z     vdW  Elec       q    Type
DOCKED: REMARK                         _______ _______ _______ _____ _____    ______ ____
DOCKED: USER                              x       y       z     vdW  Elec       q    Type
DOCKED: USER                           _______ _______ _______ _____ _____    ______ ____
DOCKED: ROOT
DOCKED: ATOM      1  C   UNL     1      37.547  16.387 120.222 -0.16 -0.00    +0.000 C 
DOCKED: ENDROOT
DOCKED: BRANCH   1   2
DOCKED: ATOM      2  C   UNL     1      39.037  16.423 120.375 -0.15 -0.00    +0.000 C 
DOCKED: ATOM      3  N   UNL     1      39.647  15.922 121.576 -0.22 -0.00    +0.000 N 
DOCKED: ATOM      4  O   UNL     1      39.743  16.895 119.443 -0.10 -0.00    +0.000 OA
DOCKED: ATOM      5  H   UNL     1      39.085  15.405 122.198 -0.00 -0.00    +0.000 HD
DOCKED: BRANCH   3   6
DOCKED: ATOM      6  C   UNL     1      41.027  16.125 121.925 -0.29 -0.00    +0.000 A 
DOCKED: ATOM      7  C   UNL     1      42.054  16.025 120.972 -0.23 -0.00    +0.000 A 
DOCKED: ATOM      8  C   UNL     1      43.379  16.256 121.346 -0.27 -0.00    +0.000 A 
DOCKED: ATOM      9  C   UNL     1      43.667  16.602 122.667 -0.31 -0.00    +0.000 A 
DOCKED: ATOM     10  N   UNL     1      42.661  16.720 123.575 -0.93 -0.00    +0.000 NA
DOCKED: ATOM     11  C   UNL     1      41.363  16.499 123.235 -0.32 -0.00    +0.000 A 
DOCKED: ATOM     12  CM  UNL     1      42.367  16.381 122.321 +0.00 -0.00    +0.000 AC
DOCKED: ENDBRANCH   3   6
DOCKED: ENDBRANCH   1   2
DOCKED: BRANCH   1  12
DOCKED: ATOM     13  C   UNL     1      37.090  14.995 119.766 -0.26 -0.00    +0.000 C 
DOCKED: BRANCH  12  13
DOCKED: ATOM     14  C   UNL     1      38.014  13.867 120.259 -0.38 -0.00    +0.000 C 
DOCKED: BRANCH  13  14
DOCKED: ATOM     15  C   UNL     1      37.351  12.481 120.360 -0.51 -0.00    +0.000 C 
DOCKED: BRANCH  14  15
DOCKED: ATOM     16  C   UNL     1      37.255  11.966 121.807 -0.51 -0.00    +0.000 C 
DOCKED: BRANCH  15  16
DOCKED: ATOM     17  C   UNL     1      36.126  10.943 121.985 -0.57 -0.00    +0.000 C 
DOCKED: BRANCH  16  18
DOCKED: ATOM     18  O   UNL     1      36.787   8.846 121.046 -2.64 -0.00    +0.000 OA
DOCKED: ATOM     19  C   UNL     1      36.653   9.541 122.089 -0.69 -0.00    +0.000 C 
DOCKED: ATOM     20  N   UNL     1      36.976   8.981 123.364 -0.61 -0.00    +0.000 N 
DOCKED: ATOM     21  O   UNL     1      37.437   7.712 123.458 -2.60 -0.00    +0.000 OA
DOCKED: ATOM     22  H   UNL     1      36.862   9.522 124.179 -0.53 -0.00    +0.000 HD
DOCKED: ENDBRANCH  16  18
DOCKED: ENDBRANCH  15  16
DOCKED: ENDBRANCH  14  15
DOCKED: ENDBRANCH  13  14
DOCKED: ENDBRANCH  12  13
DOCKED: ENDBRANCH   1  12
DOCKED: TORSDOF 8DOCKED: TER
DOCKED: ENDMDL
________________________________________________________________________________


	BEGINNING GENETIC ALGORITHM DOCKING 44 of 100
Run: 44 Seed: 761043137 1540752714 [ Run 44 of 100 GA/GALS ]
Beginning LAMARCKIAN GENETIC ALGORITHM (LGA), with a maximum of 2500000 energy evaluations.

Final-Value: -13.778


	FINAL GENETIC ALGORITHM DOCKED STATE
	_______________________________________________


Detailed state:  trans 36.298 16.135 123.561 quatxyzw -0.116382 -0.524514 -0.843410 -0.000089 center 0.003 -0.142 -0.069 ntor 8 177.2257 -180.0000 -111.8240 9.1956 -180.0000 -60.3386 120.6129 3.8132
State:	 36.298  16.135 123.561  -0.116 -0.525 -0.843 -179.990    177.23 -180.00 -111.82    9.20 -180.00  -60.34  120.61    3.81

DOCKED: MODEL       44
DOCKED: USER    Run = 44
DOCKED: USER    DPF = ligand_dock.biased.dpf
DOCKED: USER  
DOCKED: USER    Estimated Free Energy of Binding    =  -10.39 kcal/mol  [=(1)+(2)+(3)-(4)]
DOCKED: USER    Estimated Inhibition Constant, Ki   =   24.20 nM (nanomolar)  [Temperature = 298.15 K]
DOCKED: USER    
DOCKED: USER    (1) Final Intermolecular Energy     =  -12.78 kcal/mol
DOCKED: USER        vdW + Hbond + desolv Energy     =  -12.78 kcal/mol
DOCKED: USER        Electrostatic Energy            =   +0.00 kcal/mol
DOCKED: USER    (2) Final Total Internal Energy     =   -1.00 kcal/mol
DOCKED: USER    (3) Torsional Free Energy           =   +2.39 kcal/mol
DOCKED: USER    (4) Unbound System's Energy  [=(2)] =   -1.00 kcal/mol
DOCKED: USER    
DOCKED: USER    
DOCKED: USER    NEWDPF move ligand.dum.pdbqt
DOCKED: USER    NEWDPF about 0.003000 -0.142000 -0.069000
DOCKED: USER    NEWDPF tran0 36.298306 16.134768 123.561011
DOCKED: USER    NEWDPF quaternion0 -0.116382 -0.524514 -0.843410 -0.000089
DOCKED: USER    NEWDPF axisangle0 -0.116382 -0.524514 -0.843410 -179.989757
DOCKED: USER    NEWDPF quat0 -0.116382 -0.524514 -0.843410 -179.989757
DOCKED: USER    NEWDPF dihe0 177.23 -180.00 -111.82 9.20 -180.00 -60.34 120.61 3.81 
DOCKED: USER  keepresnum = 1 
DOCKED: USER  
DOCKED: REMARK  Name = 
DOCKED: REMARK  8 active torsions:
DOCKED: REMARK  status: ('A' for Active; 'I' for Inactive)
DOCKED: REMARK    1  A    between atoms: C_2  and  C_5
DOCKED: REMARK    2  A    between atoms: C_5  and  C_6
DOCKED: REMARK    3  A    between atoms: C_6  and  C_7
DOCKED: REMARK    4  A    between atoms: C_7  and  C_8
DOCKED: REMARK    5  A    between atoms: C_8  and  C_9
DOCKED: REMARK    6  A    between atoms: C_9  and  C_10
DOCKED: REMARK    7  A    between atoms: C_10  and  C_11
DOCKED: REMARK    8  A    between atoms: N_12  and  C_13
DOCKED: REMARK                            x       y       z     vdW  Elec       q    Type
DOCKED: REMARK                         _______ _______ _______ _____ _____    ______ ____
DOCKED: USER                              x       y       z     vdW  Elec       q    Type
DOCKED: USER                           _______ _______ _______ _____ _____    ______ ____
DOCKED: ROOT
DOCKED: ATOM      1  C   UNL     1      36.430  16.288 122.758 -0.32 -0.00    +0.000 C 
DOCKED: ENDROOT
DOCKED: BRANCH   1   2
DOCKED: ATOM      2  C   UNL     1      37.878  16.675 122.756 -0.24 -0.00    +0.000 C 
DOCKED: ATOM      3  N   UNL     1      38.829  15.891 122.019 -0.23 -0.00    +0.000 N 
DOCKED: ATOM      4  O   UNL     1      38.247  17.690 123.406 -0.20 -0.00    +0.000 OA
DOCKED: ATOM      5  H   UNL     1      38.483  15.218 121.389 +0.00 -0.00    +0.000 HD
DOCKED: BRANCH   3   6
DOCKED: ATOM      6  C   UNL     1      40.255  16.027 122.141 -0.28 -0.00    +0.000 A 
DOCKED: ATOM      7  C   UNL     1      40.952  17.088 121.538 -0.15 -0.00    +0.000 A 
DOCKED: ATOM      8  C   UNL     1      42.334  17.199 121.704 -0.20 -0.00    +0.000 A 
DOCKED: ATOM      9  C   UNL     1      43.008  16.259 122.484 -0.37 -0.00    +0.000 A 
DOCKED: ATOM     10  N   UNL     1      42.318  15.251 123.083 -1.00 +0.00    +0.000 NA
DOCKED: ATOM     11  C   UNL     1      40.973  15.120 122.936 -0.35 -0.00    +0.000 A 
DOCKED: ATOM     12  CM  UNL     1      41.658  16.133 122.336 +0.00 -0.00    +0.000 AC
DOCKED: ENDBRANCH   3   6
DOCKED: ENDBRANCH   1   2
DOCKED: BRANCH   1  12
DOCKED: ATOM     13  C   UNL     1      36.159  15.242 123.846 -0.46 -0.00    +0.000 C 
DOCKED: BRANCH  12  13
DOCKED: ATOM     14  C   UNL     1      37.116  14.038 123.777 -0.30 -0.00    +0.000 C 
DOCKED: BRANCH  13  14
DOCKED: ATOM     15  C   UNL     1      36.431  12.671 123.599 -0.65 -0.00    +0.000 C 
DOCKED: BRANCH  14  15
DOCKED: ATOM     16  C   UNL     1      36.822  11.969 122.287 -0.61 -0.00    +0.000 C 
DOCKED: BRANCH  15  16
DOCKED: ATOM     17  C   UNL     1      35.892  10.795 121.957 -0.51 -0.00    +0.000 C 
DOCKED: BRANCH  16  18
DOCKED: ATOM     18  O   UNL     1      36.946   8.834 121.084 -2.66 -0.00    +0.000 OA
DOCKED: ATOM     19  C   UNL     1      36.585   9.472 122.110 -0.69 -0.00    +0.000 C 
DOCKED: ATOM     20  N   UNL     1      36.812   8.919 123.408 -0.59 -0.00    +0.000 N 
DOCKED: ATOM     21  O   UNL     1      37.424   7.720 123.545 -2.55 -0.00    +0.000 OA
DOCKED: ATOM     22  H   UNL     1      36.521   9.413 124.208 -0.42 -0.00    +0.000 HD
DOCKED: ENDBRANCH  16  18
DOCKED: ENDBRANCH  15  16
DOCKED: ENDBRANCH  14  15
DOCKED: ENDBRANCH  13  14
DOCKED: ENDBRANCH  12  13
DOCKED: ENDBRANCH   1  12
DOCKED: TORSDOF 8DOCKED: TER
DOCKED: ENDMDL
________________________________________________________________________________


	BEGINNING GENETIC ALGORITHM DOCKING 45 of 100
Run: 45 Seed: 90644335 1502868050 [ Run 45 of 100 GA/GALS ]
Beginning LAMARCKIAN GENETIC ALGORITHM (LGA), with a maximum of 2500000 energy evaluations.

Final-Value: -13.214


	FINAL GENETIC ALGORITHM DOCKED STATE
	_______________________________________________


Detailed state:  trans 36.497 11.384 122.979 quatxyzw -0.002073 -0.451434 0.396307 -0.799464 center 0.003 -0.142 -0.069 ntor 8 149.7525 166.8755 -79.9279 8.6895 -2.9505 -51.6079 17.9894 180.0000
State:	 36.497  11.384 122.979  -0.003 -0.751  0.660 -73.842    149.75  166.88  -79.93    8.69   -2.95  -51.61   17.99  180.00

DOCKED: MODEL       45
DOCKED: USER    Run = 45
DOCKED: USER    DPF = ligand_dock.biased.dpf
DOCKED: USER  
DOCKED: USER    Estimated Free Energy of Binding    =  -10.11 kcal/mol  [=(1)+(2)+(3)-(4)]
DOCKED: USER    Estimated Inhibition Constant, Ki   =   39.05 nM (nanomolar)  [Temperature = 298.15 K]
DOCKED: USER    
DOCKED: USER    (1) Final Intermolecular Energy     =  -12.49 kcal/mol
DOCKED: USER        vdW + Hbond + desolv Energy     =  -12.49 kcal/mol
DOCKED: USER        Electrostatic Energy            =   +0.00 kcal/mol
DOCKED: USER    (2) Final Total Internal Energy     =   -0.72 kcal/mol
DOCKED: USER    (3) Torsional Free Energy           =   +2.39 kcal/mol
DOCKED: USER    (4) Unbound System's Energy  [=(2)] =   -0.72 kcal/mol
DOCKED: USER    
DOCKED: USER    
DOCKED: USER    NEWDPF move ligand.dum.pdbqt
DOCKED: USER    NEWDPF about 0.003000 -0.142000 -0.069000
DOCKED: USER    NEWDPF tran0 36.496999 11.384498 122.979481
DOCKED: USER    NEWDPF quaternion0 -0.002073 -0.451434 0.396307 -0.799464
DOCKED: USER    NEWDPF axisangle0 -0.003451 -0.751497 0.659728 -73.842053
DOCKED: USER    NEWDPF quat0 -0.003451 -0.751497 0.659728 -73.842053
DOCKED: USER    NEWDPF dihe0 149.75 166.88 -79.93 8.69 -2.95 -51.61 17.99 180.00 
DOCKED: USER  keepresnum = 1 
DOCKED: USER  
DOCKED: REMARK  Name = 
DOCKED: REMARK  8 active torsions:
DOCKED: REMARK  status: ('A' for Active; 'I' for Inactive)
DOCKED: REMARK    1  A    between atoms: C_2  and  C_5
DOCKED: REMARK    2  A    between atoms: C_5  and  C_6
DOCKED: REMARK    3  A    between atoms: C_6  and  C_7
DOCKED: REMARK    4  A    between atoms: C_7  and  C_8
DOCKED: REMARK    5  A    between atoms: C_8  and  C_9
DOCKED: REMARK    6  A    between atoms: C_9  and  C_10
DOCKED: REMARK    7  A    between atoms: C_10  and  C_11
DOCKED: REMARK    8  A    between atoms: N_12  and  C_13
DOCKED: REMARK                            x       y       z     vdW  Elec       q    Type
DOCKED: REMARK                         _______ _______ _______ _____ _____    ______ ____
DOCKED: USER                              x       y       z     vdW  Elec       q    Type
DOCKED: USER                           _______ _______ _______ _____ _____    ______ ____
DOCKED: ROOT
DOCKED: ATOM      1  C   UNL     1      37.034  10.755 122.957 -0.61 -0.00    +0.000 C 
DOCKED: ENDROOT
DOCKED: BRANCH   1   2
DOCKED: ATOM      2  C   UNL     1      36.201   9.668 122.347 -0.69 -0.00    +0.000 C 
DOCKED: ATOM      3  N   UNL     1      35.067   9.147 123.059 -0.59 -0.00    +0.000 N 
DOCKED: ATOM      4  O   UNL     1      36.508   9.220 121.209 -2.40 +0.00    +0.000 OA
DOCKED: ATOM      5  H   UNL     1      34.758   9.637 123.856 -0.51 -0.00    +0.000 HD
DOCKED: BRANCH   3   6
DOCKED: ATOM      6  C   UNL     1      34.354   7.957 122.682 -0.63 -0.00    +0.000 A 
DOCKED: ATOM      7  C   UNL     1      33.992   7.703 121.348 -0.56 -0.00    +0.000 A 
DOCKED: ATOM      8  C   UNL     1      33.323   6.523 121.019 -0.34 -0.00    +0.000 A 
DOCKED: ATOM      9  C   UNL     1      33.035   5.597 122.022 -0.45 -0.00    +0.000 A 
DOCKED: ATOM     10  N   UNL     1      33.412   5.843 123.305 -0.50 -0.00    +0.000 NA
DOCKED: ATOM     11  C   UNL     1      34.064   6.985 123.651 -0.65 -0.00    +0.000 A 
DOCKED: ATOM     12  CM  UNL     1      33.690   6.743 122.363 +0.00 -0.00    +0.000 AC
DOCKED: ENDBRANCH   3   6
DOCKED: ENDBRANCH   1   2
DOCKED: BRANCH   1  12
DOCKED: ATOM     13  C   UNL     1      36.622  12.121 122.396 -0.61 -0.00    +0.000 C 
DOCKED: BRANCH  12  13
DOCKED: ATOM     14  C   UNL     1      37.755  13.162 122.452 -0.49 -0.00    +0.000 C 
DOCKED: BRANCH  13  14
DOCKED: ATOM     15  C   UNL     1      37.516  14.334 123.421 -0.43 -0.00    +0.000 C 
DOCKED: BRANCH  14  15
DOCKED: ATOM     16  C   UNL     1      36.333  15.225 123.005 -0.42 -0.00    +0.000 C 
DOCKED: BRANCH  15  16
DOCKED: ATOM     17  C   UNL     1      36.310  16.553 123.772 -0.35 -0.00    +0.000 C 
DOCKED: BRANCH  16  18
DOCKED: ATOM     18  O   UNL     1      34.407  17.853 124.410 -0.40 -0.00    +0.000 OA
DOCKED: ATOM     19  C   UNL     1      35.015  16.753 124.505 -0.44 -0.00    +0.000 C 
DOCKED: ATOM     20  N   UNL     1      34.484  15.716 125.332 -0.48 -0.00    +0.000 N 
DOCKED: ATOM     21  O   UNL     1      33.324  15.902 126.005 -0.89 -0.00    +0.000 OA
DOCKED: ATOM     22  H   UNL     1      34.964  14.860 125.414 -0.05 -0.00    +0.000 HD
DOCKED: ENDBRANCH  16  18
DOCKED: ENDBRANCH  15  16
DOCKED: ENDBRANCH  14  15
DOCKED: ENDBRANCH  13  14
DOCKED: ENDBRANCH  12  13
DOCKED: ENDBRANCH   1  12
DOCKED: TORSDOF 8DOCKED: TER
DOCKED: ENDMDL
________________________________________________________________________________


	BEGINNING GENETIC ALGORITHM DOCKING 46 of 100
Run: 46 Seed: 1265875692 1198661917 [ Run 46 of 100 GA/GALS ]
Beginning LAMARCKIAN GENETIC ALGORITHM (LGA), with a maximum of 2500000 energy evaluations.

Final-Value: -13.594


	FINAL GENETIC ALGORITHM DOCKED STATE
	_______________________________________________


Detailed state:  trans 38.708 15.194 122.318 quatxyzw 0.846032 -0.339923 -0.410700 -0.002727 center 0.003 -0.142 -0.069 ntor 8 141.3311 73.5629 -98.5024 72.4176 -35.4263 -52.3900 -94.2386 -65.2704
State:	 38.708  15.194 122.318   0.846 -0.340 -0.411 -179.687    141.33   73.56  -98.50   72.42  -35.43  -52.39  -94.24  -65.27

DOCKED: MODEL       46
DOCKED: USER    Run = 46
DOCKED: USER    DPF = ligand_dock.biased.dpf
DOCKED: USER  
DOCKED: USER    Estimated Free Energy of Binding    =  -10.20 kcal/mol  [=(1)+(2)+(3)-(4)]
DOCKED: USER    Estimated Inhibition Constant, Ki   =   33.46 nM (nanomolar)  [Temperature = 298.15 K]
DOCKED: USER    
DOCKED: USER    (1) Final Intermolecular Energy     =  -12.58 kcal/mol
DOCKED: USER        vdW + Hbond + desolv Energy     =  -12.58 kcal/mol
DOCKED: USER        Electrostatic Energy            =   +0.00 kcal/mol
DOCKED: USER    (2) Final Total Internal Energy     =   -1.01 kcal/mol
DOCKED: USER    (3) Torsional Free Energy           =   +2.39 kcal/mol
DOCKED: USER    (4) Unbound System's Energy  [=(2)] =   -1.01 kcal/mol
DOCKED: USER    
DOCKED: USER    
DOCKED: USER    NEWDPF move ligand.dum.pdbqt
DOCKED: USER    NEWDPF about 0.003000 -0.142000 -0.069000
DOCKED: USER    NEWDPF tran0 38.708153 15.193669 122.318072
DOCKED: USER    NEWDPF quaternion0 0.846032 -0.339923 -0.410700 -0.002727
DOCKED: USER    NEWDPF axisangle0 0.846035 -0.339924 -0.410702 -179.687460
DOCKED: USER    NEWDPF quat0 0.846035 -0.339924 -0.410702 -179.687460
DOCKED: USER    NEWDPF dihe0 141.33 73.56 -98.50 72.42 -35.43 -52.39 -94.24 -65.27 
DOCKED: USER  keepresnum = 1 
DOCKED: USER  
DOCKED: REMARK  Name = 
DOCKED: REMARK  8 active torsions:
DOCKED: REMARK  status: ('A' for Active; 'I' for Inactive)
DOCKED: REMARK    1  A    between atoms: C_2  and  C_5
DOCKED: REMARK    2  A    between atoms: C_5  and  C_6
DOCKED: REMARK    3  A    between atoms: C_6  and  C_7
DOCKED: REMARK    4  A    between atoms: C_7  and  C_8
DOCKED: REMARK    5  A    between atoms: C_8  and  C_9
DOCKED: REMARK    6  A    between atoms: C_9  and  C_10
DOCKED: REMARK    7  A    between atoms: C_10  and  C_11
DOCKED: REMARK    8  A    between atoms: N_12  and  C_13
DOCKED: REMARK                            x       y       z     vdW  Elec       q    Type
DOCKED: REMARK                         _______ _______ _______ _____ _____    ______ ____
DOCKED: USER                              x       y       z     vdW  Elec       q    Type
DOCKED: USER                           _______ _______ _______ _____ _____    ______ ____
DOCKED: ROOT
DOCKED: ATOM      1  C   UNL     1      39.154  15.886 122.405 -0.31 -0.00    +0.000 C 
DOCKED: ENDROOT
DOCKED: BRANCH   1   2
DOCKED: ATOM      2  C   UNL     1      38.130  16.843 122.934 -0.24 -0.00    +0.000 C 
DOCKED: ATOM      3  N   UNL     1      37.295  16.462 124.040 -0.22 -0.00    +0.000 N 
DOCKED: ATOM      4  O   UNL     1      38.010  17.978 122.399 -0.12 -0.00    +0.000 OA
DOCKED: ATOM      5  H   UNL     1      37.534  15.647 124.538 -0.01 -0.00    +0.000 HD
DOCKED: BRANCH   3   6
DOCKED: ATOM      6  C   UNL     1      36.135  17.196 124.466 -0.23 -0.00    +0.000 A 
DOCKED: ATOM      7  C   UNL     1      36.229  18.509 124.958 -0.19 -0.00    +0.000 A 
DOCKED: ATOM      8  C   UNL     1      35.075  19.197 125.336 -0.21 -0.00    +0.000 A 
DOCKED: ATOM      9  C   UNL     1      33.833  18.575 125.205 -0.28 -0.00    +0.000 A 
DOCKED: ATOM     10  N   UNL     1      33.753  17.313 124.705 -0.38 -0.00    +0.000 NA
DOCKED: ATOM     11  C   UNL     1      34.862  16.622 124.330 -0.42 -0.00    +0.000 A 
DOCKED: ATOM     12  CM  UNL     1      34.948  17.887 124.829 -0.46 -0.00    +0.000 AC
DOCKED: ENDBRANCH   3   6
DOCKED: ENDBRANCH   1   2
DOCKED: BRANCH   1  12
DOCKED: ATOM     13  C   UNL     1      38.865  14.465 122.903 -0.36 -0.00    +0.000 C 
DOCKED: BRANCH  12  13
DOCKED: ATOM     14  C   UNL     1      38.012  13.643 121.919 -0.46 -0.00    +0.000 C 
DOCKED: BRANCH  13  14
DOCKED: ATOM     15  C   UNL     1      36.605  13.276 122.426 -0.48 -0.00    +0.000 C 
DOCKED: BRANCH  14  15
DOCKED: ATOM     16  C   UNL     1      36.530  11.855 123.011 -0.68 -0.00    +0.000 C 
DOCKED: BRANCH  15  16
DOCKED: ATOM     17  C   UNL     1      35.876  10.862 122.042 -0.54 -0.00    +0.000 C 
DOCKED: BRANCH  16  18
DOCKED: ATOM     18  O   UNL     1      36.698   8.842 121.062 -2.62 -0.00    +0.000 OA
DOCKED: ATOM     19  C   UNL     1      36.513   9.505 122.119 -0.68 -0.00    +0.000 C 
DOCKED: ATOM     20  N   UNL     1      36.882   8.948 123.382 -0.60 -0.00    +0.000 N 
DOCKED: ATOM     21  O   UNL     1      37.442   7.717 123.452 -2.60 -0.00    +0.000 OA
DOCKED: ATOM     22  H   UNL     1      36.728   9.462 124.207 -0.50 -0.00    +0.000 HD
DOCKED: ENDBRANCH  16  18
DOCKED: ENDBRANCH  15  16
DOCKED: ENDBRANCH  14  15
DOCKED: ENDBRANCH  13  14
DOCKED: ENDBRANCH  12  13
DOCKED: ENDBRANCH   1  12
DOCKED: TORSDOF 8DOCKED: TER
DOCKED: ENDMDL
________________________________________________________________________________


	BEGINNING GENETIC ALGORITHM DOCKING 47 of 100
Run: 47 Seed: 611070689 786319465 [ Run 47 of 100 GA/GALS ]
Beginning LAMARCKIAN GENETIC ALGORITHM (LGA), with a maximum of 2500000 energy evaluations.

Final-Value: -13.954


	FINAL GENETIC ALGORITHM DOCKED STATE
	_______________________________________________


Detailed state:  trans 36.238 15.616 120.970 quatxyzw -0.582390 0.055400 0.797014 0.150071 center 0.003 -0.142 -0.069 ntor 8 -138.1358 173.6253 -7.2979 87.2581 0.1509 -110.5235 177.6064 -154.1852
State:	 36.238  15.616 120.970  -0.589  0.056  0.806 162.738   -138.14  173.63   -7.30   87.26    0.15 -110.52  177.61 -154.19

DOCKED: MODEL       47
DOCKED: USER    Run = 47
DOCKED: USER    DPF = ligand_dock.biased.dpf
DOCKED: USER  
DOCKED: USER    Estimated Free Energy of Binding    =  -10.74 kcal/mol  [=(1)+(2)+(3)-(4)]
DOCKED: USER    Estimated Inhibition Constant, Ki   =   13.50 nM (nanomolar)  [Temperature = 298.15 K]
DOCKED: USER    
DOCKED: USER    (1) Final Intermolecular Energy     =  -13.12 kcal/mol
DOCKED: USER        vdW + Hbond + desolv Energy     =  -13.12 kcal/mol
DOCKED: USER        Electrostatic Energy            =   +0.00 kcal/mol
DOCKED: USER    (2) Final Total Internal Energy     =   -0.83 kcal/mol
DOCKED: USER    (3) Torsional Free Energy           =   +2.39 kcal/mol
DOCKED: USER    (4) Unbound System's Energy  [=(2)] =   -0.83 kcal/mol
DOCKED: USER    
DOCKED: USER    
DOCKED: USER    NEWDPF move ligand.dum.pdbqt
DOCKED: USER    NEWDPF about 0.003000 -0.142000 -0.069000
DOCKED: USER    NEWDPF tran0 36.237892 15.616206 120.970251
DOCKED: USER    NEWDPF quaternion0 -0.582390 0.055400 0.797014 0.150071
DOCKED: USER    NEWDPF axisangle0 -0.589061 0.056035 0.806144 162.737871
DOCKED: USER    NEWDPF quat0 -0.589061 0.056035 0.806144 162.737871
DOCKED: USER    NEWDPF dihe0 -138.14 173.63 -7.30 87.26 0.15 -110.52 177.61 -154.19 
DOCKED: USER  keepresnum = 1 
DOCKED: USER  
DOCKED: REMARK  Name = 
DOCKED: REMARK  8 active torsions:
DOCKED: REMARK  status: ('A' for Active; 'I' for Inactive)
DOCKED: REMARK    1  A    between atoms: C_2  and  C_5
DOCKED: REMARK    2  A    between atoms: C_5  and  C_6
DOCKED: REMARK    3  A    between atoms: C_6  and  C_7
DOCKED: REMARK    4  A    between atoms: C_7  and  C_8
DOCKED: REMARK    5  A    between atoms: C_8  and  C_9
DOCKED: REMARK    6  A    between atoms: C_9  and  C_10
DOCKED: REMARK    7  A    between atoms: C_10  and  C_11
DOCKED: REMARK    8  A    between atoms: N_12  and  C_13
DOCKED: REMARK                            x       y       z     vdW  Elec       q    Type
DOCKED: REMARK                         _______ _______ _______ _____ _____    ______ ____
DOCKED: USER                              x       y       z     vdW  Elec       q    Type
DOCKED: USER                           _______ _______ _______ _____ _____    ______ ____
DOCKED: ROOT
DOCKED: ATOM      1  C   UNL     1      36.347  16.437 120.957 -0.19 -0.00    +0.000 C 
DOCKED: ENDROOT
DOCKED: BRANCH   1   2
DOCKED: ATOM      2  C   UNL     1      36.132  16.795 122.396 -0.28 -0.00    +0.000 C 
DOCKED: ATOM      3  N   UNL     1      35.095  16.147 123.150 -0.39 -0.00    +0.000 N 
DOCKED: ATOM      4  O   UNL     1      36.868  17.667 122.932 -0.19 -0.00    +0.000 OA
DOCKED: ATOM      5  H   UNL     1      34.662  15.356 122.754 -0.02 -0.00    +0.000 HD
DOCKED: BRANCH   3   6
DOCKED: ATOM      6  C   UNL     1      34.649  16.579 124.447 -0.44 -0.00    +0.000 A 
DOCKED: ATOM      7  C   UNL     1      34.744  17.921 124.852 -0.32 -0.00    +0.000 A 
DOCKED: ATOM      8  C   UNL     1      34.275  18.305 126.110 -0.29 -0.00    +0.000 A 
DOCKED: ATOM      9  C   UNL     1      33.701  17.348 126.948 -0.34 -0.00    +0.000 A 
DOCKED: ATOM     10  N   UNL     1      33.594  16.057 126.534 -0.93 -0.00    +0.000 NA
DOCKED: ATOM     11  C   UNL     1      34.043  15.659 125.315 -0.37 -0.00    +0.000 A 
DOCKED: ATOM     12  CM  UNL     1      34.152  16.954 125.723 -0.15 -0.00    +0.000 AC
DOCKED: ENDBRANCH   3   6
DOCKED: ENDBRANCH   1   2
DOCKED: BRANCH   1  12
DOCKED: ATOM     13  C   UNL     1      36.985  15.047 120.842 -0.21 -0.00    +0.000 C 
DOCKED: BRANCH  12  13
DOCKED: ATOM     14  C   UNL     1      37.119  14.332 122.199 -0.42 -0.00    +0.000 C 
DOCKED: BRANCH  13  14
DOCKED: ATOM     15  C   UNL     1      37.929  13.023 122.168 -0.36 -0.00    +0.000 C 
DOCKED: BRANCH  14  15
DOCKED: ATOM     16  C   UNL     1      37.295  11.946 121.270 -0.51 -0.00    +0.000 C 
DOCKED: BRANCH  15  16
DOCKED: ATOM     17  C   UNL     1      36.275  11.086 122.027 -0.61 -0.00    +0.000 C 
DOCKED: BRANCH  16  18
DOCKED: ATOM     18  O   UNL     1      36.887   8.992 121.048 -2.66 -0.00    +0.000 OA
DOCKED: ATOM     19  C   UNL     1      36.705   9.650 122.109 -0.68 -0.00    +0.000 C 
DOCKED: ATOM     20  N   UNL     1      36.880   9.017 123.378 -0.59 -0.00    +0.000 N 
DOCKED: ATOM     21  O   UNL     1      37.254   7.718 123.451 -2.65 -0.00    +0.000 OA
DOCKED: ATOM     22  H   UNL     1      36.728   9.529 124.205 -0.50 -0.00    +0.000 HD
DOCKED: ENDBRANCH  16  18
DOCKED: ENDBRANCH  15  16
DOCKED: ENDBRANCH  14  15
DOCKED: ENDBRANCH  13  14
DOCKED: ENDBRANCH  12  13
DOCKED: ENDBRANCH   1  12
DOCKED: TORSDOF 8DOCKED: TER
DOCKED: ENDMDL
________________________________________________________________________________


	BEGINNING GENETIC ALGORITHM DOCKING 48 of 100
Run: 48 Seed: 1803472230 440721766 [ Run 48 of 100 GA/GALS ]
Beginning LAMARCKIAN GENETIC ALGORITHM (LGA), with a maximum of 2500000 energy evaluations.

Final-Value: -13.728


	FINAL GENETIC ALGORITHM DOCKED STATE
	_______________________________________________


Detailed state:  trans 37.754 14.148 121.605 quatxyzw 0.654983 -0.368936 0.425384 -0.503916 center 0.003 -0.142 -0.069 ntor 8 25.4015 125.0090 -125.7560 156.3634 -176.5723 -74.1236 -73.5025 13.2077
State:	 37.754  14.148 121.605   0.758 -0.427  0.492 -119.481     25.40  125.01 -125.76  156.36 -176.57  -74.12  -73.50   13.21

DOCKED: MODEL       48
DOCKED: USER    Run = 48
DOCKED: USER    DPF = ligand_dock.biased.dpf
DOCKED: USER  
DOCKED: USER    Estimated Free Energy of Binding    =  -10.24 kcal/mol  [=(1)+(2)+(3)-(4)]
DOCKED: USER    Estimated Inhibition Constant, Ki   =   30.93 nM (nanomolar)  [Temperature = 298.15 K]
DOCKED: USER    
DOCKED: USER    (1) Final Intermolecular Energy     =  -12.63 kcal/mol
DOCKED: USER        vdW + Hbond + desolv Energy     =  -12.63 kcal/mol
DOCKED: USER        Electrostatic Energy            =   +0.00 kcal/mol
DOCKED: USER    (2) Final Total Internal Energy     =   -1.10 kcal/mol
DOCKED: USER    (3) Torsional Free Energy           =   +2.39 kcal/mol
DOCKED: USER    (4) Unbound System's Energy  [=(2)] =   -1.10 kcal/mol
DOCKED: USER    
DOCKED: USER    
DOCKED: USER    NEWDPF move ligand.dum.pdbqt
DOCKED: USER    NEWDPF about 0.003000 -0.142000 -0.069000
DOCKED: USER    NEWDPF tran0 37.754447 14.147747 121.604680
DOCKED: USER    NEWDPF quaternion0 0.654983 -0.368936 0.425384 -0.503916
DOCKED: USER    NEWDPF axisangle0 0.758300 -0.427132 0.492484 -119.481133
DOCKED: USER    NEWDPF quat0 0.758300 -0.427132 0.492484 -119.481133
DOCKED: USER    NEWDPF dihe0 25.40 125.01 -125.76 156.36 -176.57 -74.12 -73.50 13.21 
DOCKED: USER  keepresnum = 1 
DOCKED: USER  
DOCKED: REMARK  Name = 
DOCKED: REMARK  8 active torsions:
DOCKED: REMARK  status: ('A' for Active; 'I' for Inactive)
DOCKED: REMARK    1  A    between atoms: C_2  and  C_5
DOCKED: REMARK    2  A    between atoms: C_5  and  C_6
DOCKED: REMARK    3  A    between atoms: C_6  and  C_7
DOCKED: REMARK    4  A    between atoms: C_7  and  C_8
DOCKED: REMARK    5  A    between atoms: C_8  and  C_9
DOCKED: REMARK    6  A    between atoms: C_9  and  C_10
DOCKED: REMARK    7  A    between atoms: C_10  and  C_11
DOCKED: REMARK    8  A    between atoms: N_12  and  C_13
DOCKED: REMARK                            x       y       z     vdW  Elec       q    Type
DOCKED: REMARK                         _______ _______ _______ _____ _____    ______ ____
DOCKED: USER                              x       y       z     vdW  Elec       q    Type
DOCKED: USER                           _______ _______ _______ _____ _____    ______ ____
DOCKED: ROOT
DOCKED: ATOM      1  C   UNL     1      38.320  14.503 121.116 -0.36 -0.00    +0.000 C 
DOCKED: ENDROOT
DOCKED: BRANCH   1   2
DOCKED: ATOM      2  C   UNL     1      37.936  13.968 119.769 -0.34 -0.00    +0.000 C 
DOCKED: ATOM      3  N   UNL     1      37.721  14.871 118.673 -0.22 -0.00    +0.000 N 
DOCKED: ATOM      4  O   UNL     1      37.806  12.724 119.613 -0.50 -0.00    +0.000 OA
DOCKED: ATOM      5  H   UNL     1      38.001  15.809 118.786 +0.00 -0.00    +0.000 HD
DOCKED: BRANCH   3   6
DOCKED: ATOM      6  C   UNL     1      37.125  14.492 117.421 -0.28 -0.00    +0.000 A 
DOCKED: ATOM      7  C   UNL     1      37.899  14.046 116.337 -0.33 -0.00    +0.000 A 
DOCKED: ATOM      8  C   UNL     1      37.279  13.661 115.147 -0.35 -0.00    +0.000 A 
DOCKED: ATOM      9  C   UNL     1      35.887  13.711 115.053 -0.25 -0.00    +0.000 A 
DOCKED: ATOM     10  N   UNL     1      35.147  14.122 116.117 -0.30 -0.00    +0.000 NA
DOCKED: ATOM     11  C   UNL     1      35.728  14.502 117.286 -0.30 -0.00    +0.000 A 
DOCKED: ATOM     12  CM  UNL     1      36.474  14.089 116.224 +0.00 -0.00    +0.000 AC
DOCKED: ENDBRANCH   3   6
DOCKED: ENDBRANCH   1   2
DOCKED: BRANCH   1  12
DOCKED: ATOM     13  C   UNL     1      37.075  14.682 121.993 -0.36 -0.00    +0.000 C 
DOCKED: BRANCH  12  13
DOCKED: ATOM     14  C   UNL     1      37.057  13.742 123.212 -0.54 -0.00    +0.000 C 
DOCKED: BRANCH  13  14
DOCKED: ATOM     15  C   UNL     1      35.707  13.051 123.481 -0.52 -0.00    +0.000 C 
DOCKED: BRANCH  14  15
DOCKED: ATOM     16  C   UNL     1      35.804  11.515 123.457 -0.65 -0.00    +0.000 C 
DOCKED: BRANCH  15  16
DOCKED: ATOM     17  C   UNL     1      37.065  11.024 122.735 -0.60 -0.00    +0.000 C 
DOCKED: BRANCH  16  18
DOCKED: ATOM     18  O   UNL     1      36.737   9.216 121.205 -2.64 -0.00    +0.000 OA
DOCKED: ATOM     19  C   UNL     1      36.980   9.565 122.392 -0.63 -0.00    +0.000 C 
DOCKED: ATOM     20  N   UNL     1      37.145   8.572 123.406 -0.66 -0.00    +0.000 N 
DOCKED: ATOM     21  O   UNL     1      37.055   7.256 123.099 -2.23 -0.00    +0.000 OA
DOCKED: ATOM     22  H   UNL     1      37.327   8.845 124.334 -0.58 -0.00    +0.000 HD
DOCKED: ENDBRANCH  16  18
DOCKED: ENDBRANCH  15  16
DOCKED: ENDBRANCH  14  15
DOCKED: ENDBRANCH  13  14
DOCKED: ENDBRANCH  12  13
DOCKED: ENDBRANCH   1  12
DOCKED: TORSDOF 8DOCKED: TER
DOCKED: ENDMDL
________________________________________________________________________________


	BEGINNING GENETIC ALGORITHM DOCKING 49 of 100
Run: 49 Seed: 449313854 2087024993 [ Run 49 of 100 GA/GALS ]
Beginning LAMARCKIAN GENETIC ALGORITHM (LGA), with a maximum of 2500000 energy evaluations.

Final-Value: -12.917


	FINAL GENETIC ALGORITHM DOCKED STATE
	_______________________________________________


Detailed state:  trans 36.956 13.599 122.008 quatxyzw -0.574796 -0.668647 0.471063 -0.024906 center 0.003 -0.142 -0.069 ntor 8 -177.7348 -17.7284 97.4331 -70.0400 -163.8481 -47.5001 -64.2814 -169.5586
State:	 36.956  13.599 122.008  -0.575 -0.669  0.471 -177.146   -177.73  -17.73   97.43  -70.04 -163.85  -47.50  -64.28 -169.56

DOCKED: MODEL       49
DOCKED: USER    Run = 49
DOCKED: USER    DPF = ligand_dock.biased.dpf
DOCKED: USER  
DOCKED: USER    Estimated Free Energy of Binding    =   -9.62 kcal/mol  [=(1)+(2)+(3)-(4)]
DOCKED: USER    Estimated Inhibition Constant, Ki   =   89.28 nM (nanomolar)  [Temperature = 298.15 K]
DOCKED: USER    
DOCKED: USER    (1) Final Intermolecular Energy     =  -12.00 kcal/mol
DOCKED: USER        vdW + Hbond + desolv Energy     =  -12.00 kcal/mol
DOCKED: USER        Electrostatic Energy            =   +0.00 kcal/mol
DOCKED: USER    (2) Final Total Internal Energy     =   -0.91 kcal/mol
DOCKED: USER    (3) Torsional Free Energy           =   +2.39 kcal/mol
DOCKED: USER    (4) Unbound System's Energy  [=(2)] =   -0.91 kcal/mol
DOCKED: USER    
DOCKED: USER    
DOCKED: USER    NEWDPF move ligand.dum.pdbqt
DOCKED: USER    NEWDPF about 0.003000 -0.142000 -0.069000
DOCKED: USER    NEWDPF tran0 36.955757 13.599099 122.007947
DOCKED: USER    NEWDPF quaternion0 -0.574796 -0.668647 0.471063 -0.024906
DOCKED: USER    NEWDPF axisangle0 -0.574975 -0.668854 0.471210 -177.145666
DOCKED: USER    NEWDPF quat0 -0.574975 -0.668854 0.471210 -177.145666
DOCKED: USER    NEWDPF dihe0 -177.73 -17.73 97.43 -70.04 -163.85 -47.50 -64.28 -169.56 
DOCKED: USER  keepresnum = 1 
DOCKED: USER  
DOCKED: REMARK  Name = 
DOCKED: REMARK  8 active torsions:
DOCKED: REMARK  status: ('A' for Active; 'I' for Inactive)
DOCKED: REMARK    1  A    between atoms: C_2  and  C_5
DOCKED: REMARK    2  A    between atoms: C_5  and  C_6
DOCKED: REMARK    3  A    between atoms: C_6  and  C_7
DOCKED: REMARK    4  A    between atoms: C_7  and  C_8
DOCKED: REMARK    5  A    between atoms: C_8  and  C_9
DOCKED: REMARK    6  A    between atoms: C_9  and  C_10
DOCKED: REMARK    7  A    between atoms: C_10  and  C_11
DOCKED: REMARK    8  A    between atoms: N_12  and  C_13
DOCKED: REMARK                            x       y       z     vdW  Elec       q    Type
DOCKED: REMARK                         _______ _______ _______ _____ _____    ______ ____
DOCKED: USER                              x       y       z     vdW  Elec       q    Type
DOCKED: USER                           _______ _______ _______ _____ _____    ______ ____
DOCKED: ROOT
DOCKED: ATOM      1  C   UNL     1      36.580  13.574 122.745 -0.51 -0.00    +0.000 C 
DOCKED: ENDROOT
DOCKED: BRANCH   1   2
DOCKED: ATOM      2  C   UNL     1      36.681  12.119 123.089 -0.67 -0.00    +0.000 C 
DOCKED: ATOM      3  N   UNL     1      36.174  11.130 122.179 -0.58 -0.00    +0.000 N 
DOCKED: ATOM      4  O   UNL     1      37.212  11.778 124.180 -0.73 -0.00    +0.000 OA
DOCKED: ATOM      5  H   UNL     1      35.929  11.421 121.270 -0.24 -0.00    +0.000 HD
DOCKED: BRANCH   3   6
DOCKED: ATOM      6  C   UNL     1      36.002   9.742 122.510 -0.60 -0.00    +0.000 A 
DOCKED: ATOM      7  C   UNL     1      34.815   9.051 122.215 -0.57 -0.00    +0.000 A 
DOCKED: ATOM      8  C   UNL     1      34.698   7.696 122.529 -0.62 -0.00    +0.000 A 
DOCKED: ATOM      9  C   UNL     1      35.775   7.035 123.121 -0.68 -0.00    +0.000 A 
DOCKED: ATOM     10  N   UNL     1      36.929   7.709 123.380 -2.45 -0.00    +0.000 NA
DOCKED: ATOM     11  C   UNL     1      37.066   9.029 123.084 -0.55 -0.00    +0.000 A 
DOCKED: ATOM     12  CM  UNL     1      35.909   8.359 122.821 +0.00 -0.00    +0.000 AC
DOCKED: ENDBRANCH   3   6
DOCKED: ENDBRANCH   1   2
DOCKED: BRANCH   1  12
DOCKED: ATOM     13  C   UNL     1      37.803  14.017 121.933 -0.45 -0.00    +0.000 C 
DOCKED: BRANCH  12  13
DOCKED: ATOM     14  C   UNL     1      37.431  14.640 120.575 -0.31 -0.00    +0.000 C 
DOCKED: BRANCH  13  14
DOCKED: ATOM     15  C   UNL     1      37.768  13.773 119.348 -0.35 -0.00    +0.000 C 
DOCKED: BRANCH  14  15
DOCKED: ATOM     16  C   UNL     1      36.615  13.697 118.332 -0.41 -0.00    +0.000 C 
DOCKED: BRANCH  15  16
DOCKED: ATOM     17  C   UNL     1      36.976  14.355 116.994 -0.33 -0.00    +0.000 C 
DOCKED: BRANCH  16  18
DOCKED: ATOM     18  O   UNL     1      39.329  14.486 116.590 -0.30 -0.00    +0.000 OA
DOCKED: ATOM     19  C   UNL     1      38.266  13.825 116.439 -0.39 -0.00    +0.000 C 
DOCKED: ATOM     20  N   UNL     1      38.292  12.592 115.718 -0.51 -0.00    +0.000 N 
DOCKED: ATOM     21  O   UNL     1      39.453  12.121 115.205 -0.76 -0.00    +0.000 OA
DOCKED: ATOM     22  H   UNL     1      37.460  12.081 115.593 +0.02 -0.00    +0.000 HD
DOCKED: ENDBRANCH  16  18
DOCKED: ENDBRANCH  15  16
DOCKED: ENDBRANCH  14  15
DOCKED: ENDBRANCH  13  14
DOCKED: ENDBRANCH  12  13
DOCKED: ENDBRANCH   1  12
DOCKED: TORSDOF 8DOCKED: TER
DOCKED: ENDMDL
________________________________________________________________________________


	BEGINNING GENETIC ALGORITHM DOCKING 50 of 100
Run: 50 Seed: 1978312766 1887409724 [ Run 50 of 100 GA/GALS ]
Beginning LAMARCKIAN GENETIC ALGORITHM (LGA), with a maximum of 2500000 energy evaluations.

Final-Value: -13.396


	FINAL GENETIC ALGORITHM DOCKED STATE
	_______________________________________________


Detailed state:  trans 36.804 11.930 121.241 quatxyzw -0.588747 -0.656680 0.421894 -0.210129 center 0.003 -0.142 -0.069 ntor 8 163.0091 180.0000 176.5384 -174.6321 -120.7601 171.4174 -83.1173 94.3274
State:	 36.804  11.930 121.241  -0.602 -0.672  0.432 -155.740    163.01  180.00  176.54 -174.63 -120.76  171.42  -83.12   94.33

DOCKED: MODEL       50
DOCKED: USER    Run = 50
DOCKED: USER    DPF = ligand_dock.biased.dpf
DOCKED: USER  
DOCKED: USER    Estimated Free Energy of Binding    =  -10.19 kcal/mol  [=(1)+(2)+(3)-(4)]
DOCKED: USER    Estimated Inhibition Constant, Ki   =   33.93 nM (nanomolar)  [Temperature = 298.15 K]
DOCKED: USER    
DOCKED: USER    (1) Final Intermolecular Energy     =  -12.58 kcal/mol
DOCKED: USER        vdW + Hbond + desolv Energy     =  -12.58 kcal/mol
DOCKED: USER        Electrostatic Energy            =   +0.00 kcal/mol
DOCKED: USER    (2) Final Total Internal Energy     =   -0.82 kcal/mol
DOCKED: USER    (3) Torsional Free Energy           =   +2.39 kcal/mol
DOCKED: USER    (4) Unbound System's Energy  [=(2)] =   -0.82 kcal/mol
DOCKED: USER    
DOCKED: USER    
DOCKED: USER    NEWDPF move ligand.dum.pdbqt
DOCKED: USER    NEWDPF about 0.003000 -0.142000 -0.069000
DOCKED: USER    NEWDPF tran0 36.804384 11.930215 121.241238
DOCKED: USER    NEWDPF quaternion0 -0.588747 -0.656680 0.421894 -0.210129
DOCKED: USER    NEWDPF axisangle0 -0.602192 -0.671676 0.431528 -155.740191
DOCKED: USER    NEWDPF quat0 -0.602192 -0.671676 0.431528 -155.740191
DOCKED: USER    NEWDPF dihe0 163.01 180.00 176.54 -174.63 -120.76 171.42 -83.12 94.33 
DOCKED: USER  keepresnum = 1 
DOCKED: USER  
DOCKED: REMARK  Name = 
DOCKED: REMARK  8 active torsions:
DOCKED: REMARK  status: ('A' for Active; 'I' for Inactive)
DOCKED: REMARK    1  A    between atoms: C_2  and  C_5
DOCKED: REMARK    2  A    between atoms: C_5  and  C_6
DOCKED: REMARK    3  A    between atoms: C_6  and  C_7
DOCKED: REMARK    4  A    between atoms: C_7  and  C_8
DOCKED: REMARK    5  A    between atoms: C_8  and  C_9
DOCKED: REMARK    6  A    between atoms: C_9  and  C_10
DOCKED: REMARK    7  A    between atoms: C_10  and  C_11
DOCKED: REMARK    8  A    between atoms: N_12  and  C_13
DOCKED: REMARK                            x       y       z     vdW  Elec       q    Type
DOCKED: REMARK                         _______ _______ _______ _____ _____    ______ ____
DOCKED: USER                              x       y       z     vdW  Elec       q    Type
DOCKED: USER                           _______ _______ _______ _____ _____    ______ ____
DOCKED: ROOT
DOCKED: ATOM      1  C   UNL     1      36.546  11.769 122.011 -0.60 -0.00    +0.000 C 
DOCKED: ENDROOT
DOCKED: BRANCH   1   2
DOCKED: ATOM      2  C   UNL     1      36.360  10.282 121.963 -0.58 -0.00    +0.000 C 
DOCKED: ATOM      3  N   UNL     1      35.384   9.653 122.809 -0.60 -0.00    +0.000 N 
DOCKED: ATOM      4  O   UNL     1      37.067   9.596 121.177 -2.41 -0.00    +0.000 OA
DOCKED: ATOM      5  H   UNL     1      34.736  10.231 123.275 -0.37 -0.00    +0.000 HD
DOCKED: BRANCH   3   6
DOCKED: ATOM      6  C   UNL     1      35.291   8.234 123.018 -0.61 -0.00    +0.000 A 
DOCKED: ATOM      7  C   UNL     1      34.062   7.601 123.266 -0.63 -0.00    +0.000 A 
DOCKED: ATOM      8  C   UNL     1      34.012   6.216 123.437 -0.66 -0.00    +0.000 A 
DOCKED: ATOM      9  C   UNL     1      35.188   5.471 123.342 -0.53 -0.00    +0.000 A 
DOCKED: ATOM     10  N   UNL     1      36.368   6.093 123.077 -1.00 -0.00    +0.000 NA
DOCKED: ATOM     11  C   UNL     1      36.443   7.440 122.908 -0.70 -0.00    +0.000 A 
DOCKED: ATOM     12  CM  UNL     1      35.258   6.822 123.171 +0.00 -0.00    +0.000 AC
DOCKED: ENDBRANCH   3   6
DOCKED: ENDBRANCH   1   2
DOCKED: BRANCH   1  12
DOCKED: ATOM     13  C   UNL     1      37.704  12.191 121.100 -0.42 -0.00    +0.000 C 
DOCKED: BRANCH  12  13
DOCKED: ATOM     14  C   UNL     1      37.232  12.842 119.786 -0.47 -0.00    +0.000 C 
DOCKED: BRANCH  13  14
DOCKED: ATOM     15  C   UNL     1      37.512  14.351 119.670 -0.33 -0.00    +0.000 C 
DOCKED: BRANCH  14  15
DOCKED: ATOM     16  C   UNL     1      37.088  14.937 118.312 -0.26 -0.00    +0.000 C 
DOCKED: BRANCH  15  16
DOCKED: ATOM     17  C   UNL     1      36.262  13.945 117.484 -0.38 -0.00    +0.000 C 
DOCKED: BRANCH  16  18
DOCKED: ATOM     18  O   UNL     1      36.584  13.656 115.132 -0.37 -0.00    +0.000 OA
DOCKED: ATOM     19  C   UNL     1      37.024  13.439 116.294 -0.38 -0.00    +0.000 C 
DOCKED: ATOM     20  N   UNL     1      38.228  12.689 116.469 -0.44 -0.00    +0.000 N 
DOCKED: ATOM     21  O   UNL     1      38.907  12.220 115.396 -0.74 -0.00    +0.000 OA
DOCKED: ATOM     22  H   UNL     1      38.566  12.512 117.377 -0.12 -0.00    +0.000 HD
DOCKED: ENDBRANCH  16  18
DOCKED: ENDBRANCH  15  16
DOCKED: ENDBRANCH  14  15
DOCKED: ENDBRANCH  13  14
DOCKED: ENDBRANCH  12  13
DOCKED: ENDBRANCH   1  12
DOCKED: TORSDOF 8DOCKED: TER
DOCKED: ENDMDL
________________________________________________________________________________


	BEGINNING GENETIC ALGORITHM DOCKING 51 of 100
Run: 51 Seed: 322950162 1530651668 [ Run 51 of 100 GA/GALS ]
Beginning LAMARCKIAN GENETIC ALGORITHM (LGA), with a maximum of 2500000 energy evaluations.

Final-Value: -14.425


	FINAL GENETIC ALGORITHM DOCKED STATE
	_______________________________________________


Detailed state:  trans 36.919 15.526 121.361 quatxyzw -0.678877 0.115081 0.722614 0.060920 center 0.003 -0.142 -0.069 ntor 8 -174.9136 175.3574 10.2053 28.8960 96.8086 -159.7274 145.2499 -143.7163
State:	 36.919  15.526 121.361  -0.680  0.115  0.724 173.015   -174.91  175.36   10.21   28.90   96.81 -159.73  145.25 -143.72

DOCKED: MODEL       51
DOCKED: USER    Run = 51
DOCKED: USER    DPF = ligand_dock.biased.dpf
DOCKED: USER  
DOCKED: USER    Estimated Free Energy of Binding    =  -11.02 kcal/mol  [=(1)+(2)+(3)-(4)]
DOCKED: USER    Estimated Inhibition Constant, Ki   =    8.34 nM (nanomolar)  [Temperature = 298.15 K]
DOCKED: USER    
DOCKED: USER    (1) Final Intermolecular Energy     =  -13.41 kcal/mol
DOCKED: USER        vdW + Hbond + desolv Energy     =  -13.41 kcal/mol
DOCKED: USER        Electrostatic Energy            =   +0.00 kcal/mol
DOCKED: USER    (2) Final Total Internal Energy     =   -1.02 kcal/mol
DOCKED: USER    (3) Torsional Free Energy           =   +2.39 kcal/mol
DOCKED: USER    (4) Unbound System's Energy  [=(2)] =   -1.02 kcal/mol
DOCKED: USER    
DOCKED: USER    
DOCKED: USER    NEWDPF move ligand.dum.pdbqt
DOCKED: USER    NEWDPF about 0.003000 -0.142000 -0.069000
DOCKED: USER    NEWDPF tran0 36.919258 15.526256 121.361482
DOCKED: USER    NEWDPF quaternion0 -0.678877 0.115081 0.722614 0.060920
DOCKED: USER    NEWDPF axisangle0 -0.680140 0.115296 0.723959 173.014738
DOCKED: USER    NEWDPF quat0 -0.680140 0.115296 0.723959 173.014738
DOCKED: USER    NEWDPF dihe0 -174.91 175.36 10.21 28.90 96.81 -159.73 145.25 -143.72 
DOCKED: USER  keepresnum = 1 
DOCKED: USER  
DOCKED: REMARK  Name = 
DOCKED: REMARK  8 active torsions:
DOCKED: REMARK  status: ('A' for Active; 'I' for Inactive)
DOCKED: REMARK    1  A    between atoms: C_2  and  C_5
DOCKED: REMARK    2  A    between atoms: C_5  and  C_6
DOCKED: REMARK    3  A    between atoms: C_6  and  C_7
DOCKED: REMARK    4  A    between atoms: C_7  and  C_8
DOCKED: REMARK    5  A    between atoms: C_8  and  C_9
DOCKED: REMARK    6  A    between atoms: C_9  and  C_10
DOCKED: REMARK    7  A    between atoms: C_10  and  C_11
DOCKED: REMARK    8  A    between atoms: N_12  and  C_13
DOCKED: REMARK                            x       y       z     vdW  Elec       q    Type
DOCKED: REMARK                         _______ _______ _______ _____ _____    ______ ____
DOCKED: USER                              x       y       z     vdW  Elec       q    Type
DOCKED: USER                           _______ _______ _______ _____ _____    ______ ____
DOCKED: ROOT
DOCKED: ATOM      1  C   UNL     1      37.167  16.314 121.420 -0.21 -0.00    +0.000 C 
DOCKED: ENDROOT
DOCKED: BRANCH   1   2
DOCKED: ATOM      2  C   UNL     1      36.641  16.698 122.770 -0.28 -0.00    +0.000 C 
DOCKED: ATOM      3  N   UNL     1      35.455  16.068 123.283 -0.38 -0.00    +0.000 N 
DOCKED: ATOM      4  O   UNL     1      37.247  17.574 123.443 -0.22 -0.00    +0.000 OA
DOCKED: ATOM      5  H   UNL     1      35.115  15.273 122.813 -0.02 -0.00    +0.000 HD
DOCKED: BRANCH   3   6
DOCKED: ATOM      6  C   UNL     1      34.737  16.525 124.441 -0.44 -0.00    +0.000 A 
DOCKED: ATOM      7  C   UNL     1      34.444  17.885 124.643 -0.34 -0.00    +0.000 A 
DOCKED: ATOM      8  C   UNL     1      33.720  18.284 125.768 -0.32 -0.00    +0.000 A 
DOCKED: ATOM      9  C   UNL     1      33.280  17.321 126.676 -0.30 -0.00    +0.000 A 
DOCKED: ATOM     10  N   UNL     1      33.549  16.006 126.458 -0.94 -0.00    +0.000 NA
DOCKED: ATOM     11  C   UNL     1      34.252  15.592 125.370 -0.30 -0.00    +0.000 A 
DOCKED: ATOM     12  CM  UNL     1      33.984  16.911 125.583 -0.14 -0.00    +0.000 AC
DOCKED: ENDBRANCH   3   6
DOCKED: ENDBRANCH   1   2
DOCKED: BRANCH   1  12
DOCKED: ATOM     13  C   UNL     1      37.564  14.832 121.404 -0.33 -0.00    +0.000 C 
DOCKED: BRANCH  12  13
DOCKED: ATOM     14  C   UNL     1      37.963  14.300 122.792 -0.47 -0.00    +0.000 C 
DOCKED: BRANCH  13  14
DOCKED: ATOM     15  C   UNL     1      37.441  12.890 123.124 -0.59 -0.00    +0.000 C 
DOCKED: BRANCH  14  15
DOCKED: ATOM     16  C   UNL     1      37.384  11.966 121.894 -0.46 -0.00    +0.000 C 
DOCKED: BRANCH  15  16
DOCKED: ATOM     17  C   UNL     1      36.210  10.983 121.962 -0.59 -0.00    +0.000 C 
DOCKED: BRANCH  16  18
DOCKED: ATOM     18  O   UNL     1      36.756   8.845 121.040 -2.63 -0.00    +0.000 OA
DOCKED: ATOM     19  C   UNL     1      36.677   9.561 122.076 -0.69 -0.00    +0.000 C 
DOCKED: ATOM     20  N   UNL     1      37.004   9.005 123.351 -0.61 -0.00    +0.000 N 
DOCKED: ATOM     21  O   UNL     1      37.411   7.718 123.455 -2.61 -0.00    +0.000 OA
DOCKED: ATOM     22  H   UNL     1      36.933   9.562 124.160 -0.54 -0.00    +0.000 HD
DOCKED: ENDBRANCH  16  18
DOCKED: ENDBRANCH  15  16
DOCKED: ENDBRANCH  14  15
DOCKED: ENDBRANCH  13  14
DOCKED: ENDBRANCH  12  13
DOCKED: ENDBRANCH   1  12
DOCKED: TORSDOF 8DOCKED: TER
DOCKED: ENDMDL
________________________________________________________________________________


	BEGINNING GENETIC ALGORITHM DOCKING 52 of 100
Run: 52 Seed: 1367098455 1397228970 [ Run 52 of 100 GA/GALS ]
Beginning LAMARCKIAN GENETIC ALGORITHM (LGA), with a maximum of 2500000 energy evaluations.

Final-Value: -12.523


	FINAL GENETIC ALGORITHM DOCKED STATE
	_______________________________________________


Detailed state:  trans 36.770 11.755 122.053 quatxyzw 0.226892 0.487128 -0.456006 0.709426 center 0.003 -0.142 -0.069 ntor 8 119.3060 -178.8471 -112.9917 -176.5878 155.2611 174.5981 -45.7549 175.0228
State:	 36.770  11.755 122.053   0.322  0.691 -0.647 89.624    119.31 -178.85 -112.99 -176.59  155.26  174.60  -45.75  175.02

DOCKED: MODEL       52
DOCKED: USER    Run = 52
DOCKED: USER    DPF = ligand_dock.biased.dpf
DOCKED: USER  
DOCKED: USER    Estimated Free Energy of Binding    =   -9.12 kcal/mol  [=(1)+(2)+(3)-(4)]
DOCKED: USER    Estimated Inhibition Constant, Ki   =  205.92 nM (nanomolar)  [Temperature = 298.15 K]
DOCKED: USER    
DOCKED: USER    (1) Final Intermolecular Energy     =  -11.51 kcal/mol
DOCKED: USER        vdW + Hbond + desolv Energy     =  -11.51 kcal/mol
DOCKED: USER        Electrostatic Energy            =   +0.00 kcal/mol
DOCKED: USER    (2) Final Total Internal Energy     =   -1.02 kcal/mol
DOCKED: USER    (3) Torsional Free Energy           =   +2.39 kcal/mol
DOCKED: USER    (4) Unbound System's Energy  [=(2)] =   -1.02 kcal/mol
DOCKED: USER    
DOCKED: USER    
DOCKED: USER    NEWDPF move ligand.dum.pdbqt
DOCKED: USER    NEWDPF about 0.003000 -0.142000 -0.069000
DOCKED: USER    NEWDPF tran0 36.770191 11.755390 122.053105
DOCKED: USER    NEWDPF quaternion0 0.226892 0.487128 -0.456006 0.709426
DOCKED: USER    NEWDPF axisangle0 0.321933 0.691177 -0.647019 89.623509
DOCKED: USER    NEWDPF quat0 0.321933 0.691177 -0.647019 89.623509
DOCKED: USER    NEWDPF dihe0 119.31 -178.85 -112.99 -176.59 155.26 174.60 -45.75 175.02 
DOCKED: USER  keepresnum = 1 
DOCKED: USER  
DOCKED: REMARK  Name = 
DOCKED: REMARK  8 active torsions:
DOCKED: REMARK  status: ('A' for Active; 'I' for Inactive)
DOCKED: REMARK    1  A    between atoms: C_2  and  C_5
DOCKED: REMARK    2  A    between atoms: C_5  and  C_6
DOCKED: REMARK    3  A    between atoms: C_6  and  C_7
DOCKED: REMARK    4  A    between atoms: C_7  and  C_8
DOCKED: REMARK    5  A    between atoms: C_8  and  C_9
DOCKED: REMARK    6  A    between atoms: C_9  and  C_10
DOCKED: REMARK    7  A    between atoms: C_10  and  C_11
DOCKED: REMARK    8  A    between atoms: N_12  and  C_13
DOCKED: REMARK                            x       y       z     vdW  Elec       q    Type
DOCKED: REMARK                         _______ _______ _______ _____ _____    ______ ____
DOCKED: USER                              x       y       z     vdW  Elec       q    Type
DOCKED: USER                           _______ _______ _______ _____ _____    ______ ____
DOCKED: ROOT
DOCKED: ATOM      1  C   UNL     1      37.226  11.178 122.433 -0.39 -0.00    +0.000 C 
DOCKED: ENDROOT
DOCKED: BRANCH   1   2
DOCKED: ATOM      2  C   UNL     1      36.514   9.920 122.037 -0.63 -0.00    +0.000 C 
DOCKED: ATOM      3  N   UNL     1      35.217   9.628 122.583 -0.60 -0.00    +0.000 N 
DOCKED: ATOM      4  O   UNL     1      37.065   9.127 121.227 -2.70 -0.00    +0.000 OA
DOCKED: ATOM      5  H   UNL     1      34.749  10.345 123.069 -0.30 -0.00    +0.000 HD
DOCKED: BRANCH   3   6
DOCKED: ATOM      6  C   UNL     1      34.560   8.355 122.462 -0.61 -0.00    +0.000 A 
DOCKED: ATOM      7  C   UNL     1      33.915   7.964 121.277 -0.57 -0.00    +0.000 A 
DOCKED: ATOM      8  C   UNL     1      33.312   6.708 121.191 -0.40 -0.00    +0.000 A 
DOCKED: ATOM      9  C   UNL     1      33.370   5.845 122.286 -0.61 -0.00    +0.000 A 
DOCKED: ATOM     10  N   UNL     1      34.017   6.225 123.420 -0.74 -0.00    +0.000 NA
DOCKED: ATOM     11  C   UNL     1      34.612   7.443 123.527 -0.65 -0.00    +0.000 A 
DOCKED: ATOM     12  CM  UNL     1      33.966   7.066 122.389 +0.00 -0.00    +0.000 AC
DOCKED: ENDBRANCH   3   6
DOCKED: ENDBRANCH   1   2
DOCKED: BRANCH   1  12
DOCKED: ATOM     13  C   UNL     1      37.134  12.219 121.311 -0.54 -0.00    +0.000 C 
DOCKED: BRANCH  12  13
DOCKED: ATOM     14  C   UNL     1      36.948  13.655 121.834 -0.40 -0.00    +0.000 C 
DOCKED: BRANCH  13  14
DOCKED: ATOM     15  C   UNL     1      38.134  14.602 121.573 -0.38 -0.00    +0.000 C 
DOCKED: BRANCH  14  15
DOCKED: ATOM     16  C   UNL     1      37.987  15.402 120.268 -0.23 -0.00    +0.000 C 
DOCKED: BRANCH  15  16
DOCKED: ATOM     17  C   UNL     1      36.603  15.224 119.631 -0.12 -0.00    +0.000 C 
DOCKED: BRANCH  16  18
DOCKED: ATOM     18  O   UNL     1      35.703  14.424 117.565 -0.34 -0.00    +0.000 OA
DOCKED: ATOM     19  C   UNL     1      36.665  14.396 118.380 -0.34 -0.00    +0.000 C 
DOCKED: ATOM     20  N   UNL     1      37.791  13.556 118.123 -0.34 -0.00    +0.000 N 
DOCKED: ATOM     21  O   UNL     1      37.840  12.798 117.002 -0.49 -0.00    +0.000 OA
DOCKED: ATOM     22  H   UNL     1      38.538  13.527 118.765 -0.12 -0.00    +0.000 HD
DOCKED: ENDBRANCH  16  18
DOCKED: ENDBRANCH  15  16
DOCKED: ENDBRANCH  14  15
DOCKED: ENDBRANCH  13  14
DOCKED: ENDBRANCH  12  13
DOCKED: ENDBRANCH   1  12
DOCKED: TORSDOF 8DOCKED: TER
DOCKED: ENDMDL
________________________________________________________________________________


	BEGINNING GENETIC ALGORITHM DOCKING 53 of 100
Run: 53 Seed: 1368385253 733746670 [ Run 53 of 100 GA/GALS ]
Beginning LAMARCKIAN GENETIC ALGORITHM (LGA), with a maximum of 2500000 energy evaluations.

Final-Value: -13.241


	FINAL GENETIC ALGORITHM DOCKED STATE
	_______________________________________________


Detailed state:  trans 36.826 12.077 122.071 quatxyzw -0.700453 -0.669932 0.005168 0.246030 center 0.003 -0.142 -0.069 ntor 8 93.6655 -156.4059 -180.0000 83.0310 -111.2898 -159.6846 -70.7781 26.0502
State:	 36.826  12.077 122.071  -0.723 -0.691  0.005 151.515     93.67 -156.41 -180.00   83.03 -111.29 -159.68  -70.78   26.05

DOCKED: MODEL       53
DOCKED: USER    Run = 53
DOCKED: USER    DPF = ligand_dock.biased.dpf
DOCKED: USER  
DOCKED: USER    Estimated Free Energy of Binding    =  -10.16 kcal/mol  [=(1)+(2)+(3)-(4)]
DOCKED: USER    Estimated Inhibition Constant, Ki   =   35.79 nM (nanomolar)  [Temperature = 298.15 K]
DOCKED: USER    
DOCKED: USER    (1) Final Intermolecular Energy     =  -12.54 kcal/mol
DOCKED: USER        vdW + Hbond + desolv Energy     =  -12.54 kcal/mol
DOCKED: USER        Electrostatic Energy            =   +0.00 kcal/mol
DOCKED: USER    (2) Final Total Internal Energy     =   -0.70 kcal/mol
DOCKED: USER    (3) Torsional Free Energy           =   +2.39 kcal/mol
DOCKED: USER    (4) Unbound System's Energy  [=(2)] =   -0.70 kcal/mol
DOCKED: USER    
DOCKED: USER    
DOCKED: USER    NEWDPF move ligand.dum.pdbqt
DOCKED: USER    NEWDPF about 0.003000 -0.142000 -0.069000
DOCKED: USER    NEWDPF tran0 36.826170 12.076767 122.071364
DOCKED: USER    NEWDPF quaternion0 -0.700453 -0.669932 0.005168 0.246030
DOCKED: USER    NEWDPF axisangle0 -0.722666 -0.691177 0.005332 151.514543
DOCKED: USER    NEWDPF quat0 -0.722666 -0.691177 0.005332 151.514543
DOCKED: USER    NEWDPF dihe0 93.67 -156.41 -180.00 83.03 -111.29 -159.68 -70.78 26.05 
DOCKED: USER  keepresnum = 1 
DOCKED: USER  
DOCKED: REMARK  Name = 
DOCKED: REMARK  8 active torsions:
DOCKED: REMARK  status: ('A' for Active; 'I' for Inactive)
DOCKED: REMARK    1  A    between atoms: C_2  and  C_5
DOCKED: REMARK    2  A    between atoms: C_5  and  C_6
DOCKED: REMARK    3  A    between atoms: C_6  and  C_7
DOCKED: REMARK    4  A    between atoms: C_7  and  C_8
DOCKED: REMARK    5  A    between atoms: C_8  and  C_9
DOCKED: REMARK    6  A    between atoms: C_9  and  C_10
DOCKED: REMARK    7  A    between atoms: C_10  and  C_11
DOCKED: REMARK    8  A    between atoms: N_12  and  C_13
DOCKED: REMARK                            x       y       z     vdW  Elec       q    Type
DOCKED: REMARK                         _______ _______ _______ _____ _____    ______ ____
DOCKED: USER                              x       y       z     vdW  Elec       q    Type
DOCKED: USER                           _______ _______ _______ _____ _____    ______ ____
DOCKED: ROOT
DOCKED: ATOM      1  C   UNL     1      36.023  11.875 122.060 -0.43 -0.00    +0.000 C 
DOCKED: ENDROOT
DOCKED: BRANCH   1   2
DOCKED: ATOM      2  C   UNL     1      36.087  10.380 121.969 -0.52 -0.00    +0.000 C 
DOCKED: ATOM      3  N   UNL     1      35.159   9.576 122.716 -0.60 -0.00    +0.000 N 
DOCKED: ATOM      4  O   UNL     1      36.959   9.842 121.235 -2.01 -0.00    +0.000 OA
DOCKED: ATOM      5  H   UNL     1      34.390  10.028 123.134 -0.41 -0.00    +0.000 HD
DOCKED: BRANCH   3   6
DOCKED: ATOM      6  C   UNL     1      35.282   8.155 122.890 -0.62 -0.00    +0.000 A 
DOCKED: ATOM      7  C   UNL     1      34.157   7.316 122.948 -0.66 -0.00    +0.000 A 
DOCKED: ATOM      8  C   UNL     1      34.320   5.936 123.090 -0.61 -0.00    +0.000 A 
DOCKED: ATOM      9  C   UNL     1      35.608   5.403 123.159 -0.46 -0.00    +0.000 A 
DOCKED: ATOM     10  N   UNL     1      36.690   6.223 123.077 -1.02 -0.00    +0.000 NA
DOCKED: ATOM     11  C   UNL     1      36.556   7.569 122.939 -0.70 -0.00    +0.000 A 
DOCKED: ATOM     12  CM  UNL     1      35.469   6.752 123.018 +0.00 -0.00    +0.000 AC
DOCKED: ENDBRANCH   3   6
DOCKED: ENDBRANCH   1   2
DOCKED: BRANCH   1  12
DOCKED: ATOM     13  C   UNL     1      37.209  12.411 122.871 -0.60 -0.00    +0.000 C 
DOCKED: BRANCH  12  13
DOCKED: ATOM     14  C   UNL     1      38.144  13.315 122.046 -0.39 -0.00    +0.000 C 
DOCKED: BRANCH  13  14
DOCKED: ATOM     15  C   UNL     1      38.658  14.565 122.783 -0.42 -0.00    +0.000 C 
DOCKED: BRANCH  14  15
DOCKED: ATOM     16  C   UNL     1      39.457  15.513 121.871 -0.33 -0.00    +0.000 C 
DOCKED: BRANCH  15  16
DOCKED: ATOM     17  C   UNL     1      40.961  15.216 121.902 -0.42 -0.00    +0.000 C 
DOCKED: BRANCH  16  18
DOCKED: ATOM     18  O   UNL     1      42.856  15.667 123.289 -1.00 +0.00    +0.000 OA
DOCKED: ATOM     19  C   UNL     1      41.649  15.927 123.031 -0.45 -0.00    +0.000 C 
DOCKED: ATOM     20  N   UNL     1      40.939  16.873 123.831 -0.31 -0.00    +0.000 N 
DOCKED: ATOM     21  O   UNL     1      41.556  17.504 124.858 -0.58 -0.00    +0.000 OA
DOCKED: ATOM     22  H   UNL     1      39.994  17.069 123.634 -0.01 -0.00    +0.000 HD
DOCKED: ENDBRANCH  16  18
DOCKED: ENDBRANCH  15  16
DOCKED: ENDBRANCH  14  15
DOCKED: ENDBRANCH  13  14
DOCKED: ENDBRANCH  12  13
DOCKED: ENDBRANCH   1  12
DOCKED: TORSDOF 8DOCKED: TER
DOCKED: ENDMDL
________________________________________________________________________________


	BEGINNING GENETIC ALGORITHM DOCKING 54 of 100
Run: 54 Seed: 1452878691 816559041 [ Run 54 of 100 GA/GALS ]
Beginning LAMARCKIAN GENETIC ALGORITHM (LGA), with a maximum of 2500000 energy evaluations.

Final-Value: -14.225


	FINAL GENETIC ALGORITHM DOCKED STATE
	_______________________________________________


Detailed state:  trans 37.317 14.023 121.271 quatxyzw 0.083493 -0.034632 0.956505 0.277358 center 0.003 -0.142 -0.069 ntor 8 159.0951 17.3648 -161.1936 164.8130 -173.0506 75.4647 -101.2391 -64.1301
State:	 37.317  14.023 121.271   0.087 -0.036  0.996 147.795    159.10   17.36 -161.19  164.81 -173.05   75.46 -101.24  -64.13

DOCKED: MODEL       54
DOCKED: USER    Run = 54
DOCKED: USER    DPF = ligand_dock.biased.dpf
DOCKED: USER  
DOCKED: USER    Estimated Free Energy of Binding    =  -10.76 kcal/mol  [=(1)+(2)+(3)-(4)]
DOCKED: USER    Estimated Inhibition Constant, Ki   =   13.01 nM (nanomolar)  [Temperature = 298.15 K]
DOCKED: USER    
DOCKED: USER    (1) Final Intermolecular Energy     =  -13.14 kcal/mol
DOCKED: USER        vdW + Hbond + desolv Energy     =  -13.14 kcal/mol
DOCKED: USER        Electrostatic Energy            =   +0.00 kcal/mol
DOCKED: USER    (2) Final Total Internal Energy     =   -1.08 kcal/mol
DOCKED: USER    (3) Torsional Free Energy           =   +2.39 kcal/mol
DOCKED: USER    (4) Unbound System's Energy  [=(2)] =   -1.08 kcal/mol
DOCKED: USER    
DOCKED: USER    
DOCKED: USER    NEWDPF move ligand.dum.pdbqt
DOCKED: USER    NEWDPF about 0.003000 -0.142000 -0.069000
DOCKED: USER    NEWDPF tran0 37.317268 14.023156 121.271273
DOCKED: USER    NEWDPF quaternion0 0.083493 -0.034632 0.956505 0.277358
DOCKED: USER    NEWDPF axisangle0 0.086902 -0.036047 0.995564 147.794872
DOCKED: USER    NEWDPF quat0 0.086902 -0.036047 0.995564 147.794872
DOCKED: USER    NEWDPF dihe0 159.10 17.36 -161.19 164.81 -173.05 75.46 -101.24 -64.13 
DOCKED: USER  keepresnum = 1 
DOCKED: USER  
DOCKED: REMARK  Name = 
DOCKED: REMARK  8 active torsions:
DOCKED: REMARK  status: ('A' for Active; 'I' for Inactive)
DOCKED: REMARK    1  A    between atoms: C_2  and  C_5
DOCKED: REMARK    2  A    between atoms: C_5  and  C_6
DOCKED: REMARK    3  A    between atoms: C_6  and  C_7
DOCKED: REMARK    4  A    between atoms: C_7  and  C_8
DOCKED: REMARK    5  A    between atoms: C_8  and  C_9
DOCKED: REMARK    6  A    between atoms: C_9  and  C_10
DOCKED: REMARK    7  A    between atoms: C_10  and  C_11
DOCKED: REMARK    8  A    between atoms: N_12  and  C_13
DOCKED: REMARK                            x       y       z     vdW  Elec       q    Type
DOCKED: REMARK                         _______ _______ _______ _____ _____    ______ ____
DOCKED: USER                              x       y       z     vdW  Elec       q    Type
DOCKED: USER                           _______ _______ _______ _____ _____    ______ ____
DOCKED: ROOT
DOCKED: ATOM      1  C   UNL     1      37.107  14.814 121.145 -0.28 -0.00    +0.000 C 
DOCKED: ENDROOT
DOCKED: BRANCH   1   2
DOCKED: ATOM      2  C   UNL     1      38.353  15.531 121.569 -0.28 -0.00    +0.000 C 
DOCKED: ATOM      3  N   UNL     1      39.629  15.122 121.048 -0.27 -0.00    +0.000 N 
DOCKED: ATOM      4  O   UNL     1      38.267  16.489 122.383 -0.22 -0.00    +0.000 OA
DOCKED: ATOM      5  H   UNL     1      39.637  14.494 120.290 -0.06 -0.00    +0.000 HD
DOCKED: BRANCH   3   6
DOCKED: ATOM      6  C   UNL     1      40.892  15.574 121.563 -0.30 -0.00    +0.000 A 
DOCKED: ATOM      7  C   UNL     1      41.866  16.153 120.733 -0.19 -0.00    +0.000 A 
DOCKED: ATOM      8  C   UNL     1      43.070  16.604 121.277 -0.23 -0.00    +0.000 A 
DOCKED: ATOM      9  C   UNL     1      43.287  16.487 122.651 -0.35 -0.00    +0.000 A 
DOCKED: ATOM     10  N   UNL     1      42.326  15.946 123.448 -1.05 +0.00    +0.000 NA
DOCKED: ATOM     11  C   UNL     1      41.146  15.500 122.941 -0.39 -0.00    +0.000 A 
DOCKED: ATOM     12  CM  UNL     1      42.104  16.042 122.138 +0.00 -0.00    +0.000 AC
DOCKED: ENDBRANCH   3   6
DOCKED: ENDBRANCH   1   2
DOCKED: BRANCH   1  12
DOCKED: ATOM     13  C   UNL     1      37.458  13.455 120.526 -0.45 -0.00    +0.000 C 
DOCKED: BRANCH  12  13
DOCKED: ATOM     14  C   UNL     1      37.593  12.334 121.572 -0.42 -0.00    +0.000 C 
DOCKED: BRANCH  13  14
DOCKED: ATOM     15  C   UNL     1      37.033  12.672 122.965 -0.62 -0.00    +0.000 C 
DOCKED: BRANCH  14  15
DOCKED: ATOM     16  C   UNL     1      35.990  11.653 123.456 -0.69 -0.00    +0.000 C 
DOCKED: BRANCH  15  16
DOCKED: ATOM     17  C   UNL     1      35.562  10.681 122.349 -0.63 -0.00    +0.000 C 
DOCKED: BRANCH  16  18
DOCKED: ATOM     18  O   UNL     1      37.060   9.217 121.196 -2.74 -0.00    +0.000 OA
DOCKED: ATOM     19  C   UNL     1      36.466   9.485 122.275 -0.70 -0.00    +0.000 C 
DOCKED: ATOM     20  N   UNL     1      36.634   8.632 123.410 -0.63 -0.00    +0.000 N 
DOCKED: ATOM     21  O   UNL     1      37.437   7.545 123.338 -2.39 -0.00    +0.000 OA
DOCKED: ATOM     22  H   UNL     1      36.162   8.837 124.250 -0.25 -0.00    +0.000 HD
DOCKED: ENDBRANCH  16  18
DOCKED: ENDBRANCH  15  16
DOCKED: ENDBRANCH  14  15
DOCKED: ENDBRANCH  13  14
DOCKED: ENDBRANCH  12  13
DOCKED: ENDBRANCH   1  12
DOCKED: TORSDOF 8DOCKED: TER
DOCKED: ENDMDL
________________________________________________________________________________


	BEGINNING GENETIC ALGORITHM DOCKING 55 of 100
Run: 55 Seed: 997094711 2073583189 [ Run 55 of 100 GA/GALS ]
Beginning LAMARCKIAN GENETIC ALGORITHM (LGA), with a maximum of 2500000 energy evaluations.

Final-Value: -13.489


	FINAL GENETIC ALGORITHM DOCKED STATE
	_______________________________________________


Detailed state:  trans 38.764 14.357 122.348 quatxyzw -0.830780 0.394083 -0.245154 0.307250 center 0.003 -0.142 -0.069 ntor 8 98.7721 20.8509 -162.7703 -145.5246 -147.8146 -139.8479 -127.1357 -160.4612
State:	 38.764  14.357 122.348  -0.873  0.414 -0.258 144.213     98.77   20.85 -162.77 -145.52 -147.81 -139.85 -127.14 -160.46

DOCKED: MODEL       55
DOCKED: USER    Run = 55
DOCKED: USER    DPF = ligand_dock.biased.dpf
DOCKED: USER  
DOCKED: USER    Estimated Free Energy of Binding    =  -10.01 kcal/mol  [=(1)+(2)+(3)-(4)]
DOCKED: USER    Estimated Inhibition Constant, Ki   =   45.77 nM (nanomolar)  [Temperature = 298.15 K]
DOCKED: USER    
DOCKED: USER    (1) Final Intermolecular Energy     =  -12.40 kcal/mol
DOCKED: USER        vdW + Hbond + desolv Energy     =  -12.40 kcal/mol
DOCKED: USER        Electrostatic Energy            =   +0.00 kcal/mol
DOCKED: USER    (2) Final Total Internal Energy     =   -1.09 kcal/mol
DOCKED: USER    (3) Torsional Free Energy           =   +2.39 kcal/mol
DOCKED: USER    (4) Unbound System's Energy  [=(2)] =   -1.09 kcal/mol
DOCKED: USER    
DOCKED: USER    
DOCKED: USER    NEWDPF move ligand.dum.pdbqt
DOCKED: USER    NEWDPF about 0.003000 -0.142000 -0.069000
DOCKED: USER    NEWDPF tran0 38.764122 14.356850 122.347795
DOCKED: USER    NEWDPF quaternion0 -0.830780 0.394083 -0.245154 0.307250
DOCKED: USER    NEWDPF axisangle0 -0.873008 0.414114 -0.257615 144.212779
DOCKED: USER    NEWDPF quat0 -0.873008 0.414114 -0.257615 144.212779
DOCKED: USER    NEWDPF dihe0 98.77 20.85 -162.77 -145.52 -147.81 -139.85 -127.14 -160.46 
DOCKED: USER  keepresnum = 1 
DOCKED: USER  
DOCKED: REMARK  Name = 
DOCKED: REMARK  8 active torsions:
DOCKED: REMARK  status: ('A' for Active; 'I' for Inactive)
DOCKED: REMARK    1  A    between atoms: C_2  and  C_5
DOCKED: REMARK    2  A    between atoms: C_5  and  C_6
DOCKED: REMARK    3  A    between atoms: C_6  and  C_7
DOCKED: REMARK    4  A    between atoms: C_7  and  C_8
DOCKED: REMARK    5  A    between atoms: C_8  and  C_9
DOCKED: REMARK    6  A    between atoms: C_9  and  C_10
DOCKED: REMARK    7  A    between atoms: C_10  and  C_11
DOCKED: REMARK    8  A    between atoms: N_12  and  C_13
DOCKED: REMARK                            x       y       z     vdW  Elec       q    Type
DOCKED: REMARK                         _______ _______ _______ _____ _____    ______ ____
DOCKED: USER                              x       y       z     vdW  Elec       q    Type
DOCKED: USER                           _______ _______ _______ _____ _____    ______ ____
DOCKED: ROOT
DOCKED: ATOM      1  C   UNL     1      39.197  14.999 122.055 -0.39 -0.00    +0.000 C 
DOCKED: ENDROOT
DOCKED: BRANCH   1   2
DOCKED: ATOM      2  C   UNL     1      38.525  15.244 120.738 -0.26 -0.00    +0.000 C 
DOCKED: ATOM      3  N   UNL     1      38.232  14.141 119.866 -0.29 -0.00    +0.000 N 
DOCKED: ATOM      4  O   UNL     1      38.223  16.423 120.409 -0.14 -0.00    +0.000 OA
DOCKED: ATOM      5  H   UNL     1      38.321  13.230 120.228 -0.08 -0.00    +0.000 HD
DOCKED: BRANCH   3   6
DOCKED: ATOM      6  C   UNL     1      37.816  14.284 118.497 -0.27 -0.00    +0.000 A 
DOCKED: ATOM      7  C   UNL     1      36.664  13.648 118.004 -0.36 -0.00    +0.000 A 
DOCKED: ATOM      8  C   UNL     1      36.279  13.834 116.675 -0.32 -0.00    +0.000 A 
DOCKED: ATOM      9  C   UNL     1      37.039  14.666 115.852 -0.24 -0.00    +0.000 A 
DOCKED: ATOM     10  N   UNL     1      38.138  15.295 116.348 -0.17 -0.00    +0.000 NA
DOCKED: ATOM     11  C   UNL     1      38.534  15.129 117.638 -0.17 -0.00    +0.000 A 
DOCKED: ATOM     12  CM  UNL     1      37.431  14.498 117.147 +0.00 -0.00    +0.000 AC
DOCKED: ENDBRANCH   3   6
DOCKED: ENDBRANCH   1   2
DOCKED: BRANCH   1  12
DOCKED: ATOM     13  C   UNL     1      38.183  14.487 123.085 -0.43 -0.00    +0.000 C 
DOCKED: BRANCH  12  13
DOCKED: ATOM     14  C   UNL     1      37.522  13.159 122.672 -0.54 -0.00    +0.000 C 
DOCKED: BRANCH  13  14
DOCKED: ATOM     15  C   UNL     1      36.910  12.348 123.828 -0.62 -0.00    +0.000 C 
DOCKED: BRANCH  14  15
DOCKED: ATOM     16  C   UNL     1      35.699  11.504 123.395 -0.62 -0.00    +0.000 C 
DOCKED: BRANCH  15  16
DOCKED: ATOM     17  C   UNL     1      35.898  10.872 122.012 -0.53 -0.00    +0.000 C 
DOCKED: BRANCH  16  18
DOCKED: ATOM     18  O   UNL     1      36.692   8.829 121.055 -2.60 -0.00    +0.000 OA
DOCKED: ATOM     19  C   UNL     1      36.517   9.508 122.104 -0.68 -0.00    +0.000 C 
DOCKED: ATOM     20  N   UNL     1      36.883   8.962 123.373 -0.60 -0.00    +0.000 N 
DOCKED: ATOM     21  O   UNL     1      37.429   7.726 123.457 -2.60 -0.00    +0.000 OA
DOCKED: ATOM     22  H   UNL     1      36.738   9.488 124.192 -0.50 -0.00    +0.000 HD
DOCKED: ENDBRANCH  16  18
DOCKED: ENDBRANCH  15  16
DOCKED: ENDBRANCH  14  15
DOCKED: ENDBRANCH  13  14
DOCKED: ENDBRANCH  12  13
DOCKED: ENDBRANCH   1  12
DOCKED: TORSDOF 8DOCKED: TER
DOCKED: ENDMDL
________________________________________________________________________________


	BEGINNING GENETIC ALGORITHM DOCKING 56 of 100
Run: 56 Seed: 1586199400 389079369 [ Run 56 of 100 GA/GALS ]
Beginning LAMARCKIAN GENETIC ALGORITHM (LGA), with a maximum of 2500000 energy evaluations.

Final-Value: -14.413


	FINAL GENETIC ALGORITHM DOCKED STATE
	_______________________________________________


Detailed state:  trans 36.933 15.220 120.734 quatxyzw 0.821157 -0.246345 -0.471937 0.205647 center 0.003 -0.142 -0.069 ntor 8 134.9009 74.6325 -112.7310 125.7450 -172.3073 154.4511 88.7106 2.2586
State:	 36.933  15.220 120.734   0.839 -0.252 -0.482 156.265    134.90   74.63 -112.73  125.75 -172.31  154.45   88.71    2.26

DOCKED: MODEL       56
DOCKED: USER    Run = 56
DOCKED: USER    DPF = ligand_dock.biased.dpf
DOCKED: USER  
DOCKED: USER    Estimated Free Energy of Binding    =  -10.89 kcal/mol  [=(1)+(2)+(3)-(4)]
DOCKED: USER    Estimated Inhibition Constant, Ki   =   10.48 nM (nanomolar)  [Temperature = 298.15 K]
DOCKED: USER    
DOCKED: USER    (1) Final Intermolecular Energy     =  -13.27 kcal/mol
DOCKED: USER        vdW + Hbond + desolv Energy     =  -13.27 kcal/mol
DOCKED: USER        Electrostatic Energy            =   +0.00 kcal/mol
DOCKED: USER    (2) Final Total Internal Energy     =   -1.14 kcal/mol
DOCKED: USER    (3) Torsional Free Energy           =   +2.39 kcal/mol
DOCKED: USER    (4) Unbound System's Energy  [=(2)] =   -1.14 kcal/mol
DOCKED: USER    
DOCKED: USER    
DOCKED: USER    NEWDPF move ligand.dum.pdbqt
DOCKED: USER    NEWDPF about 0.003000 -0.142000 -0.069000
DOCKED: USER    NEWDPF tran0 36.932697 15.219720 120.734108
DOCKED: USER    NEWDPF quaternion0 0.821157 -0.246345 -0.471937 0.205647
DOCKED: USER    NEWDPF axisangle0 0.839091 -0.251725 -0.482245 156.265293
DOCKED: USER    NEWDPF quat0 0.839091 -0.251725 -0.482245 156.265293
DOCKED: USER    NEWDPF dihe0 134.90 74.63 -112.73 125.75 -172.31 154.45 88.71 2.26 
DOCKED: USER  keepresnum = 1 
DOCKED: USER  
DOCKED: REMARK  Name = 
DOCKED: REMARK  8 active torsions:
DOCKED: REMARK  status: ('A' for Active; 'I' for Inactive)
DOCKED: REMARK    1  A    between atoms: C_2  and  C_5
DOCKED: REMARK    2  A    between atoms: C_5  and  C_6
DOCKED: REMARK    3  A    between atoms: C_6  and  C_7
DOCKED: REMARK    4  A    between atoms: C_7  and  C_8
DOCKED: REMARK    5  A    between atoms: C_8  and  C_9
DOCKED: REMARK    6  A    between atoms: C_9  and  C_10
DOCKED: REMARK    7  A    between atoms: C_10  and  C_11
DOCKED: REMARK    8  A    between atoms: N_12  and  C_13
DOCKED: REMARK                            x       y       z     vdW  Elec       q    Type
DOCKED: REMARK                         _______ _______ _______ _____ _____    ______ ____
DOCKED: USER                              x       y       z     vdW  Elec       q    Type
DOCKED: USER                           _______ _______ _______ _____ _____    ______ ____
DOCKED: ROOT
DOCKED: ATOM      1  C   UNL     1      37.394  15.780 121.132 -0.23 -0.00    +0.000 C 
DOCKED: ENDROOT
DOCKED: BRANCH   1   2
DOCKED: ATOM      2  C   UNL     1      36.381  16.423 122.031 -0.26 -0.00    +0.000 C 
DOCKED: ATOM      3  N   UNL     1      36.520  16.318 123.458 -0.31 -0.00    +0.000 N 
DOCKED: ATOM      4  O   UNL     1      35.414  17.051 121.523 -0.29 -0.00    +0.000 OA
DOCKED: ATOM      5  H   UNL     1      37.372  15.976 123.815 -0.02 -0.00    +0.000 HD
DOCKED: BRANCH   3   6
DOCKED: ATOM      6  C   UNL     1      35.494  16.683 124.396 -0.34 -0.00    +0.000 A 
DOCKED: ATOM      7  C   UNL     1      35.238  18.024 124.729 -0.28 -0.00    +0.000 A 
DOCKED: ATOM      8  C   UNL     1      34.214  18.338 125.625 -0.30 -0.00    +0.000 A 
DOCKED: ATOM      9  C   UNL     1      33.444  17.311 126.172 -0.26 -0.00    +0.000 A 
DOCKED: ATOM     10  N   UNL     1      33.687  16.019 125.824 -0.75 -0.00    +0.000 NA
DOCKED: ATOM     11  C   UNL     1      34.678  15.688 124.954 -0.42 -0.00    +0.000 A 
DOCKED: ATOM     12  CM  UNL     1      34.438  16.984 125.297 -0.27 -0.00    +0.000 AC
DOCKED: ENDBRANCH   3   6
DOCKED: ENDBRANCH   1   2
DOCKED: BRANCH   1  12
DOCKED: ATOM     13  C   UNL     1      37.057  14.299 120.922 -0.29 -0.00    +0.000 C 
DOCKED: BRANCH  12  13
DOCKED: ATOM     14  C   UNL     1      37.580  13.396 122.054 -0.49 -0.00    +0.000 C 
DOCKED: BRANCH  13  14
DOCKED: ATOM     15  C   UNL     1      36.574  13.126 123.189 -0.60 -0.00    +0.000 C 
DOCKED: BRANCH  14  15
DOCKED: ATOM     16  C   UNL     1      36.353  11.627 123.451 -0.70 -0.00    +0.000 C 
DOCKED: BRANCH  15  16
DOCKED: ATOM     17  C   UNL     1      36.062  10.849 122.162 -0.61 -0.00    +0.000 C 
DOCKED: BRANCH  16  18
DOCKED: ATOM     18  O   UNL     1      37.070   8.943 121.128 -2.70 -0.00    +0.000 OA
DOCKED: ATOM     19  C   UNL     1      36.653   9.469 122.195 -0.70 -0.00    +0.000 C 
DOCKED: ATOM     20  N   UNL     1      36.719   8.739 123.422 -0.62 -0.00    +0.000 N 
DOCKED: ATOM     21  O   UNL     1      37.239   7.489 123.449 -2.48 -0.00    +0.000 OA
DOCKED: ATOM     22  H   UNL     1      36.385   9.147 124.253 -0.33 -0.00    +0.000 HD
DOCKED: ENDBRANCH  16  18
DOCKED: ENDBRANCH  15  16
DOCKED: ENDBRANCH  14  15
DOCKED: ENDBRANCH  13  14
DOCKED: ENDBRANCH  12  13
DOCKED: ENDBRANCH   1  12
DOCKED: TORSDOF 8DOCKED: TER
DOCKED: ENDMDL
________________________________________________________________________________


	BEGINNING GENETIC ALGORITHM DOCKING 57 of 100
Run: 57 Seed: 480268465 917025552 [ Run 57 of 100 GA/GALS ]
Beginning LAMARCKIAN GENETIC ALGORITHM (LGA), with a maximum of 2500000 energy evaluations.

Final-Value: -14.241


	FINAL GENETIC ALGORITHM DOCKED STATE
	_______________________________________________


Detailed state:  trans 38.067 14.769 123.060 quatxyzw 0.717290 -0.166525 0.606606 -0.299657 center 0.003 -0.142 -0.069 ntor 8 59.0006 53.1737 -164.5910 -161.4094 -177.9950 -109.6325 -129.9711 2.4667
State:	 38.067  14.769 123.060   0.752 -0.175  0.636 -145.126     59.00   53.17 -164.59 -161.41 -177.99 -109.63 -129.97    2.47

DOCKED: MODEL       57
DOCKED: USER    Run = 57
DOCKED: USER    DPF = ligand_dock.biased.dpf
DOCKED: USER  
DOCKED: USER    Estimated Free Energy of Binding    =  -10.58 kcal/mol  [=(1)+(2)+(3)-(4)]
DOCKED: USER    Estimated Inhibition Constant, Ki   =   17.62 nM (nanomolar)  [Temperature = 298.15 K]
DOCKED: USER    
DOCKED: USER    (1) Final Intermolecular Energy     =  -12.96 kcal/mol
DOCKED: USER        vdW + Hbond + desolv Energy     =  -12.96 kcal/mol
DOCKED: USER        Electrostatic Energy            =   +0.00 kcal/mol
DOCKED: USER    (2) Final Total Internal Energy     =   -1.28 kcal/mol
DOCKED: USER    (3) Torsional Free Energy           =   +2.39 kcal/mol
DOCKED: USER    (4) Unbound System's Energy  [=(2)] =   -1.28 kcal/mol
DOCKED: USER    
DOCKED: USER    
DOCKED: USER    NEWDPF move ligand.dum.pdbqt
DOCKED: USER    NEWDPF about 0.003000 -0.142000 -0.069000
DOCKED: USER    NEWDPF tran0 38.067423 14.769427 123.059967
DOCKED: USER    NEWDPF quaternion0 0.717290 -0.166525 0.606606 -0.299657
DOCKED: USER    NEWDPF axisangle0 0.751839 -0.174545 0.635824 -145.126051
DOCKED: USER    NEWDPF quat0 0.751839 -0.174545 0.635824 -145.126051
DOCKED: USER    NEWDPF dihe0 59.00 53.17 -164.59 -161.41 -177.99 -109.63 -129.97 2.47 
DOCKED: USER  keepresnum = 1 
DOCKED: USER  
DOCKED: REMARK  Name = 
DOCKED: REMARK  8 active torsions:
DOCKED: REMARK  status: ('A' for Active; 'I' for Inactive)
DOCKED: REMARK    1  A    between atoms: C_2  and  C_5
DOCKED: REMARK    2  A    between atoms: C_5  and  C_6
DOCKED: REMARK    3  A    between atoms: C_6  and  C_7
DOCKED: REMARK    4  A    between atoms: C_7  and  C_8
DOCKED: REMARK    5  A    between atoms: C_8  and  C_9
DOCKED: REMARK    6  A    between atoms: C_9  and  C_10
DOCKED: REMARK    7  A    between atoms: C_10  and  C_11
DOCKED: REMARK    8  A    between atoms: N_12  and  C_13
DOCKED: REMARK                            x       y       z     vdW  Elec       q    Type
DOCKED: REMARK                         _______ _______ _______ _____ _____    ______ ____
DOCKED: USER                              x       y       z     vdW  Elec       q    Type
DOCKED: USER                           _______ _______ _______ _____ _____    ______ ____
DOCKED: ROOT
DOCKED: ATOM      1  C   UNL     1      38.334  15.432 122.642 -0.36 -0.00    +0.000 C 
DOCKED: ENDROOT
DOCKED: BRANCH   1   2
DOCKED: ATOM      2  C   UNL     1      38.532  14.866 121.268 -0.34 -0.00    +0.000 C 
DOCKED: ATOM      3  N   UNL     1      37.747  15.359 120.170 -0.20 -0.00    +0.000 N 
DOCKED: ATOM      4  O   UNL     1      39.388  13.958 121.091 -0.67 -0.00    +0.000 OA
DOCKED: ATOM      5  H   UNL     1      37.221  16.179 120.310 +0.00 -0.00    +0.000 HD
DOCKED: BRANCH   3   6
DOCKED: ATOM      6  C   UNL     1      37.683  14.730 118.879 -0.24 -0.00    +0.000 A 
DOCKED: ATOM      7  C   UNL     1      37.883  15.455 117.692 -0.16 -0.00    +0.000 A 
DOCKED: ATOM      8  C   UNL     1      37.840  14.802 116.459 -0.23 -0.00    +0.000 A 
DOCKED: ATOM      9  C   UNL     1      37.612  13.426 116.421 -0.38 -0.00    +0.000 A 
DOCKED: ATOM     10  N   UNL     1      37.444  12.731 117.578 -0.30 -0.00    +0.000 NA
DOCKED: ATOM     11  C   UNL     1      37.482  13.344 118.791 -0.37 -0.00    +0.000 A 
DOCKED: ATOM     12  CM  UNL     1      37.652  14.045 117.635 +0.00 -0.00    +0.000 AC
DOCKED: ENDBRANCH   3   6
DOCKED: ENDBRANCH   1   2
DOCKED: BRANCH   1  12
DOCKED: ATOM     13  C   UNL     1      37.164  14.733 123.344 -0.44 -0.00    +0.000 C 
DOCKED: BRANCH  12  13
DOCKED: ATOM     14  C   UNL     1      37.352  13.209 123.455 -0.56 -0.00    +0.000 C 
DOCKED: BRANCH  13  14
DOCKED: ATOM     15  C   UNL     1      36.116  12.435 123.951 -0.58 -0.00    +0.000 C 
DOCKED: BRANCH  14  15
DOCKED: ATOM     16  C   UNL     1      35.608  11.400 122.933 -0.60 -0.00    +0.000 C 
DOCKED: BRANCH  15  16
DOCKED: ATOM     17  C   UNL     1      36.705  10.958 121.957 -0.62 -0.00    +0.000 C 
DOCKED: BRANCH  16  18
DOCKED: ATOM     18  O   UNL     1      37.056   8.846 120.892 -2.71 -0.00    +0.000 OA
DOCKED: ATOM     19  C   UNL     1      36.907   9.471 121.978 -0.65 -0.00    +0.000 C 
DOCKED: ATOM     20  N   UNL     1      36.901   8.756 123.215 -0.67 -0.00    +0.000 N 
DOCKED: ATOM     21  O   UNL     1      37.069   7.412 123.232 -2.41 -0.00    +0.000 OA
DOCKED: ATOM     22  H   UNL     1      36.775   9.243 124.061 -0.49 -0.00    +0.000 HD
DOCKED: ENDBRANCH  16  18
DOCKED: ENDBRANCH  15  16
DOCKED: ENDBRANCH  14  15
DOCKED: ENDBRANCH  13  14
DOCKED: ENDBRANCH  12  13
DOCKED: ENDBRANCH   1  12
DOCKED: TORSDOF 8DOCKED: TER
DOCKED: ENDMDL
________________________________________________________________________________


	BEGINNING GENETIC ALGORITHM DOCKING 58 of 100
Run: 58 Seed: 1754517810 1194037443 [ Run 58 of 100 GA/GALS ]
Beginning LAMARCKIAN GENETIC ALGORITHM (LGA), with a maximum of 2500000 energy evaluations.

Final-Value: -13.616


	FINAL GENETIC ALGORITHM DOCKED STATE
	_______________________________________________


Detailed state:  trans 37.254 13.337 119.979 quatxyzw 0.357589 0.651505 0.384724 0.547411 center 0.003 -0.142 -0.069 ntor 8 -180.0000 59.1440 92.8456 66.6025 155.2182 81.8233 -48.0342 -54.0208
State:	 37.254  13.337 119.979   0.427  0.779  0.460 113.621   -180.00   59.14   92.85   66.60  155.22   81.82  -48.03  -54.02

DOCKED: MODEL       58
DOCKED: USER    Run = 58
DOCKED: USER    DPF = ligand_dock.biased.dpf
DOCKED: USER  
DOCKED: USER    Estimated Free Energy of Binding    =  -10.20 kcal/mol  [=(1)+(2)+(3)-(4)]
DOCKED: USER    Estimated Inhibition Constant, Ki   =   33.52 nM (nanomolar)  [Temperature = 298.15 K]
DOCKED: USER    
DOCKED: USER    (1) Final Intermolecular Energy     =  -12.58 kcal/mol
DOCKED: USER        vdW + Hbond + desolv Energy     =  -12.58 kcal/mol
DOCKED: USER        Electrostatic Energy            =   +0.00 kcal/mol
DOCKED: USER    (2) Final Total Internal Energy     =   -1.03 kcal/mol
DOCKED: USER    (3) Torsional Free Energy           =   +2.39 kcal/mol
DOCKED: USER    (4) Unbound System's Energy  [=(2)] =   -1.03 kcal/mol
DOCKED: USER    
DOCKED: USER    
DOCKED: USER    NEWDPF move ligand.dum.pdbqt
DOCKED: USER    NEWDPF about 0.003000 -0.142000 -0.069000
DOCKED: USER    NEWDPF tran0 37.254228 13.337020 119.978857
DOCKED: USER    NEWDPF quaternion0 0.357589 0.651505 0.384724 0.547411
DOCKED: USER    NEWDPF axisangle0 0.427297 0.778508 0.459721 113.620848
DOCKED: USER    NEWDPF quat0 0.427297 0.778508 0.459721 113.620848
DOCKED: USER    NEWDPF dihe0 -180.00 59.14 92.85 66.60 155.22 81.82 -48.03 -54.02 
DOCKED: USER  keepresnum = 1 
DOCKED: USER  
DOCKED: REMARK  Name = 
DOCKED: REMARK  8 active torsions:
DOCKED: REMARK  status: ('A' for Active; 'I' for Inactive)
DOCKED: REMARK    1  A    between atoms: C_2  and  C_5
DOCKED: REMARK    2  A    between atoms: C_5  and  C_6
DOCKED: REMARK    3  A    between atoms: C_6  and  C_7
DOCKED: REMARK    4  A    between atoms: C_7  and  C_8
DOCKED: REMARK    5  A    between atoms: C_8  and  C_9
DOCKED: REMARK    6  A    between atoms: C_9  and  C_10
DOCKED: REMARK    7  A    between atoms: C_10  and  C_11
DOCKED: REMARK    8  A    between atoms: N_12  and  C_13
DOCKED: REMARK                            x       y       z     vdW  Elec       q    Type
DOCKED: REMARK                         _______ _______ _______ _____ _____    ______ ____
DOCKED: USER                              x       y       z     vdW  Elec       q    Type
DOCKED: USER                           _______ _______ _______ _____ _____    ______ ____
DOCKED: ROOT
DOCKED: ATOM      1  C   UNL     1      36.694  12.824 119.650 -0.34 -0.00    +0.000 C 
DOCKED: ENDROOT
DOCKED: BRANCH   1   2
DOCKED: ATOM      2  C   UNL     1      36.618  13.323 118.238 -0.37 -0.00    +0.000 C 
DOCKED: ATOM      3  N   UNL     1      37.792  13.311 117.409 -0.39 -0.00    +0.000 N 
DOCKED: ATOM      4  O   UNL     1      35.519  13.750 117.792 -0.44 -0.00    +0.000 OA
DOCKED: ATOM      5  H   UNL     1      38.579  12.813 117.731 -0.12 -0.00    +0.000 HD
DOCKED: BRANCH   3   6
DOCKED: ATOM      6  C   UNL     1      37.889  13.979 116.140 -0.34 -0.00    +0.000 A 
DOCKED: ATOM      7  C   UNL     1      38.941  14.864 115.848 -0.27 -0.00    +0.000 A 
DOCKED: ATOM      8  C   UNL     1      39.014  15.471 114.593 -0.21 -0.00    +0.000 A 
DOCKED: ATOM      9  C   UNL     1      38.044  15.179 113.633 -0.17 -0.00    +0.000 A 
DOCKED: ATOM     10  N   UNL     1      37.045  14.302 113.920 -0.25 -0.00    +0.000 NA
DOCKED: ATOM     11  C   UNL     1      36.952  13.698 115.135 -0.33 -0.00    +0.000 A 
DOCKED: ATOM     12  CM  UNL     1      37.956  14.574 114.852 +0.00 -0.00    +0.000 AC
DOCKED: ENDBRANCH   3   6
DOCKED: ENDBRANCH   1   2
DOCKED: BRANCH   1  12
DOCKED: ATOM     13  C   UNL     1      38.113  13.004 120.204 -0.40 -0.00    +0.000 C 
DOCKED: BRANCH  12  13
DOCKED: ATOM     14  C   UNL     1      38.132  13.479 121.668 -0.44 -0.00    +0.000 C 
DOCKED: BRANCH  13  14
DOCKED: ATOM     15  C   UNL     1      36.834  13.219 122.454 -0.53 -0.00    +0.000 C 
DOCKED: BRANCH  14  15
DOCKED: ATOM     16  C   UNL     1      36.853  11.886 123.222 -0.68 -0.00    +0.000 C 
DOCKED: BRANCH  15  16
DOCKED: ATOM     17  C   UNL     1      35.921  10.841 122.595 -0.67 -0.00    +0.000 C 
DOCKED: BRANCH  16  18
DOCKED: ATOM     18  O   UNL     1      37.013   9.228 121.208 -2.71 -0.00    +0.000 OA
DOCKED: ATOM     19  C   UNL     1      36.620   9.533 122.367 -0.71 -0.00    +0.000 C 
DOCKED: ATOM     20  N   UNL     1      36.818   8.618 123.448 -0.64 -0.00    +0.000 N 
DOCKED: ATOM     21  O   UNL     1      37.436   7.432 123.238 -2.25 -0.00    +0.000 OA
DOCKED: ATOM     22  H   UNL     1      36.503   8.853 124.351 -0.34 -0.00    +0.000 HD
DOCKED: ENDBRANCH  16  18
DOCKED: ENDBRANCH  15  16
DOCKED: ENDBRANCH  14  15
DOCKED: ENDBRANCH  13  14
DOCKED: ENDBRANCH  12  13
DOCKED: ENDBRANCH   1  12
DOCKED: TORSDOF 8DOCKED: TER
DOCKED: ENDMDL
________________________________________________________________________________


	BEGINNING GENETIC ALGORITHM DOCKING 59 of 100
Run: 59 Seed: 131006302 1622042953 [ Run 59 of 100 GA/GALS ]
Beginning LAMARCKIAN GENETIC ALGORITHM (LGA), with a maximum of 2500000 energy evaluations.

Final-Value: -13.481


	FINAL GENETIC ALGORITHM DOCKED STATE
	_______________________________________________


Detailed state:  trans 35.731 14.793 123.725 quatxyzw -0.197443 -0.232852 -0.950145 -0.063417 center 0.003 -0.142 -0.069 ntor 8 -135.3457 -162.1814 -178.1218 131.2052 14.2996 -19.2053 -179.8535 14.2951
State:	 35.731  14.793 123.725  -0.198 -0.233 -0.952 -172.728   -135.35 -162.18 -178.12  131.21   14.30  -19.21 -179.85   14.30

DOCKED: MODEL       59
DOCKED: USER    Run = 59
DOCKED: USER    DPF = ligand_dock.biased.dpf
DOCKED: USER  
DOCKED: USER    Estimated Free Energy of Binding    =   -9.98 kcal/mol  [=(1)+(2)+(3)-(4)]
DOCKED: USER    Estimated Inhibition Constant, Ki   =   48.52 nM (nanomolar)  [Temperature = 298.15 K]
DOCKED: USER    
DOCKED: USER    (1) Final Intermolecular Energy     =  -12.36 kcal/mol
DOCKED: USER        vdW + Hbond + desolv Energy     =  -12.36 kcal/mol
DOCKED: USER        Electrostatic Energy            =   +0.00 kcal/mol
DOCKED: USER    (2) Final Total Internal Energy     =   -1.12 kcal/mol
DOCKED: USER    (3) Torsional Free Energy           =   +2.39 kcal/mol
DOCKED: USER    (4) Unbound System's Energy  [=(2)] =   -1.12 kcal/mol
DOCKED: USER    
DOCKED: USER    
DOCKED: USER    NEWDPF move ligand.dum.pdbqt
DOCKED: USER    NEWDPF about 0.003000 -0.142000 -0.069000
DOCKED: USER    NEWDPF tran0 35.731043 14.793200 123.724510
DOCKED: USER    NEWDPF quaternion0 -0.197443 -0.232852 -0.950145 -0.063417
DOCKED: USER    NEWDPF axisangle0 -0.197841 -0.233321 -0.952061 -172.728047
DOCKED: USER    NEWDPF quat0 -0.197841 -0.233321 -0.952061 -172.728047
DOCKED: USER    NEWDPF dihe0 -135.35 -162.18 -178.12 131.21 14.30 -19.21 -179.85 14.30 
DOCKED: USER  keepresnum = 1 
DOCKED: USER  
DOCKED: REMARK  Name = 
DOCKED: REMARK  8 active torsions:
DOCKED: REMARK  status: ('A' for Active; 'I' for Inactive)
DOCKED: REMARK    1  A    between atoms: C_2  and  C_5
DOCKED: REMARK    2  A    between atoms: C_5  and  C_6
DOCKED: REMARK    3  A    between atoms: C_6  and  C_7
DOCKED: REMARK    4  A    between atoms: C_7  and  C_8
DOCKED: REMARK    5  A    between atoms: C_8  and  C_9
DOCKED: REMARK    6  A    between atoms: C_9  and  C_10
DOCKED: REMARK    7  A    between atoms: C_10  and  C_11
DOCKED: REMARK    8  A    between atoms: N_12  and  C_13
DOCKED: REMARK                            x       y       z     vdW  Elec       q    Type
DOCKED: REMARK                         _______ _______ _______ _____ _____    ______ ____
DOCKED: USER                              x       y       z     vdW  Elec       q    Type
DOCKED: USER                           _______ _______ _______ _____ _____    ______ ____
DOCKED: ROOT
DOCKED: ATOM      1  C   UNL     1      35.751  15.392 123.153 -0.42 -0.00    +0.000 C 
DOCKED: ENDROOT
DOCKED: BRANCH   1   2
DOCKED: ATOM      2  C   UNL     1      37.213  15.722 123.112 -0.36 -0.00    +0.000 C 
DOCKED: ATOM      3  N   UNL     1      37.906  15.752 121.853 -0.22 -0.00    +0.000 N 
DOCKED: ATOM      4  O   UNL     1      37.821  15.971 124.188 -0.11 -0.00    +0.000 OA
DOCKED: ATOM      5  H   UNL     1      37.367  15.727 121.029 +0.00 -0.00    +0.000 HD
DOCKED: BRANCH   3   6
DOCKED: ATOM      6  C   UNL     1      39.336  15.819 121.722 -0.24 -0.00    +0.000 A 
DOCKED: ATOM      7  C   UNL     1      39.952  16.561 120.700 -0.14 -0.00    +0.000 A 
DOCKED: ATOM      8  C   UNL     1      41.345  16.621 120.623 -0.15 -0.00    +0.000 A 
DOCKED: ATOM      9  C   UNL     1      42.113  15.953 121.577 -0.30 -0.00    +0.000 A 
DOCKED: ATOM     10  N   UNL     1      41.504  15.257 122.575 -0.60 -0.00    +0.000 NA
DOCKED: ATOM     11  C   UNL     1      40.150  15.183 122.671 -0.35 -0.00    +0.000 A 
DOCKED: ATOM     12  CM  UNL     1      40.754  15.882 121.670 +0.00 -0.00    +0.000 AC
DOCKED: ENDBRANCH   3   6
DOCKED: ENDBRANCH   1   2
DOCKED: BRANCH   1  12
DOCKED: ATOM     13  C   UNL     1      35.550  13.902 123.457 -0.48 -0.00    +0.000 C 
DOCKED: BRANCH  12  13
DOCKED: ATOM     14  C   UNL     1      36.858  13.180 123.828 -0.47 -0.00    +0.000 C 
DOCKED: BRANCH  13  14
DOCKED: ATOM     15  C   UNL     1      37.738  12.773 122.632 -0.41 -0.00    +0.000 C 
DOCKED: BRANCH  14  15
DOCKED: ATOM     16  C   UNL     1      36.948  12.062 121.520 -0.55 -0.00    +0.000 C 
DOCKED: BRANCH  15  16
DOCKED: ATOM     17  C   UNL     1      35.974  11.017 122.077 -0.58 -0.00    +0.000 C 
DOCKED: BRANCH  16  18
DOCKED: ATOM     18  O   UNL     1      37.067   9.125 121.108 -2.73 -0.00    +0.000 OA
DOCKED: ATOM     19  C   UNL     1      36.597   9.654 122.152 -0.68 -0.00    +0.000 C 
DOCKED: ATOM     20  N   UNL     1      36.635   8.941 123.390 -0.58 -0.00    +0.000 N 
DOCKED: ATOM     21  O   UNL     1      37.185   7.706 123.454 -2.66 -0.00    +0.000 OA
DOCKED: ATOM     22  H   UNL     1      36.260   9.352 124.202 -0.33 -0.00    +0.000 HD
DOCKED: ENDBRANCH  16  18
DOCKED: ENDBRANCH  15  16
DOCKED: ENDBRANCH  14  15
DOCKED: ENDBRANCH  13  14
DOCKED: ENDBRANCH  12  13
DOCKED: ENDBRANCH   1  12
DOCKED: TORSDOF 8DOCKED: TER
DOCKED: ENDMDL
________________________________________________________________________________


	BEGINNING GENETIC ALGORITHM DOCKING 60 of 100
Run: 60 Seed: 815106577 2020845657 [ Run 60 of 100 GA/GALS ]
Beginning LAMARCKIAN GENETIC ALGORITHM (LGA), with a maximum of 2500000 energy evaluations.

Final-Value: -12.504


	FINAL GENETIC ALGORITHM DOCKED STATE
	_______________________________________________


Detailed state:  trans 35.945 16.278 123.966 quatxyzw -0.174207 -0.494163 -0.842828 -0.122865 center 0.003 -0.142 -0.069 ntor 8 -177.4686 117.5006 16.3194 -11.9625 -105.8596 -33.5017 106.3337 -84.8994
State:	 35.945  16.278 123.966  -0.176 -0.498 -0.849 -165.885   -177.47  117.50   16.32  -11.96 -105.86  -33.50  106.33  -84.90

DOCKED: MODEL       60
DOCKED: USER    Run = 60
DOCKED: USER    DPF = ligand_dock.biased.dpf
DOCKED: USER  
DOCKED: USER    Estimated Free Energy of Binding    =   -9.39 kcal/mol  [=(1)+(2)+(3)-(4)]
DOCKED: USER    Estimated Inhibition Constant, Ki   =  130.35 nM (nanomolar)  [Temperature = 298.15 K]
DOCKED: USER    
DOCKED: USER    (1) Final Intermolecular Energy     =  -11.78 kcal/mol
DOCKED: USER        vdW + Hbond + desolv Energy     =  -11.78 kcal/mol
DOCKED: USER        Electrostatic Energy            =   +0.00 kcal/mol
DOCKED: USER    (2) Final Total Internal Energy     =   -0.73 kcal/mol
DOCKED: USER    (3) Torsional Free Energy           =   +2.39 kcal/mol
DOCKED: USER    (4) Unbound System's Energy  [=(2)] =   -0.73 kcal/mol
DOCKED: USER    
DOCKED: USER    
DOCKED: USER    NEWDPF move ligand.dum.pdbqt
DOCKED: USER    NEWDPF about 0.003000 -0.142000 -0.069000
DOCKED: USER    NEWDPF tran0 35.944763 16.278338 123.966380
DOCKED: USER    NEWDPF quaternion0 -0.174207 -0.494163 -0.842828 -0.122865
DOCKED: USER    NEWDPF axisangle0 -0.175537 -0.497935 -0.849263 -165.884988
DOCKED: USER    NEWDPF quat0 -0.175537 -0.497935 -0.849263 -165.884988
DOCKED: USER    NEWDPF dihe0 -177.47 117.50 16.32 -11.96 -105.86 -33.50 106.33 -84.90 
DOCKED: USER  keepresnum = 1 
DOCKED: USER  
DOCKED: REMARK  Name = 
DOCKED: REMARK  8 active torsions:
DOCKED: REMARK  status: ('A' for Active; 'I' for Inactive)
DOCKED: REMARK    1  A    between atoms: C_2  and  C_5
DOCKED: REMARK    2  A    between atoms: C_5  and  C_6
DOCKED: REMARK    3  A    between atoms: C_6  and  C_7
DOCKED: REMARK    4  A    between atoms: C_7  and  C_8
DOCKED: REMARK    5  A    between atoms: C_8  and  C_9
DOCKED: REMARK    6  A    between atoms: C_9  and  C_10
DOCKED: REMARK    7  A    between atoms: C_10  and  C_11
DOCKED: REMARK    8  A    between atoms: N_12  and  C_13
DOCKED: REMARK                            x       y       z     vdW  Elec       q    Type
DOCKED: REMARK                         _______ _______ _______ _____ _____    ______ ____
DOCKED: USER                              x       y       z     vdW  Elec       q    Type
DOCKED: USER                           _______ _______ _______ _____ _____    ______ ____
DOCKED: ROOT
DOCKED: ATOM      1  C   UNL     1      35.867  16.499 123.172 -0.36 -0.00    +0.000 C 
DOCKED: ENDROOT
DOCKED: BRANCH   1   2
DOCKED: ATOM      2  C   UNL     1      37.214  17.094 122.890 -0.23 -0.00    +0.000 C 
DOCKED: ATOM      3  N   UNL     1      38.370  16.623 123.601 -0.26 -0.00    +0.000 N 
DOCKED: ATOM      4  O   UNL     1      37.317  18.008 122.027 -0.13 -0.00    +0.000 OA
DOCKED: ATOM      5  H   UNL     1      38.280  15.799 124.132 -0.02 -0.00    +0.000 HD
DOCKED: BRANCH   3   6
DOCKED: ATOM      6  C   UNL     1      39.649  17.278 123.585 -0.21 -0.00    +0.000 A 
DOCKED: ATOM      7  C   UNL     1      39.783  18.649 123.865 -0.15 -0.00    +0.000 A 
DOCKED: ATOM      8  C   UNL     1      41.047  19.242 123.865 -0.14 -0.00    +0.000 A 
DOCKED: ATOM      9  C   UNL     1      42.170  18.458 123.602 -0.11 -0.00    +0.000 A 
DOCKED: ATOM     10  N   UNL     1      42.031  17.128 123.357 -0.62 -0.00    +0.000 NA
DOCKED: ATOM     11  C   UNL     1      40.811  16.527 123.350 -0.24 -0.00    +0.000 A 
DOCKED: ATOM     12  CM  UNL     1      40.945  17.860 123.598 +0.00 -0.00    +0.000 AC
DOCKED: ENDBRANCH   3   6
DOCKED: ENDBRANCH   1   2
DOCKED: BRANCH   1  12
DOCKED: ATOM     13  C   UNL     1      35.991  15.358 124.190 -0.42 -0.00    +0.000 C 
DOCKED: BRANCH  12  13
DOCKED: ATOM     14  C   UNL     1      36.780  14.152 123.650 -0.46 -0.00    +0.000 C 
DOCKED: BRANCH  13  14
DOCKED: ATOM     15  C   UNL     1      35.918  13.030 123.042 -0.47 -0.00    +0.000 C 
DOCKED: BRANCH  14  15
DOCKED: ATOM     16  C   UNL     1      36.711  11.737 122.784 -0.66 -0.00    +0.000 C 
DOCKED: BRANCH  15  16
DOCKED: ATOM     17  C   UNL     1      35.806  10.579 122.345 -0.65 -0.00    +0.000 C 
DOCKED: BRANCH  16  18
DOCKED: ATOM     18  O   UNL     1      36.965   8.855 121.160 -2.67 -0.00    +0.000 OA
DOCKED: ATOM     19  C   UNL     1      36.555   9.280 122.274 -0.72 -0.00    +0.000 C 
DOCKED: ATOM     20  N   UNL     1      36.780   8.508 123.456 -0.66 -0.00    +0.000 N 
DOCKED: ATOM     21  O   UNL     1      37.442   7.330 123.390 -2.26 -0.00    +0.000 OA
DOCKED: ATOM     22  H   UNL     1      36.451   8.836 124.324 -0.33 -0.00    +0.000 HD
DOCKED: ENDBRANCH  16  18
DOCKED: ENDBRANCH  15  16
DOCKED: ENDBRANCH  14  15
DOCKED: ENDBRANCH  13  14
DOCKED: ENDBRANCH  12  13
DOCKED: ENDBRANCH   1  12
DOCKED: TORSDOF 8DOCKED: TER
DOCKED: ENDMDL
________________________________________________________________________________


	BEGINNING GENETIC ALGORITHM DOCKING 61 of 100
Run: 61 Seed: 1499001935 1113078540 [ Run 61 of 100 GA/GALS ]
Beginning LAMARCKIAN GENETIC ALGORITHM (LGA), with a maximum of 2500000 energy evaluations.

Final-Value: -12.916


	FINAL GENETIC ALGORITHM DOCKED STATE
	_______________________________________________


Detailed state:  trans 36.029 13.393 122.661 quatxyzw -0.405006 -0.706519 0.544166 -0.201701 center 0.003 -0.142 -0.069 ntor 8 -168.5360 -180.0000 111.1983 98.8004 -20.5606 -104.5854 -170.0426 -169.7580
State:	 36.029  13.393 122.661  -0.414 -0.721  0.556 -156.727   -168.54 -180.00  111.20   98.80  -20.56 -104.59 -170.04 -169.76

DOCKED: MODEL       61
DOCKED: USER    Run = 61
DOCKED: USER    DPF = ligand_dock.biased.dpf
DOCKED: USER  
DOCKED: USER    Estimated Free Energy of Binding    =   -9.66 kcal/mol  [=(1)+(2)+(3)-(4)]
DOCKED: USER    Estimated Inhibition Constant, Ki   =   82.64 nM (nanomolar)  [Temperature = 298.15 K]
DOCKED: USER    
DOCKED: USER    (1) Final Intermolecular Energy     =  -12.05 kcal/mol
DOCKED: USER        vdW + Hbond + desolv Energy     =  -12.05 kcal/mol
DOCKED: USER        Electrostatic Energy            =   +0.00 kcal/mol
DOCKED: USER    (2) Final Total Internal Energy     =   -0.87 kcal/mol
DOCKED: USER    (3) Torsional Free Energy           =   +2.39 kcal/mol
DOCKED: USER    (4) Unbound System's Energy  [=(2)] =   -0.87 kcal/mol
DOCKED: USER    
DOCKED: USER    
DOCKED: USER    NEWDPF move ligand.dum.pdbqt
DOCKED: USER    NEWDPF about 0.003000 -0.142000 -0.069000
DOCKED: USER    NEWDPF tran0 36.029236 13.392825 122.661425
DOCKED: USER    NEWDPF quaternion0 -0.405006 -0.706519 0.544166 -0.201701
DOCKED: USER    NEWDPF axisangle0 -0.413505 -0.721345 0.555585 -156.727110
DOCKED: USER    NEWDPF quat0 -0.413505 -0.721345 0.555585 -156.727110
DOCKED: USER    NEWDPF dihe0 -168.54 -180.00 111.20 98.80 -20.56 -104.59 -170.04 -169.76 
DOCKED: USER  keepresnum = 1 
DOCKED: USER  
DOCKED: REMARK  Name = 
DOCKED: REMARK  8 active torsions:
DOCKED: REMARK  status: ('A' for Active; 'I' for Inactive)
DOCKED: REMARK    1  A    between atoms: C_2  and  C_5
DOCKED: REMARK    2  A    between atoms: C_5  and  C_6
DOCKED: REMARK    3  A    between atoms: C_6  and  C_7
DOCKED: REMARK    4  A    between atoms: C_7  and  C_8
DOCKED: REMARK    5  A    between atoms: C_8  and  C_9
DOCKED: REMARK    6  A    between atoms: C_9  and  C_10
DOCKED: REMARK    7  A    between atoms: C_10  and  C_11
DOCKED: REMARK    8  A    between atoms: N_12  and  C_13
DOCKED: REMARK                            x       y       z     vdW  Elec       q    Type
DOCKED: REMARK                         _______ _______ _______ _____ _____    ______ ____
DOCKED: USER                              x       y       z     vdW  Elec       q    Type
DOCKED: USER                           _______ _______ _______ _____ _____    ______ ____
DOCKED: ROOT
DOCKED: ATOM      1  C   UNL     1      36.047  13.228 123.472 -0.61 -0.00    +0.000 C 
DOCKED: ENDROOT
DOCKED: BRANCH   1   2
DOCKED: ATOM      2  C   UNL     1      36.397  11.771 123.479 -0.70 -0.00    +0.000 C 
DOCKED: ATOM      3  N   UNL     1      35.588  10.835 122.749 -0.61 -0.00    +0.000 N 
DOCKED: ATOM      4  O   UNL     1      37.403  11.380 124.131 -0.72 -0.00    +0.000 OA
DOCKED: ATOM      5  H   UNL     1      34.923  11.195 122.117 -0.06 -0.00    +0.000 HD
DOCKED: BRANCH   3   6
DOCKED: ATOM      6  C   UNL     1      35.688   9.407 122.881 -0.59 -0.00    +0.000 A 
DOCKED: ATOM      7  C   UNL     1      34.564   8.572 122.765 -0.59 -0.00    +0.000 A 
DOCKED: ATOM      8  C   UNL     1      34.708   7.188 122.873 -0.65 -0.00    +0.000 A 
DOCKED: ATOM      9  C   UNL     1      35.977   6.646 123.080 -0.69 -0.00    +0.000 A 
DOCKED: ATOM     10  N   UNL     1      37.061   7.463 123.166 -2.28 -0.00    +0.000 NA
DOCKED: ATOM     11  C   UNL     1      36.946   8.814 123.065 -0.60 -0.00    +0.000 A 
DOCKED: ATOM     12  CM  UNL     1      35.858   8.000 122.976 +0.00 -0.00    +0.000 AC
DOCKED: ENDBRANCH   3   6
DOCKED: ENDBRANCH   1   2
DOCKED: BRANCH   1  12
DOCKED: ATOM     13  C   UNL     1      36.711  13.931 122.282 -0.41 -0.00    +0.000 C 
DOCKED: BRANCH  12  13
DOCKED: ATOM     14  C   UNL     1      37.180  12.953 121.190 -0.49 -0.00    +0.000 C 
DOCKED: BRANCH  13  14
DOCKED: ATOM     15  C   UNL     1      38.143  13.553 120.148 -0.37 -0.00    +0.000 C 
DOCKED: BRANCH  14  15
DOCKED: ATOM     16  C   UNL     1      37.415  14.311 119.025 -0.33 -0.00    +0.000 C 
DOCKED: BRANCH  15  16
DOCKED: ATOM     17  C   UNL     1      36.773  13.361 118.005 -0.40 -0.00    +0.000 C 
DOCKED: BRANCH  16  18
DOCKED: ATOM     18  O   UNL     1      37.109  14.213 115.797 -0.31 -0.00    +0.000 OA
DOCKED: ATOM     19  C   UNL     1      37.482  13.398 116.683 -0.42 -0.00    +0.000 C 
DOCKED: ATOM     20  N   UNL     1      38.557  12.496 116.412 -0.40 -0.00    +0.000 N 
DOCKED: ATOM     21  O   UNL     1      39.187  12.520 115.214 -0.71 -0.00    +0.000 OA
DOCKED: ATOM     22  H   UNL     1      38.843  11.853 117.101 -0.11 -0.00    +0.000 HD
DOCKED: ENDBRANCH  16  18
DOCKED: ENDBRANCH  15  16
DOCKED: ENDBRANCH  14  15
DOCKED: ENDBRANCH  13  14
DOCKED: ENDBRANCH  12  13
DOCKED: ENDBRANCH   1  12
DOCKED: TORSDOF 8DOCKED: TER
DOCKED: ENDMDL
________________________________________________________________________________


	BEGINNING GENETIC ALGORITHM DOCKING 62 of 100
Run: 62 Seed: 1123369982 190567189 [ Run 62 of 100 GA/GALS ]
Beginning LAMARCKIAN GENETIC ALGORITHM (LGA), with a maximum of 2500000 energy evaluations.

Final-Value: -12.899


	FINAL GENETIC ALGORITHM DOCKED STATE
	_______________________________________________


Detailed state:  trans 35.009 15.828 124.434 quatxyzw 0.378621 0.357448 0.840264 0.151108 center 0.003 -0.142 -0.069 ntor 8 120.7399 171.7217 -134.6262 42.5376 -119.2875 -70.6354 152.4060 -130.4844
State:	 35.009  15.828 124.434   0.383  0.362  0.850 162.618    120.74  171.72 -134.63   42.54 -119.29  -70.64  152.41 -130.48

DOCKED: MODEL       62
DOCKED: USER    Run = 62
DOCKED: USER    DPF = ligand_dock.biased.dpf
DOCKED: USER  
DOCKED: USER    Estimated Free Energy of Binding    =   -9.70 kcal/mol  [=(1)+(2)+(3)-(4)]
DOCKED: USER    Estimated Inhibition Constant, Ki   =   78.07 nM (nanomolar)  [Temperature = 298.15 K]
DOCKED: USER    
DOCKED: USER    (1) Final Intermolecular Energy     =  -12.08 kcal/mol
DOCKED: USER        vdW + Hbond + desolv Energy     =  -12.08 kcal/mol
DOCKED: USER        Electrostatic Energy            =   +0.00 kcal/mol
DOCKED: USER    (2) Final Total Internal Energy     =   -0.82 kcal/mol
DOCKED: USER    (3) Torsional Free Energy           =   +2.39 kcal/mol
DOCKED: USER    (4) Unbound System's Energy  [=(2)] =   -0.82 kcal/mol
DOCKED: USER    
DOCKED: USER    
DOCKED: USER    NEWDPF move ligand.dum.pdbqt
DOCKED: USER    NEWDPF about 0.003000 -0.142000 -0.069000
DOCKED: USER    NEWDPF tran0 35.008521 15.828484 124.433692
DOCKED: USER    NEWDPF quaternion0 0.378621 0.357448 0.840264 0.151108
DOCKED: USER    NEWDPF axisangle0 0.383019 0.361600 0.850025 162.617726
DOCKED: USER    NEWDPF quat0 0.383019 0.361600 0.850025 162.617726
DOCKED: USER    NEWDPF dihe0 120.74 171.72 -134.63 42.54 -119.29 -70.64 152.41 -130.48 
DOCKED: USER  keepresnum = 1 
DOCKED: USER  
DOCKED: REMARK  Name = 
DOCKED: REMARK  8 active torsions:
DOCKED: REMARK  status: ('A' for Active; 'I' for Inactive)
DOCKED: REMARK    1  A    between atoms: C_2  and  C_5
DOCKED: REMARK    2  A    between atoms: C_5  and  C_6
DOCKED: REMARK    3  A    between atoms: C_6  and  C_7
DOCKED: REMARK    4  A    between atoms: C_7  and  C_8
DOCKED: REMARK    5  A    between atoms: C_8  and  C_9
DOCKED: REMARK    6  A    between atoms: C_9  and  C_10
DOCKED: REMARK    7  A    between atoms: C_10  and  C_11
DOCKED: REMARK    8  A    between atoms: N_12  and  C_13
DOCKED: REMARK                            x       y       z     vdW  Elec       q    Type
DOCKED: REMARK                         _______ _______ _______ _____ _____    ______ ____
DOCKED: USER                              x       y       z     vdW  Elec       q    Type
DOCKED: USER                           _______ _______ _______ _____ _____    ______ ____
DOCKED: ROOT
DOCKED: ATOM      1  C   UNL     1      34.692  16.230 123.782 -0.52 -0.00    +0.000 C 
DOCKED: ENDROOT
DOCKED: BRANCH   1   2
DOCKED: ATOM      2  C   UNL     1      35.933  16.654 123.056 -0.34 -0.00    +0.000 C 
DOCKED: ATOM      3  N   UNL     1      37.202  16.630 123.729 -0.27 -0.00    +0.000 N 
DOCKED: ATOM      4  O   UNL     1      35.848  17.031 121.856 -0.26 -0.00    +0.000 OA
DOCKED: ATOM      5  H   UNL     1      37.255  16.169 124.597 -0.02 -0.00    +0.000 HD
DOCKED: BRANCH   3   6
DOCKED: ATOM      6  C   UNL     1      38.400  17.234 123.213 -0.20 -0.00    +0.000 A 
DOCKED: ATOM      7  C   UNL     1      39.390  16.479 122.563 -0.23 -0.00    +0.000 A 
DOCKED: ATOM      8  C   UNL     1      40.527  17.109 122.052 -0.17 -0.00    +0.000 A 
DOCKED: ATOM      9  C   UNL     1      40.659  18.492 122.182 -0.08 -0.00    +0.000 A 
DOCKED: ATOM     10  N   UNL     1      39.683  19.215 122.792 -0.06 -0.00    +0.000 NA
DOCKED: ATOM     11  C   UNL     1      38.567  18.625 123.298 -0.11 -0.00    +0.000 A 
DOCKED: ATOM     12  CM  UNL     1      39.542  17.896 122.686 +0.00 -0.00    +0.000 AC
DOCKED: ENDBRANCH   3   6
DOCKED: ENDBRANCH   1   2
DOCKED: BRANCH   1  12
DOCKED: ATOM     13  C   UNL     1      34.919  14.886 124.486 -0.44 -0.00    +0.000 C 
DOCKED: BRANCH  12  13
DOCKED: ATOM     14  C   UNL     1      36.106  14.095 123.906 -0.52 -0.00    +0.000 C 
DOCKED: BRANCH  13  14
DOCKED: ATOM     15  C   UNL     1      35.814  12.615 123.599 -0.56 -0.00    +0.000 C 
DOCKED: BRANCH  14  15
DOCKED: ATOM     16  C   UNL     1      37.018  11.880 122.987 -0.65 -0.00    +0.000 C 
DOCKED: BRANCH  15  16
DOCKED: ATOM     17  C   UNL     1      36.629  11.056 121.753 -0.55 -0.00    +0.000 C 
DOCKED: BRANCH  16  18
DOCKED: ATOM     18  O   UNL     1      36.963   8.827 120.955 -2.67 -0.00    +0.000 OA
DOCKED: ATOM     19  C   UNL     1      36.884   9.591 121.955 -0.64 -0.00    +0.000 C 
DOCKED: ATOM     20  N   UNL     1      37.007   9.052 123.273 -0.62 -0.00    +0.000 N 
DOCKED: ATOM     21  O   UNL     1      37.222   7.728 123.456 -2.66 -0.00    +0.000 OA
DOCKED: ATOM     22  H   UNL     1      36.936   9.648 124.054 -0.51 -0.00    +0.000 HD
DOCKED: ENDBRANCH  16  18
DOCKED: ENDBRANCH  15  16
DOCKED: ENDBRANCH  14  15
DOCKED: ENDBRANCH  13  14
DOCKED: ENDBRANCH  12  13
DOCKED: ENDBRANCH   1  12
DOCKED: TORSDOF 8DOCKED: TER
DOCKED: ENDMDL
________________________________________________________________________________


	BEGINNING GENETIC ALGORITHM DOCKING 63 of 100
Run: 63 Seed: 1422497185 2112233304 [ Run 63 of 100 GA/GALS ]
Beginning LAMARCKIAN GENETIC ALGORITHM (LGA), with a maximum of 2500000 energy evaluations.

Final-Value: -13.764


	FINAL GENETIC ALGORITHM DOCKED STATE
	_______________________________________________


Detailed state:  trans 37.830 15.162 121.063 quatxyzw -0.680645 0.098481 0.715474 0.122969 center 0.003 -0.142 -0.069 ntor 8 150.6663 36.0290 161.2410 -151.4901 -119.8023 -47.9818 -130.0445 -155.8093
State:	 37.830  15.162 121.063  -0.686  0.099  0.721 165.873    150.67   36.03  161.24 -151.49 -119.80  -47.98 -130.04 -155.81

DOCKED: MODEL       63
DOCKED: USER    Run = 63
DOCKED: USER    DPF = ligand_dock.biased.dpf
DOCKED: USER  
DOCKED: USER    Estimated Free Energy of Binding    =  -10.35 kcal/mol  [=(1)+(2)+(3)-(4)]
DOCKED: USER    Estimated Inhibition Constant, Ki   =   26.10 nM (nanomolar)  [Temperature = 298.15 K]
DOCKED: USER    
DOCKED: USER    (1) Final Intermolecular Energy     =  -12.73 kcal/mol
DOCKED: USER        vdW + Hbond + desolv Energy     =  -12.73 kcal/mol
DOCKED: USER        Electrostatic Energy            =   +0.00 kcal/mol
DOCKED: USER    (2) Final Total Internal Energy     =   -1.03 kcal/mol
DOCKED: USER    (3) Torsional Free Energy           =   +2.39 kcal/mol
DOCKED: USER    (4) Unbound System's Energy  [=(2)] =   -1.03 kcal/mol
DOCKED: USER    
DOCKED: USER    
DOCKED: USER    NEWDPF move ligand.dum.pdbqt
DOCKED: USER    NEWDPF about 0.003000 -0.142000 -0.069000
DOCKED: USER    NEWDPF tran0 37.829885 15.161981 121.062544
DOCKED: USER    NEWDPF quaternion0 -0.680645 0.098481 0.715474 0.122969
DOCKED: USER    NEWDPF axisangle0 -0.685850 0.099234 0.720945 165.873014
DOCKED: USER    NEWDPF quat0 -0.685850 0.099234 0.720945 165.873014
DOCKED: USER    NEWDPF dihe0 150.67 36.03 161.24 -151.49 -119.80 -47.98 -130.04 -155.81 
DOCKED: USER  keepresnum = 1 
DOCKED: USER  
DOCKED: REMARK  Name = 
DOCKED: REMARK  8 active torsions:
DOCKED: REMARK  status: ('A' for Active; 'I' for Inactive)
DOCKED: REMARK    1  A    between atoms: C_2  and  C_5
DOCKED: REMARK    2  A    between atoms: C_5  and  C_6
DOCKED: REMARK    3  A    between atoms: C_6  and  C_7
DOCKED: REMARK    4  A    between atoms: C_7  and  C_8
DOCKED: REMARK    5  A    between atoms: C_8  and  C_9
DOCKED: REMARK    6  A    between atoms: C_9  and  C_10
DOCKED: REMARK    7  A    between atoms: C_10  and  C_11
DOCKED: REMARK    8  A    between atoms: N_12  and  C_13
DOCKED: REMARK                            x       y       z     vdW  Elec       q    Type
DOCKED: REMARK                         _______ _______ _______ _____ _____    ______ ____
DOCKED: USER                              x       y       z     vdW  Elec       q    Type
DOCKED: USER                           _______ _______ _______ _____ _____    ______ ____
DOCKED: ROOT
DOCKED: ATOM      1  C   UNL     1      37.987  15.975 121.071 -0.21 -0.00    +0.000 C 
DOCKED: ENDROOT
DOCKED: BRANCH   1   2
DOCKED: ATOM      2  C   UNL     1      37.421  16.379 122.399 -0.25 -0.00    +0.000 C 
DOCKED: ATOM      3  N   UNL     1      36.167  15.834 122.840 -0.33 -0.00    +0.000 N 
DOCKED: ATOM      4  O   UNL     1      38.055  17.199 123.117 -0.22 -0.00    +0.000 OA
DOCKED: ATOM      5  H   UNL     1      35.793  15.073 122.339 -0.01 -0.00    +0.000 HD
DOCKED: BRANCH   3   6
DOCKED: ATOM      6  C   UNL     1      35.425  16.328 123.968 -0.39 -0.00    +0.000 A 
DOCKED: ATOM      7  C   UNL     1      34.396  15.579 124.563 -0.52 -0.00    +0.000 A 
DOCKED: ATOM      8  C   UNL     1      33.718  16.084 125.674 -0.28 -0.00    +0.000 A 
DOCKED: ATOM      9  C   UNL     1      34.082  17.327 126.192 -0.35 -0.00    +0.000 A 
DOCKED: ATOM     10  N   UNL     1      35.096  18.032 125.622 -0.27 -0.00    +0.000 NA
DOCKED: ATOM     11  C   UNL     1      35.771  17.562 124.539 -0.27 -0.00    +0.000 A 
DOCKED: ATOM     12  CM  UNL     1      34.758  16.851 125.108 -0.27 -0.00    +0.000 AC
DOCKED: ENDBRANCH   3   6
DOCKED: ENDBRANCH   1   2
DOCKED: BRANCH   1  12
DOCKED: ATOM     13  C   UNL     1      38.549  14.549 121.142 -0.35 -0.00    +0.000 C 
DOCKED: BRANCH  12  13
DOCKED: ATOM     14  C   UNL     1      37.500  13.510 121.578 -0.46 -0.00    +0.000 C 
DOCKED: BRANCH  13  14
DOCKED: ATOM     15  C   UNL     1      37.704  12.931 122.990 -0.50 -0.00    +0.000 C 
DOCKED: BRANCH  14  15
DOCKED: ATOM     16  C   UNL     1      36.603  11.936 123.396 -0.69 -0.00    +0.000 C 
DOCKED: BRANCH  15  16
DOCKED: ATOM     17  C   UNL     1      36.075  11.134 122.199 -0.62 -0.00    +0.000 C 
DOCKED: BRANCH  16  18
DOCKED: ATOM     18  O   UNL     1      37.066   9.215 121.174 -2.74 -0.00    +0.000 OA
DOCKED: ATOM     19  C   UNL     1      36.565   9.715 122.217 -0.68 -0.00    +0.000 C 
DOCKED: ATOM     20  N   UNL     1      36.439   8.920 123.398 -0.57 -0.00    +0.000 N 
DOCKED: ATOM     21  O   UNL     1      36.868   7.636 123.409 -2.51 -0.00    +0.000 OA
DOCKED: ATOM     22  H   UNL     1      36.039   9.309 124.209 -0.24 -0.00    +0.000 HD
DOCKED: ENDBRANCH  16  18
DOCKED: ENDBRANCH  15  16
DOCKED: ENDBRANCH  14  15
DOCKED: ENDBRANCH  13  14
DOCKED: ENDBRANCH  12  13
DOCKED: ENDBRANCH   1  12
DOCKED: TORSDOF 8DOCKED: TER
DOCKED: ENDMDL
________________________________________________________________________________


	BEGINNING GENETIC ALGORITHM DOCKING 64 of 100
Run: 64 Seed: 1716393270 848763853 [ Run 64 of 100 GA/GALS ]
Beginning LAMARCKIAN GENETIC ALGORITHM (LGA), with a maximum of 2500000 energy evaluations.

Final-Value: -13.882


	FINAL GENETIC ALGORITHM DOCKED STATE
	_______________________________________________


Detailed state:  trans 36.553 11.744 122.623 quatxyzw -0.099562 -0.490715 0.437186 -0.747098 center 0.003 -0.142 -0.069 ntor 8 -45.6282 171.6463 74.9823 -92.3278 137.5975 -106.5380 80.4483 176.0094
State:	 36.553  11.744 122.623  -0.150 -0.738  0.658 -83.321    -45.63  171.65   74.98  -92.33  137.60 -106.54   80.45  176.01

DOCKED: MODEL       64
DOCKED: USER    Run = 64
DOCKED: USER    DPF = ligand_dock.biased.dpf
DOCKED: USER  
DOCKED: USER    Estimated Free Energy of Binding    =  -10.63 kcal/mol  [=(1)+(2)+(3)-(4)]
DOCKED: USER    Estimated Inhibition Constant, Ki   =   16.15 nM (nanomolar)  [Temperature = 298.15 K]
DOCKED: USER    
DOCKED: USER    (1) Final Intermolecular Energy     =  -13.02 kcal/mol
DOCKED: USER        vdW + Hbond + desolv Energy     =  -13.02 kcal/mol
DOCKED: USER        Electrostatic Energy            =   +0.00 kcal/mol
DOCKED: USER    (2) Final Total Internal Energy     =   -0.87 kcal/mol
DOCKED: USER    (3) Torsional Free Energy           =   +2.39 kcal/mol
DOCKED: USER    (4) Unbound System's Energy  [=(2)] =   -0.87 kcal/mol
DOCKED: USER    
DOCKED: USER    
DOCKED: USER    NEWDPF move ligand.dum.pdbqt
DOCKED: USER    NEWDPF about 0.003000 -0.142000 -0.069000
DOCKED: USER    NEWDPF tran0 36.553012 11.744246 122.622601
DOCKED: USER    NEWDPF quaternion0 -0.099562 -0.490715 0.437186 -0.747098
DOCKED: USER    NEWDPF axisangle0 -0.149782 -0.738235 0.657705 -83.320811
DOCKED: USER    NEWDPF quat0 -0.149782 -0.738235 0.657705 -83.320811
DOCKED: USER    NEWDPF dihe0 -45.63 171.65 74.98 -92.33 137.60 -106.54 80.45 176.01 
DOCKED: USER  keepresnum = 1 
DOCKED: USER  
DOCKED: REMARK  Name = 
DOCKED: REMARK  8 active torsions:
DOCKED: REMARK  status: ('A' for Active; 'I' for Inactive)
DOCKED: REMARK    1  A    between atoms: C_2  and  C_5
DOCKED: REMARK    2  A    between atoms: C_5  and  C_6
DOCKED: REMARK    3  A    between atoms: C_6  and  C_7
DOCKED: REMARK    4  A    between atoms: C_7  and  C_8
DOCKED: REMARK    5  A    between atoms: C_8  and  C_9
DOCKED: REMARK    6  A    between atoms: C_9  and  C_10
DOCKED: REMARK    7  A    between atoms: C_10  and  C_11
DOCKED: REMARK    8  A    between atoms: N_12  and  C_13
DOCKED: REMARK                            x       y       z     vdW  Elec       q    Type
DOCKED: REMARK                         _______ _______ _______ _____ _____    ______ ____
DOCKED: USER                              x       y       z     vdW  Elec       q    Type
DOCKED: USER                           _______ _______ _______ _____ _____    ______ ____
DOCKED: ROOT
DOCKED: ATOM      1  C   UNL     1      37.087  11.137 122.802 -0.59 -0.00    +0.000 C 
DOCKED: ENDROOT
DOCKED: BRANCH   1   2
DOCKED: ATOM      2  C   UNL     1      36.387   9.940 122.234 -0.66 -0.00    +0.000 C 
DOCKED: ATOM      3  N   UNL     1      35.187   9.449 122.853 -0.60 -0.00    +0.000 N 
DOCKED: ATOM      4  O   UNL     1      36.863   9.373 121.213 -2.54 -0.00    +0.000 OA
DOCKED: ATOM      5  H   UNL     1      34.754  10.015 123.532 -0.46 -0.00    +0.000 HD
DOCKED: BRANCH   3   6
DOCKED: ATOM      6  C   UNL     1      34.578   8.185 122.542 -0.61 -0.00    +0.000 A 
DOCKED: ATOM      7  C   UNL     1      34.586   7.115 123.453 -0.69 -0.00    +0.000 A 
DOCKED: ATOM      8  C   UNL     1      33.960   5.911 123.123 -0.47 -0.00    +0.000 A 
DOCKED: ATOM      9  C   UNL     1      33.316   5.790 121.891 -0.47 -0.00    +0.000 A 
DOCKED: ATOM     10  N   UNL     1      33.295   6.841 121.027 -0.53 -0.00    +0.000 NA
DOCKED: ATOM     11  C   UNL     1      33.898   8.023 121.326 -0.58 -0.00    +0.000 A 
DOCKED: ATOM     12  CM  UNL     1      33.921   6.974 122.195 +0.00 -0.00    +0.000 AC
DOCKED: ENDBRANCH   3   6
DOCKED: ENDBRANCH   1   2
DOCKED: BRANCH   1  12
DOCKED: ATOM     13  C   UNL     1      36.782  12.383 121.961 -0.55 -0.00    +0.000 C 
DOCKED: BRANCH  12  13
DOCKED: ATOM     14  C   UNL     1      37.816  12.624 120.846 -0.50 -0.00    +0.000 C 
DOCKED: BRANCH  13  14
DOCKED: ATOM     15  C   UNL     1      37.730  14.003 120.165 -0.37 -0.00    +0.000 C 
DOCKED: BRANCH  14  15
DOCKED: ATOM     16  C   UNL     1      38.297  15.138 121.036 -0.29 -0.00    +0.000 C 
DOCKED: BRANCH  15  16
DOCKED: ATOM     17  C   UNL     1      39.780  15.405 120.748 -0.24 -0.00    +0.000 C 
DOCKED: BRANCH  16  18
DOCKED: ATOM     18  O   UNL     1      40.311  14.267 122.783 -0.97 +0.00    +0.000 OA
DOCKED: ATOM     19  C   UNL     1      40.637  15.162 121.956 -0.42 -0.00    +0.000 C 
DOCKED: ATOM     20  N   UNL     1      41.800  15.958 122.191 -0.37 -0.00    +0.000 N 
DOCKED: ATOM     21  O   UNL     1      42.564  15.748 123.289 -1.11 +0.00    +0.000 OA
DOCKED: ATOM     22  H   UNL     1      42.048  16.663 121.550 +0.00 -0.00    +0.000 HD
DOCKED: ENDBRANCH  16  18
DOCKED: ENDBRANCH  15  16
DOCKED: ENDBRANCH  14  15
DOCKED: ENDBRANCH  13  14
DOCKED: ENDBRANCH  12  13
DOCKED: ENDBRANCH   1  12
DOCKED: TORSDOF 8DOCKED: TER
DOCKED: ENDMDL
________________________________________________________________________________


	BEGINNING GENETIC ALGORITHM DOCKING 65 of 100
Run: 65 Seed: 1441374218 1867937222 [ Run 65 of 100 GA/GALS ]
Beginning LAMARCKIAN GENETIC ALGORITHM (LGA), with a maximum of 2500000 energy evaluations.

Final-Value: -13.663


	FINAL GENETIC ALGORITHM DOCKED STATE
	_______________________________________________


Detailed state:  trans 37.073 13.837 122.651 quatxyzw -0.606448 -0.651381 0.004123 0.455968 center 0.003 -0.142 -0.069 ntor 8 168.9255 19.9752 92.0247 -170.8565 -48.7466 -144.2411 -13.3249 114.4833
State:	 37.073  13.837 122.651  -0.681 -0.732  0.005 125.746    168.93   19.98   92.02 -170.86  -48.75 -144.24  -13.32  114.48

DOCKED: MODEL       65
DOCKED: USER    Run = 65
DOCKED: USER    DPF = ligand_dock.biased.dpf
DOCKED: USER  
DOCKED: USER    Estimated Free Energy of Binding    =  -10.22 kcal/mol  [=(1)+(2)+(3)-(4)]
DOCKED: USER    Estimated Inhibition Constant, Ki   =   32.37 nM (nanomolar)  [Temperature = 298.15 K]
DOCKED: USER    
DOCKED: USER    (1) Final Intermolecular Energy     =  -12.60 kcal/mol
DOCKED: USER        vdW + Hbond + desolv Energy     =  -12.60 kcal/mol
DOCKED: USER        Electrostatic Energy            =   +0.00 kcal/mol
DOCKED: USER    (2) Final Total Internal Energy     =   -1.06 kcal/mol
DOCKED: USER    (3) Torsional Free Energy           =   +2.39 kcal/mol
DOCKED: USER    (4) Unbound System's Energy  [=(2)] =   -1.06 kcal/mol
DOCKED: USER    
DOCKED: USER    
DOCKED: USER    NEWDPF move ligand.dum.pdbqt
DOCKED: USER    NEWDPF about 0.003000 -0.142000 -0.069000
DOCKED: USER    NEWDPF tran0 37.072963 13.837022 122.650732
DOCKED: USER    NEWDPF quaternion0 -0.606448 -0.651381 0.004123 0.455968
DOCKED: USER    NEWDPF axisangle0 -0.681405 -0.731892 0.004632 125.745527
DOCKED: USER    NEWDPF quat0 -0.681405 -0.731892 0.004632 125.745527
DOCKED: USER    NEWDPF dihe0 168.93 19.98 92.02 -170.86 -48.75 -144.24 -13.32 114.48 
DOCKED: USER  keepresnum = 1 
DOCKED: USER  
DOCKED: REMARK  Name = 
DOCKED: REMARK  8 active torsions:
DOCKED: REMARK  status: ('A' for Active; 'I' for Inactive)
DOCKED: REMARK    1  A    between atoms: C_2  and  C_5
DOCKED: REMARK    2  A    between atoms: C_5  and  C_6
DOCKED: REMARK    3  A    between atoms: C_6  and  C_7
DOCKED: REMARK    4  A    between atoms: C_7  and  C_8
DOCKED: REMARK    5  A    between atoms: C_8  and  C_9
DOCKED: REMARK    6  A    between atoms: C_9  and  C_10
DOCKED: REMARK    7  A    between atoms: C_10  and  C_11
DOCKED: REMARK    8  A    between atoms: N_12  and  C_13
DOCKED: REMARK                            x       y       z     vdW  Elec       q    Type
DOCKED: REMARK                         _______ _______ _______ _____ _____    ______ ____
DOCKED: USER                              x       y       z     vdW  Elec       q    Type
DOCKED: USER                           _______ _______ _______ _____ _____    ______ ____
DOCKED: ROOT
DOCKED: ATOM      1  C   UNL     1      36.322  13.525 122.497 -0.36 -0.00    +0.000 C 
DOCKED: ENDROOT
DOCKED: BRANCH   1   2
DOCKED: ATOM      2  C   UNL     1      36.485  12.104 122.948 -0.66 -0.00    +0.000 C 
DOCKED: ATOM      3  N   UNL     1      36.064  11.028 122.094 -0.57 -0.00    +0.000 N 
DOCKED: ATOM      4  O   UNL     1      36.993  11.869 124.077 -0.74 -0.00    +0.000 OA
DOCKED: ATOM      5  H   UNL     1      35.838  11.242 121.160 -0.30 -0.00    +0.000 HD
DOCKED: BRANCH   3   6
DOCKED: ATOM      6  C   UNL     1      35.952   9.659 122.518 -0.60 -0.00    +0.000 A 
DOCKED: ATOM      7  C   UNL     1      34.770   8.921 122.334 -0.59 -0.00    +0.000 A 
DOCKED: ATOM      8  C   UNL     1      34.712   7.585 122.736 -0.63 -0.00    +0.000 A 
DOCKED: ATOM      9  C   UNL     1      35.839   6.991 123.305 -0.63 -0.00    +0.000 A 
DOCKED: ATOM     10  N   UNL     1      36.984   7.710 123.456 -2.52 -0.00    +0.000 NA
DOCKED: ATOM     11  C   UNL     1      37.066   9.012 123.073 -0.55 -0.00    +0.000 A 
DOCKED: ATOM     12  CM  UNL     1      35.917   8.296 122.918 +0.00 -0.00    +0.000 AC
DOCKED: ENDBRANCH   3   6
DOCKED: ENDBRANCH   1   2
DOCKED: BRANCH   1  12
DOCKED: ATOM     13  C   UNL     1      37.181  14.460 123.357 -0.46 -0.00    +0.000 C 
DOCKED: BRANCH  12  13
DOCKED: ATOM     14  C   UNL     1      37.167  15.917 122.861 -0.33 -0.00    +0.000 C 
DOCKED: BRANCH  13  14
DOCKED: ATOM     15  C   UNL     1      37.456  16.976 123.941 -0.21 -0.00    +0.000 C 
DOCKED: BRANCH  14  15
DOCKED: ATOM     16  C   UNL     1      36.227  17.835 124.283 -0.26 -0.00    +0.000 C 
DOCKED: BRANCH  15  16
DOCKED: ATOM     17  C   UNL     1      34.927  17.233 123.737 -0.41 -0.00    +0.000 C 
DOCKED: BRANCH  16  18
DOCKED: ATOM     18  O   UNL     1      34.219  15.070 124.470 -0.65 -0.00    +0.000 OA
DOCKED: ATOM     19  C   UNL     1      34.283  16.304 124.724 -0.52 -0.00    +0.000 C 
DOCKED: ATOM     20  N   UNL     1      33.717  16.811 125.934 -0.44 -0.00    +0.000 N 
DOCKED: ATOM     21  O   UNL     1      33.123  15.974 126.817 -1.16 -0.00    +0.000 OA
DOCKED: ATOM     22  H   UNL     1      33.759  17.776 126.127 -0.01 -0.00    +0.000 HD
DOCKED: ENDBRANCH  16  18
DOCKED: ENDBRANCH  15  16
DOCKED: ENDBRANCH  14  15
DOCKED: ENDBRANCH  13  14
DOCKED: ENDBRANCH  12  13
DOCKED: ENDBRANCH   1  12
DOCKED: TORSDOF 8DOCKED: TER
DOCKED: ENDMDL
________________________________________________________________________________


	BEGINNING GENETIC ALGORITHM DOCKING 66 of 100
Run: 66 Seed: 1428659109 1381353908 [ Run 66 of 100 GA/GALS ]
Beginning LAMARCKIAN GENETIC ALGORITHM (LGA), with a maximum of 2500000 energy evaluations.

Final-Value: -13.497


	FINAL GENETIC ALGORITHM DOCKED STATE
	_______________________________________________


Detailed state:  trans 37.813 14.361 121.074 quatxyzw -0.370361 0.901351 0.062521 -0.215616 center 0.003 -0.142 -0.069 ntor 8 111.0654 111.6486 -136.3390 -169.8241 -42.3609 93.5944 41.2823 62.3700
State:	 37.813  14.361 121.074  -0.379  0.923  0.064 -155.097    111.07  111.65 -136.34 -169.82  -42.36   93.59   41.28   62.37

DOCKED: MODEL       66
DOCKED: USER    Run = 66
DOCKED: USER    DPF = ligand_dock.biased.dpf
DOCKED: USER  
DOCKED: USER    Estimated Free Energy of Binding    =  -10.15 kcal/mol  [=(1)+(2)+(3)-(4)]
DOCKED: USER    Estimated Inhibition Constant, Ki   =   36.50 nM (nanomolar)  [Temperature = 298.15 K]
DOCKED: USER    
DOCKED: USER    (1) Final Intermolecular Energy     =  -12.53 kcal/mol
DOCKED: USER        vdW + Hbond + desolv Energy     =  -12.53 kcal/mol
DOCKED: USER        Electrostatic Energy            =   +0.00 kcal/mol
DOCKED: USER    (2) Final Total Internal Energy     =   -0.96 kcal/mol
DOCKED: USER    (3) Torsional Free Energy           =   +2.39 kcal/mol
DOCKED: USER    (4) Unbound System's Energy  [=(2)] =   -0.96 kcal/mol
DOCKED: USER    
DOCKED: USER    
DOCKED: USER    NEWDPF move ligand.dum.pdbqt
DOCKED: USER    NEWDPF about 0.003000 -0.142000 -0.069000
DOCKED: USER    NEWDPF tran0 37.812589 14.361042 121.074132
DOCKED: USER    NEWDPF quaternion0 -0.370361 0.901351 0.062521 -0.215616
DOCKED: USER    NEWDPF axisangle0 -0.379282 0.923063 0.064027 -155.096682
DOCKED: USER    NEWDPF quat0 -0.379282 0.923063 0.064027 -155.096682
DOCKED: USER    NEWDPF dihe0 111.07 111.65 -136.34 -169.82 -42.36 93.59 41.28 62.37 
DOCKED: USER  keepresnum = 1 
DOCKED: USER  
DOCKED: REMARK  Name = 
DOCKED: REMARK  8 active torsions:
DOCKED: REMARK  status: ('A' for Active; 'I' for Inactive)
DOCKED: REMARK    1  A    between atoms: C_2  and  C_5
DOCKED: REMARK    2  A    between atoms: C_5  and  C_6
DOCKED: REMARK    3  A    between atoms: C_6  and  C_7
DOCKED: REMARK    4  A    between atoms: C_7  and  C_8
DOCKED: REMARK    5  A    between atoms: C_8  and  C_9
DOCKED: REMARK    6  A    between atoms: C_9  and  C_10
DOCKED: REMARK    7  A    between atoms: C_10  and  C_11
DOCKED: REMARK    8  A    between atoms: N_12  and  C_13
DOCKED: REMARK                            x       y       z     vdW  Elec       q    Type
DOCKED: REMARK                         _______ _______ _______ _____ _____    ______ ____
DOCKED: USER                              x       y       z     vdW  Elec       q    Type
DOCKED: USER                           _______ _______ _______ _____ _____    ______ ____
DOCKED: ROOT
DOCKED: ATOM      1  C   UNL     1      38.451  13.936 121.386 -0.40 -0.00    +0.000 C 
DOCKED: ENDROOT
DOCKED: BRANCH   1   2
DOCKED: ATOM      2  C   UNL     1      39.526  14.980 121.416 -0.34 -0.00    +0.000 C 
DOCKED: ATOM      3  N   UNL     1      40.815  14.666 121.969 -0.41 -0.00    +0.000 N 
DOCKED: ATOM      4  O   UNL     1      39.286  16.128 120.953 -0.18 -0.00    +0.000 OA
DOCKED: ATOM      5  H   UNL     1      41.019  13.722 122.156 -0.03 +0.00    +0.000 HD
DOCKED: BRANCH   3   6
DOCKED: ATOM      6  C   UNL     1      41.825  15.645 122.264 -0.42 -0.00    +0.000 A 
DOCKED: ATOM      7  C   UNL     1      42.923  15.856 121.413 -0.29 -0.00    +0.000 A 
DOCKED: ATOM      8  C   UNL     1      43.869  16.835 121.722 -0.27 -0.00    +0.000 A 
DOCKED: ATOM      9  C   UNL     1      43.702  17.609 122.871 -0.22 -0.00    +0.000 A 
DOCKED: ATOM     10  N   UNL     1      42.623  17.412 123.674 -0.47 -0.00    +0.000 NA
DOCKED: ATOM     11  C   UNL     1      41.688  16.464 123.395 -0.25 -0.00    +0.000 A 
DOCKED: ATOM     12  CM  UNL     1      42.768  16.658 122.586 +0.00 -0.00    +0.000 AC
DOCKED: ENDBRANCH   3   6
DOCKED: ENDBRANCH   1   2
DOCKED: BRANCH   1  12
DOCKED: ATOM     13  C   UNL     1      37.079  14.575 121.635 -0.33 -0.00    +0.000 C 
DOCKED: BRANCH  12  13
DOCKED: ATOM     14  C   UNL     1      36.257  13.839 122.708 -0.38 -0.00    +0.000 C 
DOCKED: BRANCH  13  14
DOCKED: ATOM     15  C   UNL     1      37.086  13.189 123.831 -0.38 -0.00    +0.000 C 
DOCKED: BRANCH  14  15
DOCKED: ATOM     16  C   UNL     1      37.190  11.660 123.692 -0.59 -0.00    +0.000 C 
DOCKED: BRANCH  15  16
DOCKED: ATOM     17  C   UNL     1      36.772  11.174 122.299 -0.62 -0.00    +0.000 C 
DOCKED: BRANCH  16  18
DOCKED: ATOM     18  O   UNL     1      36.690   9.131 121.059 -2.60 +0.00    +0.000 OA
DOCKED: ATOM     19  C   UNL     1      36.834   9.679 122.186 -0.65 -0.00    +0.000 C 
DOCKED: ATOM     20  N   UNL     1      37.027   8.872 123.349 -0.63 -0.00    +0.000 N 
DOCKED: ATOM     21  O   UNL     1      37.069   7.522 123.249 -2.48 -0.00    +0.000 OA
DOCKED: ATOM     22  H   UNL     1      37.130   9.300 124.230 -0.58 -0.00    +0.000 HD
DOCKED: ENDBRANCH  16  18
DOCKED: ENDBRANCH  15  16
DOCKED: ENDBRANCH  14  15
DOCKED: ENDBRANCH  13  14
DOCKED: ENDBRANCH  12  13
DOCKED: ENDBRANCH   1  12
DOCKED: TORSDOF 8DOCKED: TER
DOCKED: ENDMDL
________________________________________________________________________________


	BEGINNING GENETIC ALGORITHM DOCKING 67 of 100
Run: 67 Seed: 1208417896 261663891 [ Run 67 of 100 GA/GALS ]
Beginning LAMARCKIAN GENETIC ALGORITHM (LGA), with a maximum of 2500000 energy evaluations.

Final-Value: -13.761


	FINAL GENETIC ALGORITHM DOCKED STATE
	_______________________________________________


Detailed state:  trans 36.184 16.139 123.511 quatxyzw -0.159672 -0.260057 -0.949162 0.077243 center 0.003 -0.142 -0.069 ntor 8 132.7258 65.0553 166.6762 -134.2144 174.0279 173.5498 119.6236 26.8713
State:	 36.184  16.139 123.511  -0.160 -0.261 -0.952 171.140    132.73   65.06  166.68 -134.21  174.03  173.55  119.62   26.87

DOCKED: MODEL       67
DOCKED: USER    Run = 67
DOCKED: USER    DPF = ligand_dock.biased.dpf
DOCKED: USER  
DOCKED: USER    Estimated Free Energy of Binding    =  -10.43 kcal/mol  [=(1)+(2)+(3)-(4)]
DOCKED: USER    Estimated Inhibition Constant, Ki   =   22.78 nM (nanomolar)  [Temperature = 298.15 K]
DOCKED: USER    
DOCKED: USER    (1) Final Intermolecular Energy     =  -12.81 kcal/mol
DOCKED: USER        vdW + Hbond + desolv Energy     =  -12.81 kcal/mol
DOCKED: USER        Electrostatic Energy            =   +0.00 kcal/mol
DOCKED: USER    (2) Final Total Internal Energy     =   -0.95 kcal/mol
DOCKED: USER    (3) Torsional Free Energy           =   +2.39 kcal/mol
DOCKED: USER    (4) Unbound System's Energy  [=(2)] =   -0.95 kcal/mol
DOCKED: USER    
DOCKED: USER    
DOCKED: USER    NEWDPF move ligand.dum.pdbqt
DOCKED: USER    NEWDPF about 0.003000 -0.142000 -0.069000
DOCKED: USER    NEWDPF tran0 36.184352 16.138829 123.511180
DOCKED: USER    NEWDPF quaternion0 -0.159672 -0.260057 -0.949162 0.077243
DOCKED: USER    NEWDPF axisangle0 -0.160150 -0.260837 -0.952006 171.139749
DOCKED: USER    NEWDPF quat0 -0.160150 -0.260837 -0.952006 171.139749
DOCKED: USER    NEWDPF dihe0 132.73 65.06 166.68 -134.21 174.03 173.55 119.62 26.87 
DOCKED: USER  keepresnum = 1 
DOCKED: USER  
DOCKED: REMARK  Name = 
DOCKED: REMARK  8 active torsions:
DOCKED: REMARK  status: ('A' for Active; 'I' for Inactive)
DOCKED: REMARK    1  A    between atoms: C_2  and  C_5
DOCKED: REMARK    2  A    between atoms: C_5  and  C_6
DOCKED: REMARK    3  A    between atoms: C_6  and  C_7
DOCKED: REMARK    4  A    between atoms: C_7  and  C_8
DOCKED: REMARK    5  A    between atoms: C_8  and  C_9
DOCKED: REMARK    6  A    between atoms: C_9  and  C_10
DOCKED: REMARK    7  A    between atoms: C_10  and  C_11
DOCKED: REMARK    8  A    between atoms: N_12  and  C_13
DOCKED: REMARK                            x       y       z     vdW  Elec       q    Type
DOCKED: REMARK                         _______ _______ _______ _____ _____    ______ ____
DOCKED: USER                              x       y       z     vdW  Elec       q    Type
DOCKED: USER                           _______ _______ _______ _____ _____    ______ ____
DOCKED: ROOT
DOCKED: ATOM      1  C   UNL     1      36.422  16.645 122.901 -0.30 -0.00    +0.000 C 
DOCKED: ENDROOT
DOCKED: BRANCH   1   2
DOCKED: ATOM      2  C   UNL     1      37.913  16.625 123.052 -0.26 -0.00    +0.000 C 
DOCKED: ATOM      3  N   UNL     1      38.753  16.617 121.886 -0.16 -0.00    +0.000 N 
DOCKED: ATOM      4  O   UNL     1      38.416  16.614 124.208 -0.22 -0.00    +0.000 OA
DOCKED: ATOM      5  H   UNL     1      38.333  16.801 121.015 +0.01 -0.00    +0.000 HD
DOCKED: BRANCH   3   6
DOCKED: ATOM      6  C   UNL     1      40.166  16.357 121.912 -0.22 -0.00    +0.000 A 
DOCKED: ATOM      7  C   UNL     1      41.016  16.781 120.876 -0.14 -0.00    +0.000 A 
DOCKED: ATOM      8  C   UNL     1      42.388  16.533 120.953 -0.20 -0.00    +0.000 A 
DOCKED: ATOM      9  C   UNL     1      42.904  15.877 122.071 -0.32 -0.00    +0.000 A 
DOCKED: ATOM     10  N   UNL     1      42.074  15.493 123.078 -1.04 +0.00    +0.000 NA
DOCKED: ATOM     11  C   UNL     1      40.735  15.723 123.027 -0.27 -0.00    +0.000 A 
DOCKED: ATOM     12  CM  UNL     1      41.562  16.111 122.016 +0.00 -0.00    +0.000 AC
DOCKED: ENDBRANCH   3   6
DOCKED: ENDBRANCH   1   2
DOCKED: BRANCH   1  12
DOCKED: ATOM     13  C   UNL     1      35.827  15.288 123.296 -0.45 -0.00    +0.000 C 
DOCKED: BRANCH  12  13
DOCKED: ATOM     14  C   UNL     1      36.484  14.105 122.562 -0.38 -0.00    +0.000 C 
DOCKED: BRANCH  13  14
DOCKED: ATOM     15  C   UNL     1      37.313  13.164 123.456 -0.57 -0.00    +0.000 C 
DOCKED: BRANCH  14  15
DOCKED: ATOM     16  C   UNL     1      36.682  11.769 123.608 -0.70 -0.00    +0.000 C 
DOCKED: BRANCH  15  16
DOCKED: ATOM     17  C   UNL     1      36.315  11.148 122.254 -0.65 -0.00    +0.000 C 
DOCKED: BRANCH  16  18
DOCKED: ATOM     18  O   UNL     1      37.054   9.216 121.055 -2.73 -0.00    +0.000 OA
DOCKED: ATOM     19  C   UNL     1      36.729   9.707 122.170 -0.68 -0.00    +0.000 C 
DOCKED: ATOM     20  N   UNL     1      36.730   8.884 123.337 -0.61 -0.00    +0.000 N 
DOCKED: ATOM     21  O   UNL     1      37.090   7.581 123.258 -2.51 -0.00    +0.000 OA
DOCKED: ATOM     22  H   UNL     1      36.468   9.266 124.206 -0.41 -0.00    +0.000 HD
DOCKED: ENDBRANCH  16  18
DOCKED: ENDBRANCH  15  16
DOCKED: ENDBRANCH  14  15
DOCKED: ENDBRANCH  13  14
DOCKED: ENDBRANCH  12  13
DOCKED: ENDBRANCH   1  12
DOCKED: TORSDOF 8DOCKED: TER
DOCKED: ENDMDL
________________________________________________________________________________


	BEGINNING GENETIC ALGORITHM DOCKING 68 of 100
Run: 68 Seed: 1132314405 1451161584 [ Run 68 of 100 GA/GALS ]
Beginning LAMARCKIAN GENETIC ALGORITHM (LGA), with a maximum of 2500000 energy evaluations.

Final-Value: -13.073


	FINAL GENETIC ALGORITHM DOCKED STATE
	_______________________________________________


Detailed state:  trans 36.989 13.455 122.735 quatxyzw 0.627233 0.700347 -0.057167 -0.335894 center 0.003 -0.142 -0.069 ntor 8 1.5197 -91.8150 107.0286 102.6000 -82.7907 -167.3070 -87.5954 110.8553
State:	 36.989  13.455 122.735   0.666  0.744 -0.061 -140.746      1.52  -91.82  107.03  102.60  -82.79 -167.31  -87.60  110.86

DOCKED: MODEL       68
DOCKED: USER    Run = 68
DOCKED: USER    DPF = ligand_dock.biased.dpf
DOCKED: USER  
DOCKED: USER    Estimated Free Energy of Binding    =  -10.01 kcal/mol  [=(1)+(2)+(3)-(4)]
DOCKED: USER    Estimated Inhibition Constant, Ki   =   45.95 nM (nanomolar)  [Temperature = 298.15 K]
DOCKED: USER    
DOCKED: USER    (1) Final Intermolecular Energy     =  -12.40 kcal/mol
DOCKED: USER        vdW + Hbond + desolv Energy     =  -12.40 kcal/mol
DOCKED: USER        Electrostatic Energy            =   +0.00 kcal/mol
DOCKED: USER    (2) Final Total Internal Energy     =   -0.68 kcal/mol
DOCKED: USER    (3) Torsional Free Energy           =   +2.39 kcal/mol
DOCKED: USER    (4) Unbound System's Energy  [=(2)] =   -0.68 kcal/mol
DOCKED: USER    
DOCKED: USER    
DOCKED: USER    NEWDPF move ligand.dum.pdbqt
DOCKED: USER    NEWDPF about 0.003000 -0.142000 -0.069000
DOCKED: USER    NEWDPF tran0 36.989048 13.454675 122.734663
DOCKED: USER    NEWDPF quaternion0 0.627233 0.700347 -0.057167 -0.335894
DOCKED: USER    NEWDPF axisangle0 0.665923 0.743547 -0.060693 -140.746226
DOCKED: USER    NEWDPF quat0 0.665923 0.743547 -0.060693 -140.746226
DOCKED: USER    NEWDPF dihe0 1.52 -91.82 107.03 102.60 -82.79 -167.31 -87.60 110.86 
DOCKED: USER  keepresnum = 1 
DOCKED: USER  
DOCKED: REMARK  Name = 
DOCKED: REMARK  8 active torsions:
DOCKED: REMARK  status: ('A' for Active; 'I' for Inactive)
DOCKED: REMARK    1  A    between atoms: C_2  and  C_5
DOCKED: REMARK    2  A    between atoms: C_5  and  C_6
DOCKED: REMARK    3  A    between atoms: C_6  and  C_7
DOCKED: REMARK    4  A    between atoms: C_7  and  C_8
DOCKED: REMARK    5  A    between atoms: C_8  and  C_9
DOCKED: REMARK    6  A    between atoms: C_9  and  C_10
DOCKED: REMARK    7  A    between atoms: C_10  and  C_11
DOCKED: REMARK    8  A    between atoms: N_12  and  C_13
DOCKED: REMARK                            x       y       z     vdW  Elec       q    Type
DOCKED: REMARK                         _______ _______ _______ _____ _____    ______ ____
DOCKED: USER                              x       y       z     vdW  Elec       q    Type
DOCKED: USER                           _______ _______ _______ _____ _____    ______ ____
DOCKED: ROOT
DOCKED: ATOM      1  C   UNL     1      36.215  13.162 122.756 -0.46 -0.00    +0.000 C 
DOCKED: ENDROOT
DOCKED: BRANCH   1   2
DOCKED: ATOM      2  C   UNL     1      36.449  11.704 123.014 -0.69 -0.00    +0.000 C 
DOCKED: ATOM      3  N   UNL     1      35.727  10.717 122.258 -0.58 -0.00    +0.000 N 
DOCKED: ATOM      4  O   UNL     1      37.279  11.358 123.897 -0.72 -0.00    +0.000 OA
DOCKED: ATOM      5  H   UNL     1      35.225  11.019 121.467 -0.23 -0.00    +0.000 HD
DOCKED: BRANCH   3   6
DOCKED: ATOM      6  C   UNL     1      35.695   9.318 122.584 -0.60 -0.00    +0.000 A 
DOCKED: ATOM      7  C   UNL     1      34.528   8.549 122.431 -0.60 -0.00    +0.000 A 
DOCKED: ATOM      8  C   UNL     1      34.545   7.186 122.733 -0.65 -0.00    +0.000 A 
DOCKED: ATOM      9  C   UNL     1      35.732   6.597 123.172 -0.66 -0.00    +0.000 A 
DOCKED: ATOM     10  N   UNL     1      36.860   7.347 123.293 -2.15 -0.00    +0.000 NA
DOCKED: ATOM     11  C   UNL     1      36.869   8.675 123.005 -0.63 -0.00    +0.000 A 
DOCKED: ATOM     12  CM  UNL     1      35.736   7.929 122.880 +0.00 -0.00    +0.000 AC
DOCKED: ENDBRANCH   3   6
DOCKED: ENDBRANCH   1   2
DOCKED: BRANCH   1  12
DOCKED: ATOM     13  C   UNL     1      37.296  14.006 123.442 -0.49 -0.00    +0.000 C 
DOCKED: BRANCH  12  13
DOCKED: ATOM     14  C   UNL     1      38.403  14.467 122.477 -0.45 -0.00    +0.000 C 
DOCKED: BRANCH  13  14
DOCKED: ATOM     15  C   UNL     1      38.751  15.965 122.555 -0.30 -0.00    +0.000 C 
DOCKED: BRANCH  14  15
DOCKED: ATOM     16  C   UNL     1      39.127  16.565 121.189 -0.16 -0.00    +0.000 C 
DOCKED: BRANCH  15  16
DOCKED: ATOM     17  C   UNL     1      40.507  16.100 120.710 -0.21 -0.00    +0.000 C 
DOCKED: BRANCH  16  18
DOCKED: ATOM     18  O   UNL     1      41.190  14.466 122.317 -1.10 -0.00    +0.000 OA
DOCKED: ATOM     19  C   UNL     1      41.363  15.624 121.848 -0.40 -0.00    +0.000 C 
DOCKED: ATOM     20  N   UNL     1      42.350  16.483 122.421 -0.36 -0.00    +0.000 N 
DOCKED: ATOM     21  O   UNL     1      43.112  16.059 123.456 -0.98 +0.00    +0.000 OA
DOCKED: ATOM     22  H   UNL     1      42.479  17.390 122.060 -0.00 -0.00    +0.000 HD
DOCKED: ENDBRANCH  16  18
DOCKED: ENDBRANCH  15  16
DOCKED: ENDBRANCH  14  15
DOCKED: ENDBRANCH  13  14
DOCKED: ENDBRANCH  12  13
DOCKED: ENDBRANCH   1  12
DOCKED: TORSDOF 8DOCKED: TER
DOCKED: ENDMDL
________________________________________________________________________________


	BEGINNING GENETIC ALGORITHM DOCKING 69 of 100
Run: 69 Seed: 1045598434 1423187180 [ Run 69 of 100 GA/GALS ]
Beginning LAMARCKIAN GENETIC ALGORITHM (LGA), with a maximum of 2500000 energy evaluations.

Final-Value: -13.828


	FINAL GENETIC ALGORITHM DOCKED STATE
	_______________________________________________


Detailed state:  trans 36.463 12.156 121.831 quatxyzw 0.407801 0.611093 -0.504217 0.453903 center 0.003 -0.142 -0.069 ntor 8 164.5589 -180.0000 -171.8090 -114.6325 -150.1570 -30.7008 23.2378 125.8052
State:	 36.463  12.156 121.831   0.458  0.686 -0.566 126.011    164.56 -180.00 -171.81 -114.63 -150.16  -30.70   23.24  125.81

DOCKED: MODEL       69
DOCKED: USER    Run = 69
DOCKED: USER    DPF = ligand_dock.biased.dpf
DOCKED: USER  
DOCKED: USER    Estimated Free Energy of Binding    =  -10.63 kcal/mol  [=(1)+(2)+(3)-(4)]
DOCKED: USER    Estimated Inhibition Constant, Ki   =   16.03 nM (nanomolar)  [Temperature = 298.15 K]
DOCKED: USER    
DOCKED: USER    (1) Final Intermolecular Energy     =  -13.02 kcal/mol
DOCKED: USER        vdW + Hbond + desolv Energy     =  -13.02 kcal/mol
DOCKED: USER        Electrostatic Energy            =   +0.00 kcal/mol
DOCKED: USER    (2) Final Total Internal Energy     =   -0.81 kcal/mol
DOCKED: USER    (3) Torsional Free Energy           =   +2.39 kcal/mol
DOCKED: USER    (4) Unbound System's Energy  [=(2)] =   -0.81 kcal/mol
DOCKED: USER    
DOCKED: USER    
DOCKED: USER    NEWDPF move ligand.dum.pdbqt
DOCKED: USER    NEWDPF about 0.003000 -0.142000 -0.069000
DOCKED: USER    NEWDPF tran0 36.463008 12.155579 121.830707
DOCKED: USER    NEWDPF quaternion0 0.407801 0.611093 -0.504217 0.453903
DOCKED: USER    NEWDPF axisangle0 0.457663 0.685812 -0.565868 126.011253
DOCKED: USER    NEWDPF quat0 0.457663 0.685812 -0.565868 126.011253
DOCKED: USER    NEWDPF dihe0 164.56 -180.00 -171.81 -114.63 -150.16 -30.70 23.24 125.81 
DOCKED: USER  keepresnum = 1 
DOCKED: USER  
DOCKED: REMARK  Name = 
DOCKED: REMARK  8 active torsions:
DOCKED: REMARK  status: ('A' for Active; 'I' for Inactive)
DOCKED: REMARK    1  A    between atoms: C_2  and  C_5
DOCKED: REMARK    2  A    between atoms: C_5  and  C_6
DOCKED: REMARK    3  A    between atoms: C_6  and  C_7
DOCKED: REMARK    4  A    between atoms: C_7  and  C_8
DOCKED: REMARK    5  A    between atoms: C_8  and  C_9
DOCKED: REMARK    6  A    between atoms: C_9  and  C_10
DOCKED: REMARK    7  A    between atoms: C_10  and  C_11
DOCKED: REMARK    8  A    between atoms: N_12  and  C_13
DOCKED: REMARK                            x       y       z     vdW  Elec       q    Type
DOCKED: REMARK                         _______ _______ _______ _____ _____    ______ ____
DOCKED: USER                              x       y       z     vdW  Elec       q    Type
DOCKED: USER                           _______ _______ _______ _____ _____    ______ ____
DOCKED: ROOT
DOCKED: ATOM      1  C   UNL     1      36.672  11.823 122.559 -0.64 -0.00    +0.000 C 
DOCKED: ENDROOT
DOCKED: BRANCH   1   2
DOCKED: ATOM      2  C   UNL     1      36.415  10.367 122.313 -0.67 -0.00    +0.000 C 
DOCKED: ATOM      3  N   UNL     1      35.458   9.661 123.119 -0.59 -0.00    +0.000 N 
DOCKED: ATOM      4  O   UNL     1      37.046   9.774 121.397 -2.03 -0.00    +0.000 OA
DOCKED: ATOM      5  H   UNL     1      34.864  10.190 123.700 -0.44 -0.00    +0.000 HD
DOCKED: BRANCH   3   6
DOCKED: ATOM      6  C   UNL     1      35.311   8.231 123.130 -0.60 -0.00    +0.000 A 
DOCKED: ATOM      7  C   UNL     1      34.048   7.616 123.119 -0.64 -0.00    +0.000 A 
DOCKED: ATOM      8  C   UNL     1      33.949   6.224 123.103 -0.68 -0.00    +0.000 A 
DOCKED: ATOM      9  C   UNL     1      35.113   5.455 123.083 -0.55 -0.00    +0.000 A 
DOCKED: ATOM     10  N   UNL     1      36.330   6.062 123.070 -1.00 -0.00    +0.000 NA
DOCKED: ATOM     11  C   UNL     1      36.452   7.416 123.085 -0.69 -0.00    +0.000 A 
DOCKED: ATOM     12  CM  UNL     1      35.231   6.813 123.097 +0.00 -0.00    +0.000 AC
DOCKED: ENDBRANCH   3   6
DOCKED: ENDBRANCH   1   2
DOCKED: BRANCH   1  12
DOCKED: ATOM     13  C   UNL     1      37.141  12.508 121.270 -0.53 -0.00    +0.000 C 
DOCKED: BRANCH  12  13
DOCKED: ATOM     14  C   UNL     1      38.101  13.683 121.527 -0.44 -0.00    +0.000 C 
DOCKED: BRANCH  13  14
DOCKED: ATOM     15  C   UNL     1      37.424  15.060 121.656 -0.32 -0.00    +0.000 C 
DOCKED: BRANCH  14  15
DOCKED: ATOM     16  C   UNL     1      38.157  16.000 122.629 -0.29 -0.00    +0.000 C 
DOCKED: BRANCH  15  16
DOCKED: ATOM     17  C   UNL     1      39.506  16.473 122.074 -0.23 -0.00    +0.000 C 
DOCKED: BRANCH  16  18
DOCKED: ATOM     18  O   UNL     1      41.456  16.611 123.451 -0.89 -0.00    +0.000 OA
DOCKED: ATOM     19  C   UNL     1      40.661  15.866 122.816 -0.37 -0.00    +0.000 C 
DOCKED: ATOM     20  N   UNL     1      40.881  14.455 122.785 -0.51 -0.00    +0.000 N 
DOCKED: ATOM     21  O   UNL     1      41.931  13.909 123.443 -0.89 -0.00    +0.000 OA
DOCKED: ATOM     22  H   UNL     1      40.265  13.874 122.281 -0.01 +0.00    +0.000 HD
DOCKED: ENDBRANCH  16  18
DOCKED: ENDBRANCH  15  16
DOCKED: ENDBRANCH  14  15
DOCKED: ENDBRANCH  13  14
DOCKED: ENDBRANCH  12  13
DOCKED: ENDBRANCH   1  12
DOCKED: TORSDOF 8DOCKED: TER
DOCKED: ENDMDL
________________________________________________________________________________


	BEGINNING GENETIC ALGORITHM DOCKING 70 of 100
Run: 70 Seed: 623660833 1652780655 [ Run 70 of 100 GA/GALS ]
Beginning LAMARCKIAN GENETIC ALGORITHM (LGA), with a maximum of 2500000 energy evaluations.

Final-Value: -13.444


	FINAL GENETIC ALGORITHM DOCKED STATE
	_______________________________________________


Detailed state:  trans 35.685 15.067 124.595 quatxyzw -0.638410 -0.038150 -0.615991 -0.459926 center 0.003 -0.142 -0.069 ntor 8 150.7677 69.0514 -164.2044 -102.8378 95.7078 -149.0018 179.9944 -13.6221
State:	 35.685  15.067 124.595  -0.719 -0.043 -0.694 -125.235    150.77   69.05 -164.20 -102.84   95.71 -149.00  179.99  -13.62

DOCKED: MODEL       70
DOCKED: USER    Run = 70
DOCKED: USER    DPF = ligand_dock.biased.dpf
DOCKED: USER  
DOCKED: USER    Estimated Free Energy of Binding    =  -10.10 kcal/mol  [=(1)+(2)+(3)-(4)]
DOCKED: USER    Estimated Inhibition Constant, Ki   =   39.22 nM (nanomolar)  [Temperature = 298.15 K]
DOCKED: USER    
DOCKED: USER    (1) Final Intermolecular Energy     =  -12.49 kcal/mol
DOCKED: USER        vdW + Hbond + desolv Energy     =  -12.49 kcal/mol
DOCKED: USER        Electrostatic Energy            =   +0.00 kcal/mol
DOCKED: USER    (2) Final Total Internal Energy     =   -0.95 kcal/mol
DOCKED: USER    (3) Torsional Free Energy           =   +2.39 kcal/mol
DOCKED: USER    (4) Unbound System's Energy  [=(2)] =   -0.95 kcal/mol
DOCKED: USER    
DOCKED: USER    
DOCKED: USER    NEWDPF move ligand.dum.pdbqt
DOCKED: USER    NEWDPF about 0.003000 -0.142000 -0.069000
DOCKED: USER    NEWDPF tran0 35.684915 15.066803 124.594893
DOCKED: USER    NEWDPF quaternion0 -0.638410 -0.038150 -0.615991 -0.459926
DOCKED: USER    NEWDPF axisangle0 -0.718965 -0.042964 -0.693717 -125.235296
DOCKED: USER    NEWDPF quat0 -0.718965 -0.042964 -0.693717 -125.235296
DOCKED: USER    NEWDPF dihe0 150.77 69.05 -164.20 -102.84 95.71 -149.00 179.99 -13.62 
DOCKED: USER  keepresnum = 1 
DOCKED: USER  
DOCKED: REMARK  Name = 
DOCKED: REMARK  8 active torsions:
DOCKED: REMARK  status: ('A' for Active; 'I' for Inactive)
DOCKED: REMARK    1  A    between atoms: C_2  and  C_5
DOCKED: REMARK    2  A    between atoms: C_5  and  C_6
DOCKED: REMARK    3  A    between atoms: C_6  and  C_7
DOCKED: REMARK    4  A    between atoms: C_7  and  C_8
DOCKED: REMARK    5  A    between atoms: C_8  and  C_9
DOCKED: REMARK    6  A    between atoms: C_9  and  C_10
DOCKED: REMARK    7  A    between atoms: C_10  and  C_11
DOCKED: REMARK    8  A    between atoms: N_12  and  C_13
DOCKED: REMARK                            x       y       z     vdW  Elec       q    Type
DOCKED: REMARK                         _______ _______ _______ _____ _____    ______ ____
DOCKED: USER                              x       y       z     vdW  Elec       q    Type
DOCKED: USER                           _______ _______ _______ _____ _____    ______ ____
DOCKED: ROOT
DOCKED: ATOM      1  C   UNL     1      35.018  15.530 124.755 -0.41 -0.00    +0.000 C 
DOCKED: ENDROOT
DOCKED: BRANCH   1   2
DOCKED: ATOM      2  C   UNL     1      35.165  16.632 123.750 -0.44 -0.00    +0.000 C 
DOCKED: ATOM      3  N   UNL     1      34.392  16.605 122.539 -0.35 -0.00    +0.000 N 
DOCKED: ATOM      4  O   UNL     1      35.970  17.575 123.979 -0.28 -0.00    +0.000 OA
DOCKED: ATOM      5  H   UNL     1      33.655  15.955 122.476 -0.04 -0.00    +0.000 HD
DOCKED: BRANCH   3   6
DOCKED: ATOM      6  C   UNL     1      34.626  17.468 121.413 -0.25 -0.00    +0.000 A 
DOCKED: ATOM      7  C   UNL     1      33.590  18.211 120.822 -0.32 -0.00    +0.000 A 
DOCKED: ATOM      8  C   UNL     1      33.865  19.059 119.747 -0.24 -0.00    +0.000 A 
DOCKED: ATOM      9  C   UNL     1      35.175  19.170 119.280 -0.17 -0.00    +0.000 A 
DOCKED: ATOM     10  N   UNL     1      36.173  18.464 119.877 -0.12 -0.00    +0.000 NA
DOCKED: ATOM     11  C   UNL     1      35.931  17.632 120.924 -0.19 -0.00    +0.000 A 
DOCKED: ATOM     12  CM  UNL     1      34.928  18.338 120.331 +0.00 -0.00    +0.000 AC
DOCKED: ENDBRANCH   3   6
DOCKED: ENDBRANCH   1   2
DOCKED: BRANCH   1  12
DOCKED: ATOM     13  C   UNL     1      35.573  14.216 124.192 -0.49 -0.00    +0.000 C 
DOCKED: BRANCH  12  13
DOCKED: ATOM     14  C   UNL     1      36.297  14.396 122.845 -0.42 -0.00    +0.000 C 
DOCKED: BRANCH  13  14
DOCKED: ATOM     15  C   UNL     1      37.442  13.400 122.584 -0.53 -0.00    +0.000 C 
DOCKED: BRANCH  14  15
DOCKED: ATOM     16  C   UNL     1      37.181  12.012 123.192 -0.61 -0.00    +0.000 C 
DOCKED: BRANCH  15  16
DOCKED: ATOM     17  C   UNL     1      36.283  11.146 122.299 -0.66 -0.00    +0.000 C 
DOCKED: BRANCH  16  18
DOCKED: ATOM     18  O   UNL     1      36.876   9.142 121.137 -2.67 -0.00    +0.000 OA
DOCKED: ATOM     19  C   UNL     1      36.751   9.720 122.251 -0.68 -0.00    +0.000 C 
DOCKED: ATOM     20  N   UNL     1      37.025   9.007 123.457 -0.58 -0.00    +0.000 N 
DOCKED: ATOM     21  O   UNL     1      37.433   7.716 123.414 -2.57 -0.00    +0.000 OA
DOCKED: ATOM     22  H   UNL     1      36.918   9.456 124.327 -0.46 -0.00    +0.000 HD
DOCKED: ENDBRANCH  16  18
DOCKED: ENDBRANCH  15  16
DOCKED: ENDBRANCH  14  15
DOCKED: ENDBRANCH  13  14
DOCKED: ENDBRANCH  12  13
DOCKED: ENDBRANCH   1  12
DOCKED: TORSDOF 8DOCKED: TER
DOCKED: ENDMDL
________________________________________________________________________________


	BEGINNING GENETIC ALGORITHM DOCKING 71 of 100
Run: 71 Seed: 1907331490 966737945 [ Run 71 of 100 GA/GALS ]
Beginning LAMARCKIAN GENETIC ALGORITHM (LGA), with a maximum of 2500000 energy evaluations.

Final-Value: -14.456


	FINAL GENETIC ALGORITHM DOCKED STATE
	_______________________________________________


Detailed state:  trans 35.940 14.982 122.494 quatxyzw -0.743809 0.015111 0.571181 0.346803 center 0.003 -0.142 -0.069 ntor 8 137.0526 174.0112 -177.5789 60.5944 99.3899 178.5418 -176.1772 7.9367
State:	 35.940  14.982 122.494  -0.793  0.016  0.609 139.416    137.05  174.01 -177.58   60.59   99.39  178.54 -176.18    7.94

DOCKED: MODEL       71
DOCKED: USER    Run = 71
DOCKED: USER    DPF = ligand_dock.biased.dpf
DOCKED: USER  
DOCKED: USER    Estimated Free Energy of Binding    =  -11.07 kcal/mol  [=(1)+(2)+(3)-(4)]
DOCKED: USER    Estimated Inhibition Constant, Ki   =    7.72 nM (nanomolar)  [Temperature = 298.15 K]
DOCKED: USER    
DOCKED: USER    (1) Final Intermolecular Energy     =  -13.45 kcal/mol
DOCKED: USER        vdW + Hbond + desolv Energy     =  -13.45 kcal/mol
DOCKED: USER        Electrostatic Energy            =   +0.00 kcal/mol
DOCKED: USER    (2) Final Total Internal Energy     =   -1.00 kcal/mol
DOCKED: USER    (3) Torsional Free Energy           =   +2.39 kcal/mol
DOCKED: USER    (4) Unbound System's Energy  [=(2)] =   -1.00 kcal/mol
DOCKED: USER    
DOCKED: USER    
DOCKED: USER    NEWDPF move ligand.dum.pdbqt
DOCKED: USER    NEWDPF about 0.003000 -0.142000 -0.069000
DOCKED: USER    NEWDPF tran0 35.939812 14.981885 122.494251
DOCKED: USER    NEWDPF quaternion0 -0.743809 0.015111 0.571181 0.346803
DOCKED: USER    NEWDPF axisangle0 -0.793025 0.016111 0.608976 139.416240
DOCKED: USER    NEWDPF quat0 -0.793025 0.016111 0.608976 139.416240
DOCKED: USER    NEWDPF dihe0 137.05 174.01 -177.58 60.59 99.39 178.54 -176.18 7.94 
DOCKED: USER  keepresnum = 1 
DOCKED: USER  
DOCKED: REMARK  Name = 
DOCKED: REMARK  8 active torsions:
DOCKED: REMARK  status: ('A' for Active; 'I' for Inactive)
DOCKED: REMARK    1  A    between atoms: C_2  and  C_5
DOCKED: REMARK    2  A    between atoms: C_5  and  C_6
DOCKED: REMARK    3  A    between atoms: C_6  and  C_7
DOCKED: REMARK    4  A    between atoms: C_7  and  C_8
DOCKED: REMARK    5  A    between atoms: C_8  and  C_9
DOCKED: REMARK    6  A    between atoms: C_9  and  C_10
DOCKED: REMARK    7  A    between atoms: C_10  and  C_11
DOCKED: REMARK    8  A    between atoms: N_12  and  C_13
DOCKED: REMARK                            x       y       z     vdW  Elec       q    Type
DOCKED: REMARK                         _______ _______ _______ _____ _____    ______ ____
DOCKED: USER                              x       y       z     vdW  Elec       q    Type
DOCKED: USER                           _______ _______ _______ _____ _____    ______ ____
DOCKED: ROOT
DOCKED: ATOM      1  C   UNL     1      35.715  15.762 122.331 -0.04 -0.00    +0.000 C 
DOCKED: ENDROOT
DOCKED: BRANCH   1   2
DOCKED: ATOM      2  C   UNL     1      34.704  16.019 123.407 -0.49 -0.00    +0.000 C 
DOCKED: ATOM      3  N   UNL     1      34.893  17.111 124.321 -0.37 -0.00    +0.000 N 
DOCKED: ATOM      4  O   UNL     1      33.695  15.269 123.499 -0.64 -0.00    +0.000 OA
DOCKED: ATOM      5  H   UNL     1      35.591  17.773 124.112 -0.00 -0.00    +0.000 HD
DOCKED: BRANCH   3   6
DOCKED: ATOM      6  C   UNL     1      34.125  17.300 125.522 -0.38 -0.00    +0.000 A 
DOCKED: ATOM      7  C   UNL     1      33.741  18.578 125.962 -0.29 -0.00    +0.000 A 
DOCKED: ATOM      8  C   UNL     1      32.972  18.716 127.119 -0.24 -0.00    +0.000 A 
DOCKED: ATOM      9  C   UNL     1      32.578  17.575 127.820 -0.30 -0.00    +0.000 A 
DOCKED: ATOM     10  N   UNL     1      32.936  16.342 127.370 -1.05 -0.00    +0.000 NA
DOCKED: ATOM     11  C   UNL     1      33.684  16.182 126.247 -0.28 -0.00    +0.000 A 
DOCKED: ATOM     12  CM  UNL     1      33.328  17.419 126.692 -0.01 -0.00    +0.000 AC
DOCKED: ENDBRANCH   3   6
DOCKED: ENDBRANCH   1   2
DOCKED: BRANCH   1  12
DOCKED: ATOM     13  C   UNL     1      36.806  14.811 122.839 -0.43 -0.00    +0.000 C 
DOCKED: BRANCH  12  13
DOCKED: ATOM     14  C   UNL     1      36.451  14.151 124.183 -0.23 -0.00    +0.000 C 
DOCKED: BRANCH  13  14
DOCKED: ATOM     15  C   UNL     1      36.320  12.617 124.141 -0.48 -0.00    +0.000 C 
DOCKED: BRANCH  14  15
DOCKED: ATOM     16  C   UNL     1      37.343  11.953 123.203 -0.54 -0.00    +0.000 C 
DOCKED: BRANCH  15  16
DOCKED: ATOM     17  C   UNL     1      36.673  11.270 122.004 -0.62 -0.00    +0.000 C 
DOCKED: BRANCH  16  18
DOCKED: ATOM     18  O   UNL     1      37.026   9.164 120.930 -2.72 -0.00    +0.000 OA
DOCKED: ATOM     19  C   UNL     1      36.882   9.784 122.018 -0.62 -0.00    +0.000 C 
DOCKED: ATOM     20  N   UNL     1      36.890   9.065 123.253 -0.62 -0.00    +0.000 N 
DOCKED: ATOM     21  O   UNL     1      37.065   7.722 123.264 -2.60 -0.00    +0.000 OA
DOCKED: ATOM     22  H   UNL     1      36.768   9.548 124.102 -0.49 -0.00    +0.000 HD
DOCKED: ENDBRANCH  16  18
DOCKED: ENDBRANCH  15  16
DOCKED: ENDBRANCH  14  15
DOCKED: ENDBRANCH  13  14
DOCKED: ENDBRANCH  12  13
DOCKED: ENDBRANCH   1  12
DOCKED: TORSDOF 8DOCKED: TER
DOCKED: ENDMDL
________________________________________________________________________________


	BEGINNING GENETIC ALGORITHM DOCKING 72 of 100
Run: 72 Seed: 1375360934 1873300899 [ Run 72 of 100 GA/GALS ]
Beginning LAMARCKIAN GENETIC ALGORITHM (LGA), with a maximum of 2500000 energy evaluations.

Final-Value: -13.116


	FINAL GENETIC ALGORITHM DOCKED STATE
	_______________________________________________


Detailed state:  trans 36.489 11.826 122.062 quatxyzw 0.138497 0.452794 -0.497047 0.727145 center 0.003 -0.142 -0.069 ntor 8 -76.3135 -160.9161 66.5702 -94.1093 -104.8087 -148.3896 -12.8190 -170.5042
State:	 36.489  11.826 122.062   0.202  0.660 -0.724 86.705    -76.31 -160.92   66.57  -94.11 -104.81 -148.39  -12.82 -170.50

DOCKED: MODEL       72
DOCKED: USER    Run = 72
DOCKED: USER    DPF = ligand_dock.biased.dpf
DOCKED: USER  
DOCKED: USER    Estimated Free Energy of Binding    =   -9.91 kcal/mol  [=(1)+(2)+(3)-(4)]
DOCKED: USER    Estimated Inhibition Constant, Ki   =   54.37 nM (nanomolar)  [Temperature = 298.15 K]
DOCKED: USER    
DOCKED: USER    (1) Final Intermolecular Energy     =  -12.30 kcal/mol
DOCKED: USER        vdW + Hbond + desolv Energy     =  -12.30 kcal/mol
DOCKED: USER        Electrostatic Energy            =   +0.00 kcal/mol
DOCKED: USER    (2) Final Total Internal Energy     =   -0.82 kcal/mol
DOCKED: USER    (3) Torsional Free Energy           =   +2.39 kcal/mol
DOCKED: USER    (4) Unbound System's Energy  [=(2)] =   -0.82 kcal/mol
DOCKED: USER    
DOCKED: USER    
DOCKED: USER    NEWDPF move ligand.dum.pdbqt
DOCKED: USER    NEWDPF about 0.003000 -0.142000 -0.069000
DOCKED: USER    NEWDPF tran0 36.489402 11.826145 122.061582
DOCKED: USER    NEWDPF quaternion0 0.138497 0.452794 -0.497047 0.727145
DOCKED: USER    NEWDPF axisangle0 0.201749 0.659585 -0.724048 86.704798
DOCKED: USER    NEWDPF quat0 0.201749 0.659585 -0.724048 86.704798
DOCKED: USER    NEWDPF dihe0 -76.31 -160.92 66.57 -94.11 -104.81 -148.39 -12.82 -170.50 
DOCKED: USER  keepresnum = 1 
DOCKED: USER  
DOCKED: REMARK  Name = 
DOCKED: REMARK  8 active torsions:
DOCKED: REMARK  status: ('A' for Active; 'I' for Inactive)
DOCKED: REMARK    1  A    between atoms: C_2  and  C_5
DOCKED: REMARK    2  A    between atoms: C_5  and  C_6
DOCKED: REMARK    3  A    between atoms: C_6  and  C_7
DOCKED: REMARK    4  A    between atoms: C_7  and  C_8
DOCKED: REMARK    5  A    between atoms: C_8  and  C_9
DOCKED: REMARK    6  A    between atoms: C_9  and  C_10
DOCKED: REMARK    7  A    between atoms: C_10  and  C_11
DOCKED: REMARK    8  A    between atoms: N_12  and  C_13
DOCKED: REMARK                            x       y       z     vdW  Elec       q    Type
DOCKED: REMARK                         _______ _______ _______ _____ _____    ______ ____
DOCKED: USER                              x       y       z     vdW  Elec       q    Type
DOCKED: USER                           _______ _______ _______ _____ _____    ______ ____
DOCKED: ROOT
DOCKED: ATOM      1  C   UNL     1      37.061  11.287 122.321 -0.57 -0.00    +0.000 C 
DOCKED: ENDROOT
DOCKED: BRANCH   1   2
DOCKED: ATOM      2  C   UNL     1      36.432   9.977 121.957 -0.60 -0.00    +0.000 C 
DOCKED: ATOM      3  N   UNL     1      35.124   9.647 122.451 -0.59 -0.00    +0.000 N 
DOCKED: ATOM      4  O   UNL     1      37.061   9.173 121.217 -2.72 -0.00    +0.000 OA
DOCKED: ATOM      5  H   UNL     1      34.597  10.363 122.875 -0.27 -0.00    +0.000 HD
DOCKED: BRANCH   3   6
DOCKED: ATOM      6  C   UNL     1      34.535   8.339 122.365 -0.60 -0.00    +0.000 A 
DOCKED: ATOM      7  C   UNL     1      34.499   7.468 123.467 -0.66 -0.00    +0.000 A 
DOCKED: ATOM      8  C   UNL     1      33.893   6.216 123.349 -0.65 -0.00    +0.000 A 
DOCKED: ATOM      9  C   UNL     1      33.314   5.847 122.134 -0.58 -0.00    +0.000 A 
DOCKED: ATOM     10  N   UNL     1      33.335   6.708 121.081 -0.56 -0.00    +0.000 NA
DOCKED: ATOM     11  C   UNL     1      33.918   7.933 121.171 -0.56 -0.00    +0.000 A 
DOCKED: ATOM     12  CM  UNL     1      33.899   7.075 122.230 +0.00 -0.00    +0.000 AC
DOCKED: ENDBRANCH   3   6
DOCKED: ENDBRANCH   1   2
DOCKED: BRANCH   1  12
DOCKED: ATOM     13  C   UNL     1      36.672  12.368 121.305 -0.49 -0.00    +0.000 C 
DOCKED: BRANCH  12  13
DOCKED: ATOM     14  C   UNL     1      37.183  13.768 121.689 -0.42 -0.00    +0.000 C 
DOCKED: BRANCH  13  14
DOCKED: ATOM     15  C   UNL     1      37.478  14.702 120.501 -0.31 -0.00    +0.000 C 
DOCKED: BRANCH  14  15
DOCKED: ATOM     16  C   UNL     1      38.273  15.955 120.906 -0.20 -0.00    +0.000 C 
DOCKED: BRANCH  15  16
DOCKED: ATOM     17  C   UNL     1      39.788  15.741 120.798 -0.23 -0.00    +0.000 C 
DOCKED: BRANCH  16  18
DOCKED: ATOM     18  O   UNL     1      39.618  15.007 123.068 -0.46 -0.00    +0.000 OA
DOCKED: ATOM     19  C   UNL     1      40.374  15.234 122.084 -0.42 -0.00    +0.000 C 
DOCKED: ATOM     20  N   UNL     1      41.783  15.034 122.209 -0.48 -0.00    +0.000 N 
DOCKED: ATOM     21  O   UNL     1      42.312  14.591 123.374 -0.90 +0.00    +0.000 OA
DOCKED: ATOM     22  H   UNL     1      42.374  15.220 121.444 -0.02 -0.00    +0.000 HD
DOCKED: ENDBRANCH  16  18
DOCKED: ENDBRANCH  15  16
DOCKED: ENDBRANCH  14  15
DOCKED: ENDBRANCH  13  14
DOCKED: ENDBRANCH  12  13
DOCKED: ENDBRANCH   1  12
DOCKED: TORSDOF 8DOCKED: TER
DOCKED: ENDMDL
________________________________________________________________________________


	BEGINNING GENETIC ALGORITHM DOCKING 73 of 100
Run: 73 Seed: 488395324 1117537224 [ Run 73 of 100 GA/GALS ]
Beginning LAMARCKIAN GENETIC ALGORITHM (LGA), with a maximum of 2500000 energy evaluations.

Final-Value: -13.650


	FINAL GENETIC ALGORITHM DOCKED STATE
	_______________________________________________


Detailed state:  trans 36.505 15.666 119.827 quatxyzw 0.780298 -0.151614 -0.598074 0.102252 center 0.003 -0.142 -0.069 ntor 8 -92.9478 136.9578 -126.4316 -23.3465 140.6188 168.2262 87.2199 -5.4786
State:	 36.505  15.666 119.827   0.784 -0.152 -0.601 168.262    -92.95  136.96 -126.43  -23.35  140.62  168.23   87.22   -5.48

DOCKED: MODEL       73
DOCKED: USER    Run = 73
DOCKED: USER    DPF = ligand_dock.biased.dpf
DOCKED: USER  
DOCKED: USER    Estimated Free Energy of Binding    =  -10.19 kcal/mol  [=(1)+(2)+(3)-(4)]
DOCKED: USER    Estimated Inhibition Constant, Ki   =   34.07 nM (nanomolar)  [Temperature = 298.15 K]
DOCKED: USER    
DOCKED: USER    (1) Final Intermolecular Energy     =  -12.57 kcal/mol
DOCKED: USER        vdW + Hbond + desolv Energy     =  -12.57 kcal/mol
DOCKED: USER        Electrostatic Energy            =   +0.00 kcal/mol
DOCKED: USER    (2) Final Total Internal Energy     =   -1.08 kcal/mol
DOCKED: USER    (3) Torsional Free Energy           =   +2.39 kcal/mol
DOCKED: USER    (4) Unbound System's Energy  [=(2)] =   -1.08 kcal/mol
DOCKED: USER    
DOCKED: USER    
DOCKED: USER    NEWDPF move ligand.dum.pdbqt
DOCKED: USER    NEWDPF about 0.003000 -0.142000 -0.069000
DOCKED: USER    NEWDPF tran0 36.505406 15.666397 119.827156
DOCKED: USER    NEWDPF quaternion0 0.780298 -0.151614 -0.598074 0.102252
DOCKED: USER    NEWDPF axisangle0 0.784409 -0.152413 -0.601226 168.262262
DOCKED: USER    NEWDPF quat0 0.784409 -0.152413 -0.601226 168.262262
DOCKED: USER    NEWDPF dihe0 -92.95 136.96 -126.43 -23.35 140.62 168.23 87.22 -5.48 
DOCKED: USER  keepresnum = 1 
DOCKED: USER  
DOCKED: REMARK  Name = 
DOCKED: REMARK  8 active torsions:
DOCKED: REMARK  status: ('A' for Active; 'I' for Inactive)
DOCKED: REMARK    1  A    between atoms: C_2  and  C_5
DOCKED: REMARK    2  A    between atoms: C_5  and  C_6
DOCKED: REMARK    3  A    between atoms: C_6  and  C_7
DOCKED: REMARK    4  A    between atoms: C_7  and  C_8
DOCKED: REMARK    5  A    between atoms: C_8  and  C_9
DOCKED: REMARK    6  A    between atoms: C_9  and  C_10
DOCKED: REMARK    7  A    between atoms: C_10  and  C_11
DOCKED: REMARK    8  A    between atoms: N_12  and  C_13
DOCKED: REMARK                            x       y       z     vdW  Elec       q    Type
DOCKED: REMARK                         _______ _______ _______ _____ _____    ______ ____
DOCKED: USER                              x       y       z     vdW  Elec       q    Type
DOCKED: USER                           _______ _______ _______ _____ _____    ______ ____
DOCKED: ROOT
DOCKED: ATOM      1  C   UNL     1      36.876  16.348 120.115 -0.18 -0.00    +0.000 C 
DOCKED: ENDROOT
DOCKED: BRANCH   1   2
DOCKED: ATOM      2  C   UNL     1      35.986  16.716 121.263 -0.22 -0.00    +0.000 C 
DOCKED: ATOM      3  N   UNL     1      36.450  16.550 122.613 -0.25 -0.00    +0.000 N 
DOCKED: ATOM      4  O   UNL     1      34.833  17.169 121.031 -0.28 -0.00    +0.000 OA
DOCKED: ATOM      5  H   UNL     1      37.407  16.363 122.752 -0.00 -0.00    +0.000 HD
DOCKED: BRANCH   3   6
DOCKED: ATOM      6  C   UNL     1      35.607  16.641 123.773 -0.35 -0.00    +0.000 A 
DOCKED: ATOM      7  C   UNL     1      35.418  17.854 124.458 -0.28 -0.00    +0.000 A 
DOCKED: ATOM      8  C   UNL     1      34.569  17.906 125.565 -0.32 -0.00    +0.000 A 
DOCKED: ATOM      9  C   UNL     1      33.902  16.749 125.971 -0.36 -0.00    +0.000 A 
DOCKED: ATOM     10  N   UNL     1      34.074  15.587 125.285 -0.62 -0.00    +0.000 NA
DOCKED: ATOM     11  C   UNL     1      34.896  15.511 124.205 -0.51 -0.00    +0.000 A 
DOCKED: ATOM     12  CM  UNL     1      34.725  16.678 124.887 -0.21 -0.00    +0.000 AC
DOCKED: ENDBRANCH   3   6
DOCKED: ENDBRANCH   1   2
DOCKED: BRANCH   1  12
DOCKED: ATOM     13  C   UNL     1      36.926  14.825 119.945 -0.21 -0.00    +0.000 C 
DOCKED: BRANCH  12  13
DOCKED: ATOM     14  C   UNL     1      37.974  14.151 120.849 -0.38 -0.00    +0.000 C 
DOCKED: BRANCH  13  14
DOCKED: ATOM     15  C   UNL     1      37.398  13.366 122.041 -0.50 -0.00    +0.000 C 
DOCKED: BRANCH  14  15
DOCKED: ATOM     16  C   UNL     1      36.847  11.986 121.642 -0.56 -0.00    +0.000 C 
DOCKED: BRANCH  15  16
DOCKED: ATOM     17  C   UNL     1      36.702  11.049 122.847 -0.68 -0.00    +0.000 C 
DOCKED: BRANCH  16  18
DOCKED: ATOM     18  O   UNL     1      36.718   9.285 121.233 -2.56 -0.00    +0.000 OA
DOCKED: ATOM     19  C   UNL     1      36.811   9.606 122.449 -0.67 -0.00    +0.000 C 
DOCKED: ATOM     20  N   UNL     1      36.989   8.592 123.441 -0.66 -0.00    +0.000 N 
DOCKED: ATOM     21  O   UNL     1      37.073   7.289 123.083 -2.26 -0.00    +0.000 OA
DOCKED: ATOM     22  H   UNL     1      37.053   8.843 124.391 -0.53 -0.00    +0.000 HD
DOCKED: ENDBRANCH  16  18
DOCKED: ENDBRANCH  15  16
DOCKED: ENDBRANCH  14  15
DOCKED: ENDBRANCH  13  14
DOCKED: ENDBRANCH  12  13
DOCKED: ENDBRANCH   1  12
DOCKED: TORSDOF 8DOCKED: TER
DOCKED: ENDMDL
________________________________________________________________________________


	BEGINNING GENETIC ALGORITHM DOCKING 74 of 100
Run: 74 Seed: 365356312 857793648 [ Run 74 of 100 GA/GALS ]
Beginning LAMARCKIAN GENETIC ALGORITHM (LGA), with a maximum of 2500000 energy evaluations.

Final-Value: -13.411


	FINAL GENETIC ALGORITHM DOCKED STATE
	_______________________________________________


Detailed state:  trans 38.234 14.571 122.126 quatxyzw -0.431017 0.735992 -0.475375 -0.215774 center 0.003 -0.142 -0.069 ntor 8 -66.5792 177.1148 -150.2231 52.4193 131.4585 113.2311 -110.8914 147.7010
State:	 38.234  14.571 122.126  -0.441  0.754 -0.487 -155.078    -66.58  177.11 -150.22   52.42  131.46  113.23 -110.89  147.70

DOCKED: MODEL       74
DOCKED: USER    Run = 74
DOCKED: USER    DPF = ligand_dock.biased.dpf
DOCKED: USER  
DOCKED: USER    Estimated Free Energy of Binding    =  -10.09 kcal/mol  [=(1)+(2)+(3)-(4)]
DOCKED: USER    Estimated Inhibition Constant, Ki   =   39.86 nM (nanomolar)  [Temperature = 298.15 K]
DOCKED: USER    
DOCKED: USER    (1) Final Intermolecular Energy     =  -12.48 kcal/mol
DOCKED: USER        vdW + Hbond + desolv Energy     =  -12.48 kcal/mol
DOCKED: USER        Electrostatic Energy            =   +0.00 kcal/mol
DOCKED: USER    (2) Final Total Internal Energy     =   -0.93 kcal/mol
DOCKED: USER    (3) Torsional Free Energy           =   +2.39 kcal/mol
DOCKED: USER    (4) Unbound System's Energy  [=(2)] =   -0.93 kcal/mol
DOCKED: USER    
DOCKED: USER    
DOCKED: USER    NEWDPF move ligand.dum.pdbqt
DOCKED: USER    NEWDPF about 0.003000 -0.142000 -0.069000
DOCKED: USER    NEWDPF tran0 38.233984 14.570501 122.126252
DOCKED: USER    NEWDPF quaternion0 -0.431017 0.735992 -0.475375 -0.215774
DOCKED: USER    NEWDPF axisangle0 -0.441415 0.753748 -0.486843 -155.078130
DOCKED: USER    NEWDPF quat0 -0.441415 0.753748 -0.486843 -155.078130
DOCKED: USER    NEWDPF dihe0 -66.58 177.11 -150.22 52.42 131.46 113.23 -110.89 147.70 
DOCKED: USER  keepresnum = 1 
DOCKED: USER  
DOCKED: REMARK  Name = 
DOCKED: REMARK  8 active torsions:
DOCKED: REMARK  status: ('A' for Active; 'I' for Inactive)
DOCKED: REMARK    1  A    between atoms: C_2  and  C_5
DOCKED: REMARK    2  A    between atoms: C_5  and  C_6
DOCKED: REMARK    3  A    between atoms: C_6  and  C_7
DOCKED: REMARK    4  A    between atoms: C_7  and  C_8
DOCKED: REMARK    5  A    between atoms: C_8  and  C_9
DOCKED: REMARK    6  A    between atoms: C_9  and  C_10
DOCKED: REMARK    7  A    between atoms: C_10  and  C_11
DOCKED: REMARK    8  A    between atoms: N_12  and  C_13
DOCKED: REMARK                            x       y       z     vdW  Elec       q    Type
DOCKED: REMARK                         _______ _______ _______ _____ _____    ______ ____
DOCKED: USER                              x       y       z     vdW  Elec       q    Type
DOCKED: USER                           _______ _______ _______ _____ _____    ______ ____
DOCKED: ROOT
DOCKED: ATOM      1  C   UNL     1      38.575  14.751 122.858 -0.39 -0.00    +0.000 C 
DOCKED: ENDROOT
DOCKED: BRANCH   1   2
DOCKED: ATOM      2  C   UNL     1      39.759  15.574 122.447 -0.36 -0.00    +0.000 C 
DOCKED: ATOM      3  N   UNL     1      41.056  14.963 122.348 -0.48 -0.00    +0.000 N 
DOCKED: ATOM      4  O   UNL     1      39.602  16.798 122.193 -0.20 -0.00    +0.000 OA
DOCKED: ATOM      5  H   UNL     1      41.108  13.981 122.383 -0.05 +0.00    +0.000 HD
DOCKED: BRANCH   3   6
DOCKED: ATOM      6  C   UNL     1      42.283  15.697 122.200 -0.41 -0.00    +0.000 A 
DOCKED: ATOM      7  C   UNL     1      43.074  15.592 121.044 -0.24 -0.00    +0.000 A 
DOCKED: ATOM      8  C   UNL     1      44.246  16.343 120.928 -0.23 -0.00    +0.000 A 
DOCKED: ATOM      9  C   UNL     1      44.611  17.205 121.962 -0.26 -0.00    +0.000 A 
DOCKED: ATOM     10  N   UNL     1      43.825  17.316 123.067 -0.35 -0.00    +0.000 NA
DOCKED: ATOM     11  C   UNL     1      42.680  16.596 123.203 -0.34 -0.00    +0.000 A 
DOCKED: ATOM     12  CM  UNL     1      43.463  16.482 122.094 +0.00 -0.00    +0.000 AC
DOCKED: ENDBRANCH   3   6
DOCKED: ENDBRANCH   1   2
DOCKED: BRANCH   1  12
DOCKED: ATOM     13  C   UNL     1      37.409  14.971 121.887 -0.34 -0.00    +0.000 C 
DOCKED: BRANCH  12  13
DOCKED: ATOM     14  C   UNL     1      37.586  14.221 120.554 -0.36 -0.00    +0.000 C 
DOCKED: BRANCH  13  14
DOCKED: ATOM     15  C   UNL     1      37.896  12.719 120.689 -0.48 -0.00    +0.000 C 
DOCKED: BRANCH  14  15
DOCKED: ATOM     16  C   UNL     1      36.704  11.905 121.224 -0.51 -0.00    +0.000 C 
DOCKED: BRANCH  15  16
DOCKED: ATOM     17  C   UNL     1      37.054  11.135 122.503 -0.58 -0.00    +0.000 C 
DOCKED: BRANCH  16  18
DOCKED: ATOM     18  O   UNL     1      37.000   9.196 121.106 -2.71 -0.00    +0.000 OA
DOCKED: ATOM     19  C   UNL     1      37.052   9.651 122.281 -0.60 -0.00    +0.000 C 
DOCKED: ATOM     20  N   UNL     1      37.081   8.752 123.392 -0.64 -0.00    +0.000 N 
DOCKED: ATOM     21  O   UNL     1      37.065   7.413 123.191 -2.39 -0.00    +0.000 OA
DOCKED: ATOM     22  H   UNL     1      37.113   9.108 124.309 -0.54 -0.00    +0.000 HD
DOCKED: ENDBRANCH  16  18
DOCKED: ENDBRANCH  15  16
DOCKED: ENDBRANCH  14  15
DOCKED: ENDBRANCH  13  14
DOCKED: ENDBRANCH  12  13
DOCKED: ENDBRANCH   1  12
DOCKED: TORSDOF 8DOCKED: TER
DOCKED: ENDMDL
________________________________________________________________________________


	BEGINNING GENETIC ALGORITHM DOCKING 75 of 100
Run: 75 Seed: 1597795707 154897904 [ Run 75 of 100 GA/GALS ]
Beginning LAMARCKIAN GENETIC ALGORITHM (LGA), with a maximum of 2500000 energy evaluations.

Final-Value: -14.009


	FINAL GENETIC ALGORITHM DOCKED STATE
	_______________________________________________


Detailed state:  trans 37.820 15.508 120.629 quatxyzw 0.739999 -0.014387 -0.635044 0.221164 center 0.003 -0.142 -0.069 ntor 8 -179.6685 4.8732 86.9470 -85.7223 -163.1862 -57.3214 -168.8641 165.6511
State:	 37.820  15.508 120.629   0.759 -0.015 -0.651 154.445   -179.67    4.87   86.95  -85.72 -163.19  -57.32 -168.86  165.65

DOCKED: MODEL       75
DOCKED: USER    Run = 75
DOCKED: USER    DPF = ligand_dock.biased.dpf
DOCKED: USER  
DOCKED: USER    Estimated Free Energy of Binding    =  -10.49 kcal/mol  [=(1)+(2)+(3)-(4)]
DOCKED: USER    Estimated Inhibition Constant, Ki   =   20.62 nM (nanomolar)  [Temperature = 298.15 K]
DOCKED: USER    
DOCKED: USER    (1) Final Intermolecular Energy     =  -12.87 kcal/mol
DOCKED: USER        vdW + Hbond + desolv Energy     =  -12.87 kcal/mol
DOCKED: USER        Electrostatic Energy            =   +0.00 kcal/mol
DOCKED: USER    (2) Final Total Internal Energy     =   -1.14 kcal/mol
DOCKED: USER    (3) Torsional Free Energy           =   +2.39 kcal/mol
DOCKED: USER    (4) Unbound System's Energy  [=(2)] =   -1.14 kcal/mol
DOCKED: USER    
DOCKED: USER    
DOCKED: USER    NEWDPF move ligand.dum.pdbqt
DOCKED: USER    NEWDPF about 0.003000 -0.142000 -0.069000
DOCKED: USER    NEWDPF tran0 37.819717 15.508147 120.629001
DOCKED: USER    NEWDPF quaternion0 0.739999 -0.014387 -0.635044 0.221164
DOCKED: USER    NEWDPF axisangle0 0.758789 -0.014752 -0.651169 154.445190
DOCKED: USER    NEWDPF quat0 0.758789 -0.014752 -0.651169 154.445190
DOCKED: USER    NEWDPF dihe0 -179.67 4.87 86.95 -85.72 -163.19 -57.32 -168.86 165.65 
DOCKED: USER  keepresnum = 1 
DOCKED: USER  
DOCKED: REMARK  Name = 
DOCKED: REMARK  8 active torsions:
DOCKED: REMARK  status: ('A' for Active; 'I' for Inactive)
DOCKED: REMARK    1  A    between atoms: C_2  and  C_5
DOCKED: REMARK    2  A    between atoms: C_5  and  C_6
DOCKED: REMARK    3  A    between atoms: C_6  and  C_7
DOCKED: REMARK    4  A    between atoms: C_7  and  C_8
DOCKED: REMARK    5  A    between atoms: C_8  and  C_9
DOCKED: REMARK    6  A    between atoms: C_9  and  C_10
DOCKED: REMARK    7  A    between atoms: C_10  and  C_11
DOCKED: REMARK    8  A    between atoms: N_12  and  C_13
DOCKED: REMARK                            x       y       z     vdW  Elec       q    Type
DOCKED: REMARK                         _______ _______ _______ _____ _____    ______ ____
DOCKED: USER                              x       y       z     vdW  Elec       q    Type
DOCKED: USER                           _______ _______ _______ _____ _____    ______ ____
DOCKED: ROOT
DOCKED: ATOM      1  C   UNL     1      38.165  16.065 121.134 -0.20 -0.00    +0.000 C 
DOCKED: ENDROOT
DOCKED: BRANCH   1   2
DOCKED: ATOM      2  C   UNL     1      37.317  15.927 122.363 -0.29 -0.00    +0.000 C 
DOCKED: ATOM      3  N   UNL     1      36.033  16.568 122.424 -0.26 -0.00    +0.000 N 
DOCKED: ATOM      4  O   UNL     1      37.744  15.247 123.335 -0.42 -0.00    +0.000 OA
DOCKED: ATOM      5  H   UNL     1      35.662  16.939 121.590 -0.01 -0.00    +0.000 HD
DOCKED: BRANCH   3   6
DOCKED: ATOM      6  C   UNL     1      35.254  16.701 123.625 -0.37 -0.00    +0.000 A 
DOCKED: ATOM      7  C   UNL     1      34.856  17.957 124.114 -0.32 -0.00    +0.000 A 
DOCKED: ATOM      8  C   UNL     1      34.077  18.041 125.270 -0.34 -0.00    +0.000 A 
DOCKED: ATOM      9  C   UNL     1      33.688  16.870 125.920 -0.35 -0.00    +0.000 A 
DOCKED: ATOM     10  N   UNL     1      34.060  15.659 125.424 -0.63 -0.00    +0.000 NA
DOCKED: ATOM     11  C   UNL     1      34.818  15.551 124.300 -0.51 -0.00    +0.000 A 
DOCKED: ATOM     12  CM  UNL     1      34.448  16.766 124.793 -0.20 -0.00    +0.000 AC
DOCKED: ENDBRANCH   3   6
DOCKED: ENDBRANCH   1   2
DOCKED: BRANCH   1  12
DOCKED: ATOM     13  C   UNL     1      38.294  14.714 120.420 -0.30 -0.00    +0.000 C 
DOCKED: BRANCH  12  13
DOCKED: ATOM     14  C   UNL     1      37.204  13.708 120.833 -0.39 -0.00    +0.000 C 
DOCKED: BRANCH  13  14
DOCKED: ATOM     15  C   UNL     1      37.725  12.420 121.497 -0.39 -0.00    +0.000 C 
DOCKED: BRANCH  14  15
DOCKED: ATOM     16  C   UNL     1      36.932  12.030 122.756 -0.63 -0.00    +0.000 C 
DOCKED: BRANCH  15  16
DOCKED: ATOM     17  C   UNL     1      35.888  10.943 122.471 -0.65 -0.00    +0.000 C 
DOCKED: BRANCH  16  18
DOCKED: ATOM     18  O   UNL     1      36.686   9.120 121.145 -2.61 -0.00    +0.000 OA
DOCKED: ATOM     19  C   UNL     1      36.520   9.592 122.302 -0.70 -0.00    +0.000 C 
DOCKED: ATOM     20  N   UNL     1      36.906   8.825 123.445 -0.61 -0.00    +0.000 N 
DOCKED: ATOM     21  O   UNL     1      37.463   7.601 123.293 -2.34 -0.00    +0.000 OA
DOCKED: ATOM     22  H   UNL     1      36.768   9.190 124.349 -0.36 -0.00    +0.000 HD
DOCKED: ENDBRANCH  16  18
DOCKED: ENDBRANCH  15  16
DOCKED: ENDBRANCH  14  15
DOCKED: ENDBRANCH  13  14
DOCKED: ENDBRANCH  12  13
DOCKED: ENDBRANCH   1  12
DOCKED: TORSDOF 8DOCKED: TER
DOCKED: ENDMDL
________________________________________________________________________________


	BEGINNING GENETIC ALGORITHM DOCKING 76 of 100
Run: 76 Seed: 1071675849 888040091 [ Run 76 of 100 GA/GALS ]
Beginning LAMARCKIAN GENETIC ALGORITHM (LGA), with a maximum of 2500000 energy evaluations.

Final-Value: -14.018


	FINAL GENETIC ALGORITHM DOCKED STATE
	_______________________________________________


Detailed state:  trans 35.013 15.062 123.927 quatxyzw -0.431687 0.108626 0.691903 0.568434 center 0.003 -0.142 -0.069 ntor 8 139.5117 36.9299 -66.9946 -116.8901 164.8401 -80.2541 -14.3696 -137.0633
State:	 35.013  15.062 123.927  -0.525  0.132  0.841 110.718    139.51   36.93  -66.99 -116.89  164.84  -80.25  -14.37 -137.06

DOCKED: MODEL       76
DOCKED: USER    Run = 76
DOCKED: USER    DPF = ligand_dock.biased.dpf
DOCKED: USER  
DOCKED: USER    Estimated Free Energy of Binding    =  -10.92 kcal/mol  [=(1)+(2)+(3)-(4)]
DOCKED: USER    Estimated Inhibition Constant, Ki   =    9.90 nM (nanomolar)  [Temperature = 298.15 K]
DOCKED: USER    
DOCKED: USER    (1) Final Intermolecular Energy     =  -13.31 kcal/mol
DOCKED: USER        vdW + Hbond + desolv Energy     =  -13.31 kcal/mol
DOCKED: USER        Electrostatic Energy            =   +0.00 kcal/mol
DOCKED: USER    (2) Final Total Internal Energy     =   -0.71 kcal/mol
DOCKED: USER    (3) Torsional Free Energy           =   +2.39 kcal/mol
DOCKED: USER    (4) Unbound System's Energy  [=(2)] =   -0.71 kcal/mol
DOCKED: USER    
DOCKED: USER    
DOCKED: USER    NEWDPF move ligand.dum.pdbqt
DOCKED: USER    NEWDPF about 0.003000 -0.142000 -0.069000
DOCKED: USER    NEWDPF tran0 35.013430 15.062361 123.926800
DOCKED: USER    NEWDPF quaternion0 -0.431687 0.108626 0.691903 0.568434
DOCKED: USER    NEWDPF axisangle0 -0.524701 0.132031 0.840985 110.717836
DOCKED: USER    NEWDPF quat0 -0.524701 0.132031 0.840985 110.717836
DOCKED: USER    NEWDPF dihe0 139.51 36.93 -66.99 -116.89 164.84 -80.25 -14.37 -137.06 
DOCKED: USER  keepresnum = 1 
DOCKED: USER  
DOCKED: REMARK  Name = 
DOCKED: REMARK  8 active torsions:
DOCKED: REMARK  status: ('A' for Active; 'I' for Inactive)
DOCKED: REMARK    1  A    between atoms: C_2  and  C_5
DOCKED: REMARK    2  A    between atoms: C_5  and  C_6
DOCKED: REMARK    3  A    between atoms: C_6  and  C_7
DOCKED: REMARK    4  A    between atoms: C_7  and  C_8
DOCKED: REMARK    5  A    between atoms: C_8  and  C_9
DOCKED: REMARK    6  A    between atoms: C_9  and  C_10
DOCKED: REMARK    7  A    between atoms: C_10  and  C_11
DOCKED: REMARK    8  A    between atoms: N_12  and  C_13
DOCKED: REMARK                            x       y       z     vdW  Elec       q    Type
DOCKED: REMARK                         _______ _______ _______ _____ _____    ______ ____
DOCKED: USER                              x       y       z     vdW  Elec       q    Type
DOCKED: USER                           _______ _______ _______ _____ _____    ______ ____
DOCKED: ROOT
DOCKED: ATOM      1  C   UNL     1      34.608  15.610 123.457 -0.50 -0.00    +0.000 C 
DOCKED: ENDROOT
DOCKED: BRANCH   1   2
DOCKED: ATOM      2  C   UNL     1      34.132  16.596 124.481 -0.48 -0.00    +0.000 C 
DOCKED: ATOM      3  N   UNL     1      33.998  16.195 125.854 -0.48 -0.00    +0.000 N 
DOCKED: ATOM      4  O   UNL     1      33.851  17.771 124.123 -0.45 -0.00    +0.000 OA
DOCKED: ATOM      5  H   UNL     1      34.389  15.332 126.123 -0.05 -0.00    +0.000 HD
DOCKED: BRANCH   3   6
DOCKED: ATOM      6  C   UNL     1      33.331  16.975 126.860 -0.37 -0.00    +0.000 A 
DOCKED: ATOM      7  C   UNL     1      33.330  18.380 126.828 -0.27 -0.00    +0.000 A 
DOCKED: ATOM      8  C   UNL     1      32.647  19.100 127.810 -0.17 -0.00    +0.000 A 
DOCKED: ATOM      9  C   UNL     1      31.957  18.412 128.809 -0.20 -0.00    +0.000 A 
DOCKED: ATOM     10  N   UNL     1      31.945  17.052 128.815 -0.38 -0.00    +0.000 NA
DOCKED: ATOM     11  C   UNL     1      32.602  16.328 127.870 -0.39 -0.00    +0.000 A 
DOCKED: ATOM     12  CM  UNL     1      32.616  17.690 127.858 +0.00 -0.00    +0.000 AC
DOCKED: ENDBRANCH   3   6
DOCKED: ENDBRANCH   1   2
DOCKED: BRANCH   1  12
DOCKED: ATOM     13  C   UNL     1      35.959  15.016 123.875 -0.50 -0.00    +0.000 C 
DOCKED: BRANCH  12  13
DOCKED: ATOM     14  C   UNL     1      36.428  13.878 122.951 -0.50 -0.00    +0.000 C 
DOCKED: BRANCH  13  14
DOCKED: ATOM     15  C   UNL     1      37.122  12.703 123.666 -0.55 -0.00    +0.000 C 
DOCKED: BRANCH  14  15
DOCKED: ATOM     16  C   UNL     1      36.209  11.475 123.828 -0.68 -0.00    +0.000 C 
DOCKED: BRANCH  15  16
DOCKED: ATOM     17  C   UNL     1      35.885  10.813 122.483 -0.66 -0.00    +0.000 C 
DOCKED: BRANCH  16  18
DOCKED: ATOM     18  O   UNL     1      37.060   9.189 121.178 -2.73 -0.00    +0.000 OA
DOCKED: ATOM     19  C   UNL     1      36.611   9.510 122.312 -0.71 -0.00    +0.000 C 
DOCKED: ATOM     20  N   UNL     1      36.770   8.619 123.418 -0.64 -0.00    +0.000 N 
DOCKED: ATOM     21  O   UNL     1      37.413   7.438 123.260 -2.28 -0.00    +0.000 OA
DOCKED: ATOM     22  H   UNL     1      36.412   8.866 124.301 -0.33 -0.00    +0.000 HD
DOCKED: ENDBRANCH  16  18
DOCKED: ENDBRANCH  15  16
DOCKED: ENDBRANCH  14  15
DOCKED: ENDBRANCH  13  14
DOCKED: ENDBRANCH  12  13
DOCKED: ENDBRANCH   1  12
DOCKED: TORSDOF 8DOCKED: TER
DOCKED: ENDMDL
________________________________________________________________________________


	BEGINNING GENETIC ALGORITHM DOCKING 77 of 100
Run: 77 Seed: 521560484 1843141827 [ Run 77 of 100 GA/GALS ]
Beginning LAMARCKIAN GENETIC ALGORITHM (LGA), with a maximum of 2500000 energy evaluations.

Final-Value: -12.681


	FINAL GENETIC ALGORITHM DOCKED STATE
	_______________________________________________


Detailed state:  trans 36.214 14.477 123.833 quatxyzw 0.244533 -0.421307 0.561959 -0.668510 center 0.003 -0.142 -0.069 ntor 8 26.9999 52.7974 166.8073 -175.5961 -44.1209 151.0668 17.5504 -175.7635
State:	 36.214  14.477 123.833   0.329 -0.566  0.756 -96.096     27.00   52.80  166.81 -175.60  -44.12  151.07   17.55 -175.76

DOCKED: MODEL       77
DOCKED: USER    Run = 77
DOCKED: USER    DPF = ligand_dock.biased.dpf
DOCKED: USER  
DOCKED: USER    Estimated Free Energy of Binding    =   -8.69 kcal/mol  [=(1)+(2)+(3)-(4)]
DOCKED: USER    Estimated Inhibition Constant, Ki   =  428.17 nM (nanomolar)  [Temperature = 298.15 K]
DOCKED: USER    
DOCKED: USER    (1) Final Intermolecular Energy     =  -11.07 kcal/mol
DOCKED: USER        vdW + Hbond + desolv Energy     =  -11.07 kcal/mol
DOCKED: USER        Electrostatic Energy            =   +0.00 kcal/mol
DOCKED: USER    (2) Final Total Internal Energy     =   -1.61 kcal/mol
DOCKED: USER    (3) Torsional Free Energy           =   +2.39 kcal/mol
DOCKED: USER    (4) Unbound System's Energy  [=(2)] =   -1.61 kcal/mol
DOCKED: USER    
DOCKED: USER    
DOCKED: USER    NEWDPF move ligand.dum.pdbqt
DOCKED: USER    NEWDPF about 0.003000 -0.142000 -0.069000
DOCKED: USER    NEWDPF tran0 36.213786 14.477169 123.832687
DOCKED: USER    NEWDPF quaternion0 0.244533 -0.421307 0.561959 -0.668510
DOCKED: USER    NEWDPF axisangle0 0.328805 -0.566498 0.755624 -96.095609
DOCKED: USER    NEWDPF quat0 0.328805 -0.566498 0.755624 -96.095609
DOCKED: USER    NEWDPF dihe0 27.00 52.80 166.81 -175.60 -44.12 151.07 17.55 -175.76 
DOCKED: USER  keepresnum = 1 
DOCKED: USER  
DOCKED: REMARK  Name = 
DOCKED: REMARK  8 active torsions:
DOCKED: REMARK  status: ('A' for Active; 'I' for Inactive)
DOCKED: REMARK    1  A    between atoms: C_2  and  C_5
DOCKED: REMARK    2  A    between atoms: C_5  and  C_6
DOCKED: REMARK    3  A    between atoms: C_6  and  C_7
DOCKED: REMARK    4  A    between atoms: C_7  and  C_8
DOCKED: REMARK    5  A    between atoms: C_8  and  C_9
DOCKED: REMARK    6  A    between atoms: C_9  and  C_10
DOCKED: REMARK    7  A    between atoms: C_10  and  C_11
DOCKED: REMARK    8  A    between atoms: N_12  and  C_13
DOCKED: REMARK                            x       y       z     vdW  Elec       q    Type
DOCKED: REMARK                         _______ _______ _______ _____ _____    ______ ____
DOCKED: USER                              x       y       z     vdW  Elec       q    Type
DOCKED: USER                           _______ _______ _______ _____ _____    ______ ____
DOCKED: ROOT
DOCKED: ATOM      1  C   UNL     1      36.992  14.284 123.627 -0.41 -0.00    +0.000 C 
DOCKED: ENDROOT
DOCKED: BRANCH   1   2
DOCKED: ATOM      2  C   UNL     1      36.792  13.041 122.814 -0.58 -0.00    +0.000 C 
DOCKED: ATOM      3  N   UNL     1      36.197  11.879 123.415 -0.64 -0.00    +0.000 N 
DOCKED: ATOM      4  O   UNL     1      37.152  13.028 121.606 -0.47 -0.00    +0.000 OA
DOCKED: ATOM      5  H   UNL     1      35.772  11.983 124.298 -0.06 -0.00    +0.000 HD
DOCKED: BRANCH   3   6
DOCKED: ATOM      6  C   UNL     1      36.179  10.577 122.808 -0.61 -0.00    +0.000 A 
DOCKED: ATOM      7  C   UNL     1      35.239   9.600 123.178 -0.40 -0.00    +0.000 A 
DOCKED: ATOM      8  C   UNL     1      35.239   8.355 122.544 -0.61 -0.00    +0.000 A 
DOCKED: ATOM      9  C   UNL     1      36.168   8.101 121.535 -0.52 -0.00    +0.000 A 
DOCKED: ATOM     10  N   UNL     1      37.057   9.063 121.169 -2.62 -0.00    +0.000 NA
DOCKED: ATOM     11  C   UNL     1      37.077  10.282 121.771 -0.41 -0.00    +0.000 A 
DOCKED: ATOM     12  CM  UNL     1      36.184   9.323 122.140 +0.00 -0.00    +0.000 AC
DOCKED: ENDBRANCH   3   6
DOCKED: ENDBRANCH   1   2
DOCKED: BRANCH   1  12
DOCKED: ATOM     13  C   UNL     1      35.806  15.239 123.443 -0.48 -0.00    +0.000 C 
DOCKED: BRANCH  12  13
DOCKED: ATOM     14  C   UNL     1      36.172  16.712 123.701 -0.34 -0.00    +0.000 C 
DOCKED: BRANCH  13  14
DOCKED: ATOM     15  C   UNL     1      36.665  17.487 122.466 -0.21 -0.00    +0.000 C 
DOCKED: BRANCH  14  15
DOCKED: ATOM     16  C   UNL     1      38.181  17.750 122.488 -0.15 -0.00    +0.000 C 
DOCKED: BRANCH  15  16
DOCKED: ATOM     17  C   UNL     1      38.886  16.988 123.617 -0.23 -0.00    +0.000 C 
DOCKED: BRANCH  16  18
DOCKED: ATOM     18  O   UNL     1      41.182  16.434 123.245 -0.70 -0.00    +0.000 OA
DOCKED: ATOM     19  C   UNL     1      39.976  16.098 123.095 -0.21 -0.00    +0.000 C 
DOCKED: ATOM     20  N   UNL     1      39.655  14.888 122.406 -0.40 -0.00    +0.000 N 
DOCKED: ATOM     21  O   UNL     1      40.638  14.092 121.923 -1.01 +0.00    +0.000 OA
DOCKED: ATOM     22  H   UNL     1      38.713  14.631 122.281 -0.01 -0.00    +0.000 HD
DOCKED: ENDBRANCH  16  18
DOCKED: ENDBRANCH  15  16
DOCKED: ENDBRANCH  14  15
DOCKED: ENDBRANCH  13  14
DOCKED: ENDBRANCH  12  13
DOCKED: ENDBRANCH   1  12
DOCKED: TORSDOF 8DOCKED: TER
DOCKED: ENDMDL
________________________________________________________________________________


	BEGINNING GENETIC ALGORITHM DOCKING 78 of 100
Run: 78 Seed: 739870660 767114688 [ Run 78 of 100 GA/GALS ]
Beginning LAMARCKIAN GENETIC ALGORITHM (LGA), with a maximum of 2500000 energy evaluations.

Final-Value: -13.839


	FINAL GENETIC ALGORITHM DOCKED STATE
	_______________________________________________


Detailed state:  trans 39.414 14.865 122.020 quatxyzw 0.176231 -0.608791 0.760125 0.143268 center 0.003 -0.142 -0.069 ntor 8 -117.7632 180.0000 -137.1636 -9.9792 -144.2740 104.5936 -86.8645 -25.8463
State:	 39.414  14.865 122.020   0.178 -0.615  0.768 163.526   -117.76  180.00 -137.16   -9.98 -144.27  104.59  -86.86  -25.85

DOCKED: MODEL       78
DOCKED: USER    Run = 78
DOCKED: USER    DPF = ligand_dock.biased.dpf
DOCKED: USER  
DOCKED: USER    Estimated Free Energy of Binding    =  -10.62 kcal/mol  [=(1)+(2)+(3)-(4)]
DOCKED: USER    Estimated Inhibition Constant, Ki   =   16.40 nM (nanomolar)  [Temperature = 298.15 K]
DOCKED: USER    
DOCKED: USER    (1) Final Intermolecular Energy     =  -13.01 kcal/mol
DOCKED: USER        vdW + Hbond + desolv Energy     =  -13.01 kcal/mol
DOCKED: USER        Electrostatic Energy            =   +0.00 kcal/mol
DOCKED: USER    (2) Final Total Internal Energy     =   -0.83 kcal/mol
DOCKED: USER    (3) Torsional Free Energy           =   +2.39 kcal/mol
DOCKED: USER    (4) Unbound System's Energy  [=(2)] =   -0.83 kcal/mol
DOCKED: USER    
DOCKED: USER    
DOCKED: USER    NEWDPF move ligand.dum.pdbqt
DOCKED: USER    NEWDPF about 0.003000 -0.142000 -0.069000
DOCKED: USER    NEWDPF tran0 39.414366 14.865200 122.019727
DOCKED: USER    NEWDPF quaternion0 0.176231 -0.608791 0.760125 0.143268
DOCKED: USER    NEWDPF axisangle0 0.178068 -0.615137 0.768048 163.525954
DOCKED: USER    NEWDPF quat0 0.178068 -0.615137 0.768048 163.525954
DOCKED: USER    NEWDPF dihe0 -117.76 180.00 -137.16 -9.98 -144.27 104.59 -86.86 -25.85 
DOCKED: USER  keepresnum = 1 
DOCKED: USER  
DOCKED: REMARK  Name = 
DOCKED: REMARK  8 active torsions:
DOCKED: REMARK  status: ('A' for Active; 'I' for Inactive)
DOCKED: REMARK    1  A    between atoms: C_2  and  C_5
DOCKED: REMARK    2  A    between atoms: C_5  and  C_6
DOCKED: REMARK    3  A    between atoms: C_6  and  C_7
DOCKED: REMARK    4  A    between atoms: C_7  and  C_8
DOCKED: REMARK    5  A    between atoms: C_8  and  C_9
DOCKED: REMARK    6  A    between atoms: C_9  and  C_10
DOCKED: REMARK    7  A    between atoms: C_10  and  C_11
DOCKED: REMARK    8  A    between atoms: N_12  and  C_13
DOCKED: REMARK                            x       y       z     vdW  Elec       q    Type
DOCKED: REMARK                         _______ _______ _______ _____ _____    ______ ____
DOCKED: USER                              x       y       z     vdW  Elec       q    Type
DOCKED: USER                           _______ _______ _______ _____ _____    ______ ____
DOCKED: ROOT
DOCKED: ATOM      1  C   UNL     1      39.573  15.302 122.704 -0.37 -0.00    +0.000 C 
DOCKED: ENDROOT
DOCKED: BRANCH   1   2
DOCKED: ATOM      2  C   UNL     1      41.071  15.343 122.699 -0.50 -0.00    +0.000 C 
DOCKED: ATOM      3  N   UNL     1      41.757  16.398 122.005 -0.28 -0.00    +0.000 N 
DOCKED: ATOM      4  O   UNL     1      41.716  14.446 123.307 -0.96 +0.00    +0.000 OA
DOCKED: ATOM      5  H   UNL     1      41.227  17.168 121.696 +0.00 -0.00    +0.000 HD
DOCKED: BRANCH   3   6
DOCKED: ATOM      6  C   UNL     1      43.169  16.400 121.735 -0.30 -0.00    +0.000 A 
DOCKED: ATOM      7  C   UNL     1      44.067  17.169 122.496 -0.31 -0.00    +0.000 A 
DOCKED: ATOM      8  C   UNL     1      45.435  17.122 122.218 -0.28 -0.00    +0.000 A 
DOCKED: ATOM      9  C   UNL     1      45.898  16.296 121.193 -0.24 +0.00    +0.000 A 
DOCKED: ATOM     10  N   UNL     1      45.021  15.539 120.480 -0.31 +0.00    +0.000 NA
DOCKED: ATOM     11  C   UNL     1      43.685  15.567 120.731 -0.22 -0.00    +0.000 A 
DOCKED: ATOM     12  CM  UNL     1      44.559  16.327 121.449 +0.00 +0.00    +0.000 AC
DOCKED: ENDBRANCH   3   6
DOCKED: ENDBRANCH   1   2
DOCKED: BRANCH   1  12
DOCKED: ATOM     13  C   UNL     1      39.034  15.301 121.269 -0.29 -0.00    +0.000 C 
DOCKED: BRANCH  12  13
DOCKED: ATOM     14  C   UNL     1      38.611  13.901 120.786 -0.36 -0.00    +0.000 C 
DOCKED: BRANCH  13  14
DOCKED: ATOM     15  C   UNL     1      37.816  13.071 121.811 -0.47 -0.00    +0.000 C 
DOCKED: BRANCH  14  15
DOCKED: ATOM     16  C   UNL     1      36.886  12.037 121.155 -0.52 -0.00    +0.000 C 
DOCKED: BRANCH  15  16
DOCKED: ATOM     17  C   UNL     1      36.199  11.136 122.188 -0.63 -0.00    +0.000 C 
DOCKED: BRANCH  16  18
DOCKED: ATOM     18  O   UNL     1      36.978   9.195 121.028 -2.70 -0.00    +0.000 OA
DOCKED: ATOM     19  C   UNL     1      36.724   9.730 122.142 -0.67 -0.00    +0.000 C 
DOCKED: ATOM     20  N   UNL     1      36.909   8.985 123.347 -0.61 -0.00    +0.000 N 
DOCKED: ATOM     21  O   UNL     1      37.368   7.712 123.303 -2.51 -0.00    +0.000 OA
DOCKED: ATOM     22  H   UNL     1      36.701   9.400 124.215 -0.48 -0.00    +0.000 HD
DOCKED: ENDBRANCH  16  18
DOCKED: ENDBRANCH  15  16
DOCKED: ENDBRANCH  14  15
DOCKED: ENDBRANCH  13  14
DOCKED: ENDBRANCH  12  13
DOCKED: ENDBRANCH   1  12
DOCKED: TORSDOF 8DOCKED: TER
DOCKED: ENDMDL
________________________________________________________________________________


	BEGINNING GENETIC ALGORITHM DOCKING 79 of 100
Run: 79 Seed: 1765844255 1245936362 [ Run 79 of 100 GA/GALS ]
Beginning LAMARCKIAN GENETIC ALGORITHM (LGA), with a maximum of 2500000 energy evaluations.

Final-Value: -13.909


	FINAL GENETIC ALGORITHM DOCKED STATE
	_______________________________________________


Detailed state:  trans 35.495 13.700 123.549 quatxyzw 0.194245 0.679419 -0.595870 0.381573 center 0.003 -0.142 -0.069 ntor 8 119.8164 -174.7218 138.3233 163.4446 159.5170 104.8005 72.6770 -160.8424
State:	 35.495  13.700 123.549   0.210  0.735 -0.645 135.138    119.82 -174.72  138.32  163.44  159.52  104.80   72.68 -160.84

DOCKED: MODEL       79
DOCKED: USER    Run = 79
DOCKED: USER    DPF = ligand_dock.biased.dpf
DOCKED: USER  
DOCKED: USER    Estimated Free Energy of Binding    =   -9.13 kcal/mol  [=(1)+(2)+(3)-(4)]
DOCKED: USER    Estimated Inhibition Constant, Ki   =  203.27 nM (nanomolar)  [Temperature = 298.15 K]
DOCKED: USER    
DOCKED: USER    (1) Final Intermolecular Energy     =  -11.52 kcal/mol
DOCKED: USER        vdW + Hbond + desolv Energy     =  -11.52 kcal/mol
DOCKED: USER        Electrostatic Energy            =   +0.00 kcal/mol
DOCKED: USER    (2) Final Total Internal Energy     =   -2.39 kcal/mol
DOCKED: USER    (3) Torsional Free Energy           =   +2.39 kcal/mol
DOCKED: USER    (4) Unbound System's Energy  [=(2)] =   -2.39 kcal/mol
DOCKED: USER    
DOCKED: USER    
DOCKED: USER    NEWDPF move ligand.dum.pdbqt
DOCKED: USER    NEWDPF about 0.003000 -0.142000 -0.069000
DOCKED: USER    NEWDPF tran0 35.495499 13.699576 123.548808
DOCKED: USER    NEWDPF quaternion0 0.194245 0.679419 -0.595870 0.381573
DOCKED: USER    NEWDPF axisangle0 0.210145 0.735032 -0.644644 135.137727
DOCKED: USER    NEWDPF quat0 0.210145 0.735032 -0.644644 135.137727
DOCKED: USER    NEWDPF dihe0 119.82 -174.72 138.32 163.44 159.52 104.80 72.68 -160.84 
DOCKED: USER  keepresnum = 1 
DOCKED: USER  
DOCKED: REMARK  Name = 
DOCKED: REMARK  8 active torsions:
DOCKED: REMARK  status: ('A' for Active; 'I' for Inactive)
DOCKED: REMARK    1  A    between atoms: C_2  and  C_5
DOCKED: REMARK    2  A    between atoms: C_5  and  C_6
DOCKED: REMARK    3  A    between atoms: C_6  and  C_7
DOCKED: REMARK    4  A    between atoms: C_7  and  C_8
DOCKED: REMARK    5  A    between atoms: C_8  and  C_9
DOCKED: REMARK    6  A    between atoms: C_9  and  C_10
DOCKED: REMARK    7  A    between atoms: C_10  and  C_11
DOCKED: REMARK    8  A    between atoms: N_12  and  C_13
DOCKED: REMARK                            x       y       z     vdW  Elec       q    Type
DOCKED: REMARK                         _______ _______ _______ _____ _____    ______ ____
DOCKED: USER                              x       y       z     vdW  Elec       q    Type
DOCKED: USER                           _______ _______ _______ _____ _____    ______ ____
DOCKED: ROOT
DOCKED: ATOM      1  C   UNL     1      35.944  13.462 124.203 -0.42 -0.00    +0.000 C 
DOCKED: ENDROOT
DOCKED: BRANCH   1   2
DOCKED: ATOM      2  C   UNL     1      36.337  12.069 123.812 -0.70 -0.00    +0.000 C 
DOCKED: ATOM      3  N   UNL     1      35.351  11.168 123.281 -0.51 -0.00    +0.000 N 
DOCKED: ATOM      4  O   UNL     1      37.534  11.702 123.955 -0.66 -0.00    +0.000 OA
DOCKED: ATOM      5  H   UNL     1      34.477  11.541 123.022 -0.11 -0.00    +0.000 HD
DOCKED: BRANCH   3   6
DOCKED: ATOM      6  C   UNL     1      35.561   9.758 123.102 -0.54 -0.00    +0.000 A 
DOCKED: ATOM      7  C   UNL     1      34.521   8.898 122.711 -0.55 -0.00    +0.000 A 
DOCKED: ATOM      8  C   UNL     1      34.773   7.537 122.522 -0.62 -0.00    +0.000 A 
DOCKED: ATOM      9  C   UNL     1      36.066   7.048 122.711 -0.68 -0.00    +0.000 A 
DOCKED: ATOM     10  N   UNL     1      37.069   7.895 123.067 -2.31 -0.00    +0.000 NA
DOCKED: ATOM     11  C   UNL     1      36.849   9.223 123.257 -0.39 -0.00    +0.000 A 
DOCKED: ATOM     12  CM  UNL     1      35.841   8.379 122.899 +0.00 -0.00    +0.000 AC
DOCKED: ENDBRANCH   3   6
DOCKED: ENDBRANCH   1   2
DOCKED: BRANCH   1  12
DOCKED: ATOM     13  C   UNL     1      35.844  14.357 122.962 -0.21 -0.00    +0.000 C 
DOCKED: BRANCH  12  13
DOCKED: ATOM     14  C   UNL     1      37.092  15.233 122.749 -0.39 -0.00    +0.000 C 
DOCKED: BRANCH  13  14
DOCKED: ATOM     15  C   UNL     1      38.437  14.513 122.957 -0.41 -0.00    +0.000 C 
DOCKED: BRANCH  14  15
DOCKED: ATOM     16  C   UNL     1      39.067  14.026 121.641 -0.26 -0.00    +0.000 C 
DOCKED: BRANCH  15  16
DOCKED: ATOM     17  C   UNL     1      38.089  14.111 120.463 -0.36 -0.00    +0.000 C 
DOCKED: BRANCH  16  18
DOCKED: ATOM     18  O   UNL     1      37.021  12.598 118.950 -0.46 -0.00    +0.000 OA
DOCKED: ATOM     19  C   UNL     1      37.555  12.761 120.081 -0.49 -0.00    +0.000 C 
DOCKED: ATOM     20  N   UNL     1      37.621  11.669 121.000 -0.43 -0.00    +0.000 N 
DOCKED: ATOM     21  O   UNL     1      37.126  10.455 120.661 -1.00 -0.00    +0.000 OA
DOCKED: ATOM     22  H   UNL     1      38.029  11.799 121.887 -0.02 -0.00    +0.000 HD
DOCKED: ENDBRANCH  16  18
DOCKED: ENDBRANCH  15  16
DOCKED: ENDBRANCH  14  15
DOCKED: ENDBRANCH  13  14
DOCKED: ENDBRANCH  12  13
DOCKED: ENDBRANCH   1  12
DOCKED: TORSDOF 8DOCKED: TER
DOCKED: ENDMDL
________________________________________________________________________________


	BEGINNING GENETIC ALGORITHM DOCKING 80 of 100
Run: 80 Seed: 923619933 1535411683 [ Run 80 of 100 GA/GALS ]
Beginning LAMARCKIAN GENETIC ALGORITHM (LGA), with a maximum of 2500000 energy evaluations.

Final-Value: -13.317


	FINAL GENETIC ALGORITHM DOCKED STATE
	_______________________________________________


Detailed state:  trans 38.550 14.098 121.846 quatxyzw -0.936606 0.112060 -0.300826 0.140409 center 0.003 -0.142 -0.069 ntor 8 69.0219 112.1901 80.6644 104.9020 114.6455 -177.2663 77.1230 180.0000
State:	 38.550  14.098 121.846  -0.946  0.113 -0.304 163.857     69.02  112.19   80.66  104.90  114.65 -177.27   77.12  180.00

DOCKED: MODEL       80
DOCKED: USER    Run = 80
DOCKED: USER    DPF = ligand_dock.biased.dpf
DOCKED: USER  
DOCKED: USER    Estimated Free Energy of Binding    =  -10.08 kcal/mol  [=(1)+(2)+(3)-(4)]
DOCKED: USER    Estimated Inhibition Constant, Ki   =   40.76 nM (nanomolar)  [Temperature = 298.15 K]
DOCKED: USER    
DOCKED: USER    (1) Final Intermolecular Energy     =  -12.47 kcal/mol
DOCKED: USER        vdW + Hbond + desolv Energy     =  -12.47 kcal/mol
DOCKED: USER        Electrostatic Energy            =   +0.00 kcal/mol
DOCKED: USER    (2) Final Total Internal Energy     =   -0.85 kcal/mol
DOCKED: USER    (3) Torsional Free Energy           =   +2.39 kcal/mol
DOCKED: USER    (4) Unbound System's Energy  [=(2)] =   -0.85 kcal/mol
DOCKED: USER    
DOCKED: USER    
DOCKED: USER    NEWDPF move ligand.dum.pdbqt
DOCKED: USER    NEWDPF about 0.003000 -0.142000 -0.069000
DOCKED: USER    NEWDPF tran0 38.550356 14.097803 121.846085
DOCKED: USER    NEWDPF quaternion0 -0.936606 0.112060 -0.300826 0.140409
DOCKED: USER    NEWDPF axisangle0 -0.945978 0.113181 -0.303836 163.856945
DOCKED: USER    NEWDPF quat0 -0.945978 0.113181 -0.303836 163.856945
DOCKED: USER    NEWDPF dihe0 69.02 112.19 80.66 104.90 114.65 -177.27 77.12 180.00 
DOCKED: USER  keepresnum = 1 
DOCKED: USER  
DOCKED: REMARK  Name = 
DOCKED: REMARK  8 active torsions:
DOCKED: REMARK  status: ('A' for Active; 'I' for Inactive)
DOCKED: REMARK    1  A    between atoms: C_2  and  C_5
DOCKED: REMARK    2  A    between atoms: C_5  and  C_6
DOCKED: REMARK    3  A    between atoms: C_6  and  C_7
DOCKED: REMARK    4  A    between atoms: C_7  and  C_8
DOCKED: REMARK    5  A    between atoms: C_8  and  C_9
DOCKED: REMARK    6  A    between atoms: C_9  and  C_10
DOCKED: REMARK    7  A    between atoms: C_10  and  C_11
DOCKED: REMARK    8  A    between atoms: N_12  and  C_13
DOCKED: REMARK                            x       y       z     vdW  Elec       q    Type
DOCKED: REMARK                         _______ _______ _______ _____ _____    ______ ____
DOCKED: USER                              x       y       z     vdW  Elec       q    Type
DOCKED: USER                           _______ _______ _______ _____ _____    ______ ____
DOCKED: ROOT
DOCKED: ATOM      1  C   UNL     1      38.468  14.904 121.677 -0.36 -0.00    +0.000 C 
DOCKED: ENDROOT
DOCKED: BRANCH   1   2
DOCKED: ATOM      2  C   UNL     1      37.720  14.867 120.379 -0.28 -0.00    +0.000 C 
DOCKED: ATOM      3  N   UNL     1      38.343  14.317 119.207 -0.20 -0.00    +0.000 N 
DOCKED: ATOM      4  O   UNL     1      36.545  15.323 120.329 -0.19 -0.00    +0.000 OA
DOCKED: ATOM      5  H   UNL     1      39.183  13.816 119.323 -0.05 -0.00    +0.000 HD
DOCKED: BRANCH   3   6
DOCKED: ATOM      6  C   UNL     1      37.817  14.449 117.876 -0.26 -0.00    +0.000 A 
DOCKED: ATOM      7  C   UNL     1      38.502  15.158 116.875 -0.19 -0.00    +0.000 A 
DOCKED: ATOM      8  C   UNL     1      37.969  15.241 115.587 -0.18 -0.00    +0.000 A 
DOCKED: ATOM      9  C   UNL     1      36.762  14.601 115.304 -0.23 -0.00    +0.000 A 
DOCKED: ATOM     10  N   UNL     1      36.120  13.897 116.275 -0.32 -0.00    +0.000 NA
DOCKED: ATOM     11  C   UNL     1      36.618  13.803 117.536 -0.36 -0.00    +0.000 A 
DOCKED: ATOM     12  CM  UNL     1      37.267  14.507 116.567 +0.00 -0.00    +0.000 AC
DOCKED: ENDBRANCH   3   6
DOCKED: ENDBRANCH   1   2
DOCKED: BRANCH   1  12
DOCKED: ATOM     13  C   UNL     1      38.058  13.722 122.563 -0.48 -0.00    +0.000 C 
DOCKED: BRANCH  12  13
DOCKED: ATOM     14  C   UNL     1      36.951  14.081 123.572 -0.46 -0.00    +0.000 C 
DOCKED: BRANCH  13  14
DOCKED: ATOM     15  C   UNL     1      35.667  13.240 123.455 -0.50 -0.00    +0.000 C 
DOCKED: BRANCH  14  15
DOCKED: ATOM     16  C   UNL     1      35.936  11.725 123.481 -0.68 -0.00    +0.000 C 
DOCKED: BRANCH  15  16
DOCKED: ATOM     17  C   UNL     1      36.629  11.237 122.203 -0.64 -0.00    +0.000 C 
DOCKED: BRANCH  16  18
DOCKED: ATOM     18  O   UNL     1      36.789   9.108 121.128 -2.64 -0.00    +0.000 OA
DOCKED: ATOM     19  C   UNL     1      36.836   9.751 122.212 -0.65 -0.00    +0.000 C 
DOCKED: ATOM     20  N   UNL     1      37.057   9.057 123.441 -0.58 -0.00    +0.000 N 
DOCKED: ATOM     21  O   UNL     1      37.230   7.715 123.450 -2.65 -0.00    +0.000 OA
DOCKED: ATOM     22  H   UNL     1      37.085   9.559 124.288 -0.56 -0.00    +0.000 HD
DOCKED: ENDBRANCH  16  18
DOCKED: ENDBRANCH  15  16
DOCKED: ENDBRANCH  14  15
DOCKED: ENDBRANCH  13  14
DOCKED: ENDBRANCH  12  13
DOCKED: ENDBRANCH   1  12
DOCKED: TORSDOF 8DOCKED: TER
DOCKED: ENDMDL
________________________________________________________________________________


	BEGINNING GENETIC ALGORITHM DOCKING 81 of 100
Run: 81 Seed: 1758974042 735133346 [ Run 81 of 100 GA/GALS ]
Beginning LAMARCKIAN GENETIC ALGORITHM (LGA), with a maximum of 2500000 energy evaluations.

Final-Value: -13.608


	FINAL GENETIC ALGORITHM DOCKED STATE
	_______________________________________________


Detailed state:  trans 39.467 15.705 120.982 quatxyzw -0.665728 0.222604 0.260335 -0.662932 center 0.003 -0.142 -0.069 ntor 8 -93.6626 -172.4042 -47.2157 62.3089 -113.2976 -32.2272 128.5215 -19.5008
State:	 39.467  15.705 120.982  -0.889  0.297  0.348 -96.952    -93.66 -172.40  -47.22   62.31 -113.30  -32.23  128.52  -19.50

DOCKED: MODEL       81
DOCKED: USER    Run = 81
DOCKED: USER    DPF = ligand_dock.biased.dpf
DOCKED: USER  
DOCKED: USER    Estimated Free Energy of Binding    =  -10.43 kcal/mol  [=(1)+(2)+(3)-(4)]
DOCKED: USER    Estimated Inhibition Constant, Ki   =   22.80 nM (nanomolar)  [Temperature = 298.15 K]
DOCKED: USER    
DOCKED: USER    (1) Final Intermolecular Energy     =  -12.81 kcal/mol
DOCKED: USER        vdW + Hbond + desolv Energy     =  -12.81 kcal/mol
DOCKED: USER        Electrostatic Energy            =   +0.00 kcal/mol
DOCKED: USER    (2) Final Total Internal Energy     =   -0.80 kcal/mol
DOCKED: USER    (3) Torsional Free Energy           =   +2.39 kcal/mol
DOCKED: USER    (4) Unbound System's Energy  [=(2)] =   -0.80 kcal/mol
DOCKED: USER    
DOCKED: USER    
DOCKED: USER    NEWDPF move ligand.dum.pdbqt
DOCKED: USER    NEWDPF about 0.003000 -0.142000 -0.069000
DOCKED: USER    NEWDPF tran0 39.466699 15.704778 120.981854
DOCKED: USER    NEWDPF quaternion0 -0.665728 0.222604 0.260335 -0.662932
DOCKED: USER    NEWDPF axisangle0 -0.889203 0.297329 0.347726 -96.952215
DOCKED: USER    NEWDPF quat0 -0.889203 0.297329 0.347726 -96.952215
DOCKED: USER    NEWDPF dihe0 -93.66 -172.40 -47.22 62.31 -113.30 -32.23 128.52 -19.50 
DOCKED: USER  keepresnum = 1 
DOCKED: USER  
DOCKED: REMARK  Name = 
DOCKED: REMARK  8 active torsions:
DOCKED: REMARK  status: ('A' for Active; 'I' for Inactive)
DOCKED: REMARK    1  A    between atoms: C_2  and  C_5
DOCKED: REMARK    2  A    between atoms: C_5  and  C_6
DOCKED: REMARK    3  A    between atoms: C_6  and  C_7
DOCKED: REMARK    4  A    between atoms: C_7  and  C_8
DOCKED: REMARK    5  A    between atoms: C_8  and  C_9
DOCKED: REMARK    6  A    between atoms: C_9  and  C_10
DOCKED: REMARK    7  A    between atoms: C_10  and  C_11
DOCKED: REMARK    8  A    between atoms: N_12  and  C_13
DOCKED: REMARK                            x       y       z     vdW  Elec       q    Type
DOCKED: REMARK                         _______ _______ _______ _____ _____    ______ ____
DOCKED: USER                              x       y       z     vdW  Elec       q    Type
DOCKED: USER                           _______ _______ _______ _____ _____    ______ ____
DOCKED: ROOT
DOCKED: ATOM      1  C   UNL     1      39.761  15.531 121.736 -0.32 -0.00    +0.000 C 
DOCKED: ENDROOT
DOCKED: BRANCH   1   2
DOCKED: ATOM      2  C   UNL     1      38.686  16.089 122.618 -0.29 -0.00    +0.000 C 
DOCKED: ATOM      3  N   UNL     1      37.639  15.233 123.103 -0.36 -0.00    +0.000 N 
DOCKED: ATOM      4  O   UNL     1      38.712  17.312 122.926 -0.20 -0.00    +0.000 OA
DOCKED: ATOM      5  H   UNL     1      37.747  14.261 122.988 -0.02 -0.00    +0.000 HD
DOCKED: BRANCH   3   6
DOCKED: ATOM      6  C   UNL     1      36.443  15.706 123.746 -0.34 -0.00    +0.000 A 
DOCKED: ATOM      7  C   UNL     1      36.313  17.035 124.182 -0.26 -0.00    +0.000 A 
DOCKED: ATOM      8  C   UNL     1      35.125  17.461 124.779 -0.32 -0.00    +0.000 A 
DOCKED: ATOM      9  C   UNL     1      34.069  16.561 124.921 -0.43 -0.00    +0.000 A 
DOCKED: ATOM     10  N   UNL     1      34.198  15.283 124.473 -0.57 -0.00    +0.000 NA
DOCKED: ATOM     11  C   UNL     1      35.345  14.844 123.889 -0.50 -0.00    +0.000 A 
DOCKED: ATOM     12  CM  UNL     1      35.220  16.125 124.335 -0.05 -0.00    +0.000 AC
DOCKED: ENDBRANCH   3   6
DOCKED: ENDBRANCH   1   2
DOCKED: BRANCH   1  12
DOCKED: ATOM     13  C   UNL     1      39.157  14.999 120.430 -0.25 -0.00    +0.000 C 
DOCKED: BRANCH  12  13
DOCKED: ATOM     14  C   UNL     1      37.870  14.184 120.650 -0.37 -0.00    +0.000 C 
DOCKED: BRANCH  13  14
DOCKED: ATOM     15  C   UNL     1      38.076  12.664 120.782 -0.43 -0.00    +0.000 C 
DOCKED: BRANCH  14  15
DOCKED: ATOM     16  C   UNL     1      36.753  11.886 120.891 -0.41 -0.00    +0.000 C 
DOCKED: BRANCH  15  16
DOCKED: ATOM     17  C   UNL     1      36.573  11.238 122.270 -0.64 -0.00    +0.000 C 
DOCKED: BRANCH  16  18
DOCKED: ATOM     18  O   UNL     1      36.933   9.165 121.133 -2.69 -0.00    +0.000 OA
DOCKED: ATOM     19  C   UNL     1      36.872   9.767 122.240 -0.64 -0.00    +0.000 C 
DOCKED: ATOM     20  N   UNL     1      37.059   9.041 123.456 -0.58 -0.00    +0.000 N 
DOCKED: ATOM     21  O   UNL     1      37.314   7.712 123.429 -2.61 -0.00    +0.000 OA
DOCKED: ATOM     22  H   UNL     1      37.002   9.510 124.320 -0.51 -0.00    +0.000 HD
DOCKED: ENDBRANCH  16  18
DOCKED: ENDBRANCH  15  16
DOCKED: ENDBRANCH  14  15
DOCKED: ENDBRANCH  13  14
DOCKED: ENDBRANCH  12  13
DOCKED: ENDBRANCH   1  12
DOCKED: TORSDOF 8DOCKED: TER
DOCKED: ENDMDL
________________________________________________________________________________


	BEGINNING GENETIC ALGORITHM DOCKING 82 of 100
Run: 82 Seed: 1804289668 2081780956 [ Run 82 of 100 GA/GALS ]
Beginning LAMARCKIAN GENETIC ALGORITHM (LGA), with a maximum of 2500000 energy evaluations.

Final-Value: -12.438


	FINAL GENETIC ALGORITHM DOCKED STATE
	_______________________________________________


Detailed state:  trans 39.505 15.735 121.385 quatxyzw -0.593363 0.466214 0.224468 -0.616586 center 0.003 -0.142 -0.069 ntor 8 -114.9284 -168.1688 -67.4068 -16.8130 -165.8322 147.1217 39.4980 120.7388
State:	 39.505  15.735 121.385  -0.754  0.592  0.285 -103.865   -114.93 -168.17  -67.41  -16.81 -165.83  147.12   39.50  120.74

DOCKED: MODEL       82
DOCKED: USER    Run = 82
DOCKED: USER    DPF = ligand_dock.biased.dpf
DOCKED: USER  
DOCKED: USER    Estimated Free Energy of Binding    =   -9.36 kcal/mol  [=(1)+(2)+(3)-(4)]
DOCKED: USER    Estimated Inhibition Constant, Ki   =  136.79 nM (nanomolar)  [Temperature = 298.15 K]
DOCKED: USER    
DOCKED: USER    (1) Final Intermolecular Energy     =  -11.75 kcal/mol
DOCKED: USER        vdW + Hbond + desolv Energy     =  -11.75 kcal/mol
DOCKED: USER        Electrostatic Energy            =   +0.00 kcal/mol
DOCKED: USER    (2) Final Total Internal Energy     =   -0.69 kcal/mol
DOCKED: USER    (3) Torsional Free Energy           =   +2.39 kcal/mol
DOCKED: USER    (4) Unbound System's Energy  [=(2)] =   -0.69 kcal/mol
DOCKED: USER    
DOCKED: USER    
DOCKED: USER    NEWDPF move ligand.dum.pdbqt
DOCKED: USER    NEWDPF about 0.003000 -0.142000 -0.069000
DOCKED: USER    NEWDPF tran0 39.504906 15.734511 121.385048
DOCKED: USER    NEWDPF quaternion0 -0.593363 0.466214 0.224468 -0.616586
DOCKED: USER    NEWDPF axisangle0 -0.753680 0.592178 0.285115 -103.865432
DOCKED: USER    NEWDPF quat0 -0.753680 0.592178 0.285115 -103.865432
DOCKED: USER    NEWDPF dihe0 -114.93 -168.17 -67.41 -16.81 -165.83 147.12 39.50 120.74 
DOCKED: USER  keepresnum = 1 
DOCKED: USER  
DOCKED: REMARK  Name = 
DOCKED: REMARK  8 active torsions:
DOCKED: REMARK  status: ('A' for Active; 'I' for Inactive)
DOCKED: REMARK    1  A    between atoms: C_2  and  C_5
DOCKED: REMARK    2  A    between atoms: C_5  and  C_6
DOCKED: REMARK    3  A    between atoms: C_6  and  C_7
DOCKED: REMARK    4  A    between atoms: C_7  and  C_8
DOCKED: REMARK    5  A    between atoms: C_8  and  C_9
DOCKED: REMARK    6  A    between atoms: C_9  and  C_10
DOCKED: REMARK    7  A    between atoms: C_10  and  C_11
DOCKED: REMARK    8  A    between atoms: N_12  and  C_13
DOCKED: REMARK                            x       y       z     vdW  Elec       q    Type
DOCKED: REMARK                         _______ _______ _______ _____ _____    ______ ____
DOCKED: USER                              x       y       z     vdW  Elec       q    Type
DOCKED: USER                           _______ _______ _______ _____ _____    ______ ____
DOCKED: ROOT
DOCKED: ATOM      1  C   UNL     1      39.959  15.492 122.033 -0.36 -0.00    +0.000 C 
DOCKED: ENDROOT
DOCKED: BRANCH   1   2
DOCKED: ATOM      2  C   UNL     1      39.519  16.458 123.091 -0.26 -0.00    +0.000 C 
DOCKED: ATOM      3  N   UNL     1      40.493  17.256 123.784 -0.29 -0.00    +0.000 N 
DOCKED: ATOM      4  O   UNL     1      38.292  16.559 123.364 -0.30 -0.00    +0.000 OA
DOCKED: ATOM      5  H   UNL     1      41.410  17.278 123.426 -0.02 -0.00    +0.000 HD
DOCKED: BRANCH   3   6
DOCKED: ATOM      6  C   UNL     1      40.212  18.026 124.965 -0.26 -0.00    +0.000 A 
DOCKED: ATOM      7  C   UNL     1      38.955  18.616 125.182 -0.18 -0.00    +0.000 A 
DOCKED: ATOM      8  C   UNL     1      38.715  19.334 126.356 -0.15 -0.00    +0.000 A 
DOCKED: ATOM      9  C   UNL     1      39.726  19.443 127.311 -0.16 -0.00    +0.000 A 
DOCKED: ATOM     10  N   UNL     1      40.930  18.846 127.100 -0.29 -0.00    +0.000 NA
DOCKED: ATOM     11  C   UNL     1      41.188  18.143 125.965 -0.30 -0.00    +0.000 A 
DOCKED: ATOM     12  CM  UNL     1      39.980  18.737 126.173 +0.00 -0.00    +0.000 AC
DOCKED: ENDBRANCH   3   6
DOCKED: ENDBRANCH   1   2
DOCKED: BRANCH   1  12
DOCKED: ATOM     13  C   UNL     1      38.800  15.180 121.079 -0.29 -0.00    +0.000 C 
DOCKED: BRANCH  12  13
DOCKED: ATOM     14  C   UNL     1      38.631  13.674 120.808 -0.37 -0.00    +0.000 C 
DOCKED: BRANCH  13  14
DOCKED: ATOM     15  C   UNL     1      37.772  12.919 121.840 -0.46 -0.00    +0.000 C 
DOCKED: BRANCH  14  15
DOCKED: ATOM     16  C   UNL     1      36.706  12.020 121.190 -0.51 -0.00    +0.000 C 
DOCKED: BRANCH  15  16
DOCKED: ATOM     17  C   UNL     1      36.063  11.061 122.200 -0.62 -0.00    +0.000 C 
DOCKED: BRANCH  16  18
DOCKED: ATOM     18  O   UNL     1      37.044   9.215 121.039 -2.73 -0.00    +0.000 OA
DOCKED: ATOM     19  C   UNL     1      36.683   9.695 122.148 -0.69 -0.00    +0.000 C 
DOCKED: ATOM     20  N   UNL     1      36.840   8.925 123.342 -0.61 -0.00    +0.000 N 
DOCKED: ATOM     21  O   UNL     1      37.386   7.687 123.293 -2.47 -0.00    +0.000 OA
DOCKED: ATOM     22  H   UNL     1      36.549   9.297 124.206 -0.43 -0.00    +0.000 HD
DOCKED: ENDBRANCH  16  18
DOCKED: ENDBRANCH  15  16
DOCKED: ENDBRANCH  14  15
DOCKED: ENDBRANCH  13  14
DOCKED: ENDBRANCH  12  13
DOCKED: ENDBRANCH   1  12
DOCKED: TORSDOF 8DOCKED: TER
DOCKED: ENDMDL
________________________________________________________________________________


	BEGINNING GENETIC ALGORITHM DOCKING 83 of 100
Run: 83 Seed: 736070276 73293917 [ Run 83 of 100 GA/GALS ]
Beginning LAMARCKIAN GENETIC ALGORITHM (LGA), with a maximum of 2500000 energy evaluations.

Final-Value: -14.116


	FINAL GENETIC ALGORITHM DOCKED STATE
	_______________________________________________


Detailed state:  trans 38.617 13.974 121.726 quatxyzw 0.628814 -0.566639 0.099876 -0.523009 center 0.003 -0.142 -0.069 ntor 8 155.5789 112.8746 -131.5839 92.4384 -2.6901 -180.0000 -146.6225 -175.5200
State:	 38.617  13.974 121.726   0.738 -0.665  0.117 -116.931    155.58  112.87 -131.58   92.44   -2.69 -180.00 -146.62 -175.52

DOCKED: MODEL       83
DOCKED: USER    Run = 83
DOCKED: USER    DPF = ligand_dock.biased.dpf
DOCKED: USER  
DOCKED: USER    Estimated Free Energy of Binding    =  -10.48 kcal/mol  [=(1)+(2)+(3)-(4)]
DOCKED: USER    Estimated Inhibition Constant, Ki   =   20.77 nM (nanomolar)  [Temperature = 298.15 K]
DOCKED: USER    
DOCKED: USER    (1) Final Intermolecular Energy     =  -12.87 kcal/mol
DOCKED: USER        vdW + Hbond + desolv Energy     =  -12.87 kcal/mol
DOCKED: USER        Electrostatic Energy            =   +0.00 kcal/mol
DOCKED: USER    (2) Final Total Internal Energy     =   -1.25 kcal/mol
DOCKED: USER    (3) Torsional Free Energy           =   +2.39 kcal/mol
DOCKED: USER    (4) Unbound System's Energy  [=(2)] =   -1.25 kcal/mol
DOCKED: USER    
DOCKED: USER    
DOCKED: USER    NEWDPF move ligand.dum.pdbqt
DOCKED: USER    NEWDPF about 0.003000 -0.142000 -0.069000
DOCKED: USER    NEWDPF tran0 38.616635 13.974303 121.726264
DOCKED: USER    NEWDPF quaternion0 0.628814 -0.566639 0.099876 -0.523009
DOCKED: USER    NEWDPF axisangle0 0.737761 -0.664813 0.117180 -116.931413
DOCKED: USER    NEWDPF quat0 0.737761 -0.664813 0.117180 -116.931413
DOCKED: USER    NEWDPF dihe0 155.58 112.87 -131.58 92.44 -2.69 -180.00 -146.62 -175.52 
DOCKED: USER  keepresnum = 1 
DOCKED: USER  
DOCKED: REMARK  Name = 
DOCKED: REMARK  8 active torsions:
DOCKED: REMARK  status: ('A' for Active; 'I' for Inactive)
DOCKED: REMARK    1  A    between atoms: C_2  and  C_5
DOCKED: REMARK    2  A    between atoms: C_5  and  C_6
DOCKED: REMARK    3  A    between atoms: C_6  and  C_7
DOCKED: REMARK    4  A    between atoms: C_7  and  C_8
DOCKED: REMARK    5  A    between atoms: C_8  and  C_9
DOCKED: REMARK    6  A    between atoms: C_9  and  C_10
DOCKED: REMARK    7  A    between atoms: C_10  and  C_11
DOCKED: REMARK    8  A    between atoms: N_12  and  C_13
DOCKED: REMARK                            x       y       z     vdW  Elec       q    Type
DOCKED: REMARK                         _______ _______ _______ _____ _____    ______ ____
DOCKED: USER                              x       y       z     vdW  Elec       q    Type
DOCKED: USER                           _______ _______ _______ _____ _____    ______ ____
DOCKED: ROOT
DOCKED: ATOM      1  C   UNL     1      39.233  14.130 121.196 -0.32 -0.00    +0.000 C 
DOCKED: ENDROOT
DOCKED: BRANCH   1   2
DOCKED: ATOM      2  C   UNL     1      38.480  14.475 119.947 -0.26 -0.00    +0.000 C 
DOCKED: ATOM      3  N   UNL     1      37.609  13.505 119.343 -0.37 -0.00    +0.000 N 
DOCKED: ATOM      4  O   UNL     1      38.620  15.620 119.438 -0.18 -0.00    +0.000 OA
DOCKED: ATOM      5  H   UNL     1      37.392  12.695 119.859 -0.03 -0.00    +0.000 HD
DOCKED: BRANCH   3   6
DOCKED: ATOM      6  C   UNL     1      37.034  13.643 118.033 -0.37 -0.00    +0.000 A 
DOCKED: ATOM      7  C   UNL     1      35.734  14.142 117.843 -0.32 -0.00    +0.000 A 
DOCKED: ATOM      8  C   UNL     1      35.223  14.285 116.552 -0.30 -0.00    +0.000 A 
DOCKED: ATOM      9  C   UNL     1      36.019  13.944 115.458 -0.27 -0.00    +0.000 A 
DOCKED: ATOM     10  N   UNL     1      37.284  13.485 115.654 -0.38 -0.00    +0.000 NA
DOCKED: ATOM     11  C   UNL     1      37.805  13.336 116.901 -0.37 -0.00    +0.000 A 
DOCKED: ATOM     12  CM  UNL     1      36.537  13.798 116.711 +0.00 -0.00    +0.000 AC
DOCKED: ENDBRANCH   3   6
DOCKED: ENDBRANCH   1   2
DOCKED: BRANCH   1  12
DOCKED: ATOM     13  C   UNL     1      38.450  14.582 122.435 -0.44 -0.00    +0.000 C 
DOCKED: BRANCH  12  13
DOCKED: ATOM     14  C   UNL     1      36.938  14.313 122.322 -0.42 -0.00    +0.000 C 
DOCKED: BRANCH  13  14
DOCKED: ATOM     15  C   UNL     1      36.365  13.360 123.387 -0.60 -0.00    +0.000 C 
DOCKED: BRANCH  14  15
DOCKED: ATOM     16  C   UNL     1      36.922  11.930 123.275 -0.67 -0.00    +0.000 C 
DOCKED: BRANCH  15  16
DOCKED: ATOM     17  C   UNL     1      36.179  11.100 122.221 -0.64 -0.00    +0.000 C 
DOCKED: BRANCH  16  18
DOCKED: ATOM     18  O   UNL     1      37.061   9.198 121.071 -2.73 -0.00    +0.000 OA
DOCKED: ATOM     19  C   UNL     1      36.679   9.685 122.170 -0.69 -0.00    +0.000 C 
DOCKED: ATOM     20  N   UNL     1      36.698   8.880 123.350 -0.61 -0.00    +0.000 N 
DOCKED: ATOM     21  O   UNL     1      37.136   7.600 123.300 -2.52 -0.00    +0.000 OA
DOCKED: ATOM     22  H   UNL     1      36.392   9.259 124.206 -0.38 -0.00    +0.000 HD
DOCKED: ENDBRANCH  16  18
DOCKED: ENDBRANCH  15  16
DOCKED: ENDBRANCH  14  15
DOCKED: ENDBRANCH  13  14
DOCKED: ENDBRANCH  12  13
DOCKED: ENDBRANCH   1  12
DOCKED: TORSDOF 8DOCKED: TER
DOCKED: ENDMDL
________________________________________________________________________________


	BEGINNING GENETIC ALGORITHM DOCKING 84 of 100
Run: 84 Seed: 1023000009 734991481 [ Run 84 of 100 GA/GALS ]
Beginning LAMARCKIAN GENETIC ALGORITHM (LGA), with a maximum of 2500000 energy evaluations.

Final-Value: -13.570


	FINAL GENETIC ALGORITHM DOCKED STATE
	_______________________________________________


Detailed state:  trans 35.963 15.722 122.670 quatxyzw -0.976399 0.177695 -0.043683 -0.114725 center 0.003 -0.142 -0.069 ntor 8 129.0918 42.9767 -79.7234 -122.7424 135.5243 -166.0058 -63.8532 174.5733
State:	 35.963  15.722 122.670  -0.983  0.179 -0.044 -166.824    129.09   42.98  -79.72 -122.74  135.52 -166.01  -63.85  174.57

DOCKED: MODEL       84
DOCKED: USER    Run = 84
DOCKED: USER    DPF = ligand_dock.biased.dpf
DOCKED: USER  
DOCKED: USER    Estimated Free Energy of Binding    =  -10.45 kcal/mol  [=(1)+(2)+(3)-(4)]
DOCKED: USER    Estimated Inhibition Constant, Ki   =   22.05 nM (nanomolar)  [Temperature = 298.15 K]
DOCKED: USER    
DOCKED: USER    (1) Final Intermolecular Energy     =  -12.83 kcal/mol
DOCKED: USER        vdW + Hbond + desolv Energy     =  -12.83 kcal/mol
DOCKED: USER        Electrostatic Energy            =   +0.00 kcal/mol
DOCKED: USER    (2) Final Total Internal Energy     =   -0.74 kcal/mol
DOCKED: USER    (3) Torsional Free Energy           =   +2.39 kcal/mol
DOCKED: USER    (4) Unbound System's Energy  [=(2)] =   -0.74 kcal/mol
DOCKED: USER    
DOCKED: USER    
DOCKED: USER    NEWDPF move ligand.dum.pdbqt
DOCKED: USER    NEWDPF about 0.003000 -0.142000 -0.069000
DOCKED: USER    NEWDPF tran0 35.962774 15.722376 122.670486
DOCKED: USER    NEWDPF quaternion0 -0.976399 0.177695 -0.043683 -0.114725
DOCKED: USER    NEWDPF axisangle0 -0.982888 0.178876 -0.043974 -166.824466
DOCKED: USER    NEWDPF quat0 -0.982888 0.178876 -0.043974 -166.824466
DOCKED: USER    NEWDPF dihe0 129.09 42.98 -79.72 -122.74 135.52 -166.01 -63.85 174.57 
DOCKED: USER  keepresnum = 1 
DOCKED: USER  
DOCKED: REMARK  Name = 
DOCKED: REMARK  8 active torsions:
DOCKED: REMARK  status: ('A' for Active; 'I' for Inactive)
DOCKED: REMARK    1  A    between atoms: C_2  and  C_5
DOCKED: REMARK    2  A    between atoms: C_5  and  C_6
DOCKED: REMARK    3  A    between atoms: C_6  and  C_7
DOCKED: REMARK    4  A    between atoms: C_7  and  C_8
DOCKED: REMARK    5  A    between atoms: C_8  and  C_9
DOCKED: REMARK    6  A    between atoms: C_9  and  C_10
DOCKED: REMARK    7  A    between atoms: C_10  and  C_11
DOCKED: REMARK    8  A    between atoms: N_12  and  C_13
DOCKED: REMARK                            x       y       z     vdW  Elec       q    Type
DOCKED: REMARK                         _______ _______ _______ _____ _____    ______ ____
DOCKED: USER                              x       y       z     vdW  Elec       q    Type
DOCKED: USER                           _______ _______ _______ _____ _____    ______ ____
DOCKED: ROOT
DOCKED: ATOM      1  C   UNL     1      35.948  16.475 123.014 -0.35 -0.00    +0.000 C 
DOCKED: ENDROOT
DOCKED: BRANCH   1   2
DOCKED: ATOM      2  C   UNL     1      34.756  17.091 122.346 -0.37 -0.00    +0.000 C 
DOCKED: ATOM      3  N   UNL     1      34.819  17.451 120.956 -0.26 -0.00    +0.000 N 
DOCKED: ATOM      4  O   UNL     1      33.706  17.289 123.015 -0.43 -0.00    +0.000 OA
DOCKED: ATOM      5  H   UNL     1      35.584  17.124 120.429 -0.01 -0.00    +0.000 HD
DOCKED: BRANCH   3   6
DOCKED: ATOM      6  C   UNL     1      33.834  18.256 120.287 -0.29 -0.00    +0.000 A 
DOCKED: ATOM      7  C   UNL     1      32.457  18.042 120.464 -0.28 -0.00    +0.000 A 
DOCKED: ATOM      8  C   UNL     1      31.533  18.864 119.816 -0.45 -0.00    +0.000 A 
DOCKED: ATOM      9  C   UNL     1      31.991  19.904 119.007 -0.27 -0.00    +0.000 A 
DOCKED: ATOM     10  N   UNL     1      33.327  20.116 118.862 -0.20 -0.00    +0.000 NA
DOCKED: ATOM     11  C   UNL     1      34.246  19.330 119.482 -0.20 -0.00    +0.000 A 
DOCKED: ATOM     12  CM  UNL     1      32.910  19.113 119.632 +0.00 -0.00    +0.000 AC
DOCKED: ENDBRANCH   3   6
DOCKED: ENDBRANCH   1   2
DOCKED: BRANCH   1  12
DOCKED: ATOM     13  C   UNL     1      35.738  14.967 123.198 -0.42 -0.00    +0.000 C 
DOCKED: BRANCH  12  13
DOCKED: ATOM     14  C   UNL     1      36.853  14.121 122.557 -0.46 -0.00    +0.000 C 
DOCKED: BRANCH  13  14
DOCKED: ATOM     15  C   UNL     1      37.421  13.006 123.455 -0.57 -0.00    +0.000 C 
DOCKED: BRANCH  14  15
DOCKED: ATOM     16  C   UNL     1      36.456  11.820 123.621 -0.70 -0.00    +0.000 C 
DOCKED: BRANCH  15  16
DOCKED: ATOM     17  C   UNL     1      36.154  11.125 122.288 -0.65 -0.00    +0.000 C 
DOCKED: BRANCH  16  18
DOCKED: ATOM     18  O   UNL     1      37.022   9.219 121.134 -2.72 -0.00    +0.000 OA
DOCKED: ATOM     19  C   UNL     1      36.713   9.732 122.244 -0.69 -0.00    +0.000 C 
DOCKED: ATOM     20  N   UNL     1      36.869   8.976 123.446 -0.58 -0.00    +0.000 N 
DOCKED: ATOM     21  O   UNL     1      37.360   7.715 123.404 -2.59 -0.00    +0.000 OA
DOCKED: ATOM     22  H   UNL     1      36.619   9.375 124.311 -0.35 -0.00    +0.000 HD
DOCKED: ENDBRANCH  16  18
DOCKED: ENDBRANCH  15  16
DOCKED: ENDBRANCH  14  15
DOCKED: ENDBRANCH  13  14
DOCKED: ENDBRANCH  12  13
DOCKED: ENDBRANCH   1  12
DOCKED: TORSDOF 8DOCKED: TER
DOCKED: ENDMDL
________________________________________________________________________________


	BEGINNING GENETIC ALGORITHM DOCKING 85 of 100
Run: 85 Seed: 567884517 1788078831 [ Run 85 of 100 GA/GALS ]
Beginning LAMARCKIAN GENETIC ALGORITHM (LGA), with a maximum of 2500000 energy evaluations.

Final-Value: -12.782


	FINAL GENETIC ALGORITHM DOCKED STATE
	_______________________________________________


Detailed state:  trans 39.765 14.773 122.532 quatxyzw -0.527414 0.305181 -0.786778 -0.098384 center 0.003 -0.142 -0.069 ntor 8 -132.6348 -167.6055 65.1373 20.7853 -23.0284 -68.4980 6.8781 -180.0000
State:	 39.765  14.773 122.532  -0.530  0.307 -0.791 -168.708   -132.63 -167.61   65.14   20.79  -23.03  -68.50    6.88 -180.00

DOCKED: MODEL       85
DOCKED: USER    Run = 85
DOCKED: USER    DPF = ligand_dock.biased.dpf
DOCKED: USER  
DOCKED: USER    Estimated Free Energy of Binding    =   -9.70 kcal/mol  [=(1)+(2)+(3)-(4)]
DOCKED: USER    Estimated Inhibition Constant, Ki   =   77.17 nM (nanomolar)  [Temperature = 298.15 K]
DOCKED: USER    
DOCKED: USER    (1) Final Intermolecular Energy     =  -12.09 kcal/mol
DOCKED: USER        vdW + Hbond + desolv Energy     =  -12.09 kcal/mol
DOCKED: USER        Electrostatic Energy            =   +0.00 kcal/mol
DOCKED: USER    (2) Final Total Internal Energy     =   -0.69 kcal/mol
DOCKED: USER    (3) Torsional Free Energy           =   +2.39 kcal/mol
DOCKED: USER    (4) Unbound System's Energy  [=(2)] =   -0.69 kcal/mol
DOCKED: USER    
DOCKED: USER    
DOCKED: USER    NEWDPF move ligand.dum.pdbqt
DOCKED: USER    NEWDPF about 0.003000 -0.142000 -0.069000
DOCKED: USER    NEWDPF tran0 39.765176 14.772954 122.532363
DOCKED: USER    NEWDPF quaternion0 -0.527414 0.305181 -0.786778 -0.098384
DOCKED: USER    NEWDPF axisangle0 -0.529985 0.306669 -0.790614 -168.707761
DOCKED: USER    NEWDPF quat0 -0.529985 0.306669 -0.790614 -168.707761
DOCKED: USER    NEWDPF dihe0 -132.63 -167.61 65.14 20.79 -23.03 -68.50 6.88 -180.00 
DOCKED: USER  keepresnum = 1 
DOCKED: USER  
DOCKED: REMARK  Name = 
DOCKED: REMARK  8 active torsions:
DOCKED: REMARK  status: ('A' for Active; 'I' for Inactive)
DOCKED: REMARK    1  A    between atoms: C_2  and  C_5
DOCKED: REMARK    2  A    between atoms: C_5  and  C_6
DOCKED: REMARK    3  A    between atoms: C_6  and  C_7
DOCKED: REMARK    4  A    between atoms: C_7  and  C_8
DOCKED: REMARK    5  A    between atoms: C_8  and  C_9
DOCKED: REMARK    6  A    between atoms: C_9  and  C_10
DOCKED: REMARK    7  A    between atoms: C_10  and  C_11
DOCKED: REMARK    8  A    between atoms: N_12  and  C_13
DOCKED: REMARK                            x       y       z     vdW  Elec       q    Type
DOCKED: REMARK                         _______ _______ _______ _____ _____    ______ ____
DOCKED: USER                              x       y       z     vdW  Elec       q    Type
DOCKED: USER                           _______ _______ _______ _____ _____    ______ ____
DOCKED: ROOT
DOCKED: ATOM      1  C   UNL     1      39.848  15.573 122.727 -0.35 -0.00    +0.000 C 
DOCKED: ENDROOT
DOCKED: BRANCH   1   2
DOCKED: ATOM      2  C   UNL     1      40.982  15.986 121.839 -0.33 -0.00    +0.000 C 
DOCKED: ATOM      3  N   UNL     1      42.292  15.432 122.044 -0.42 -0.00    +0.000 N 
DOCKED: ATOM      4  O   UNL     1      40.774  16.821 120.917 -0.15 -0.00    +0.000 OA
DOCKED: ATOM      5  H   UNL     1      42.377  14.661 122.651 -0.05 -0.00    +0.000 HD
DOCKED: BRANCH   3   6
DOCKED: ATOM      6  C   UNL     1      43.486  15.930 121.417 -0.24 -0.00    +0.000 A 
DOCKED: ATOM      7  C   UNL     1      44.382  16.773 122.095 -0.28 -0.00    +0.000 A 
DOCKED: ATOM      8  C   UNL     1      45.544  17.214 121.459 -0.20 -0.00    +0.000 A 
DOCKED: ATOM      9  C   UNL     1      45.811  16.796 120.155 -0.15 +0.00    +0.000 A 
DOCKED: ATOM     10  N   UNL     1      44.948  15.960 119.518 -0.23 -0.00    +0.000 NA
DOCKED: ATOM     11  C   UNL     1      43.810  15.517 120.115 -0.23 -0.00    +0.000 A 
DOCKED: ATOM     12  CM  UNL     1      44.672  16.354 120.759 +0.00 +0.00    +0.000 AC
DOCKED: ENDBRANCH   3   6
DOCKED: ENDBRANCH   1   2
DOCKED: BRANCH   1  12
DOCKED: ATOM     13  C   UNL     1      39.003  14.490 122.045 -0.42 -0.00    +0.000 C 
DOCKED: BRANCH  12  13
DOCKED: ATOM     14  C   UNL     1      37.639  14.273 122.724 -0.47 -0.00    +0.000 C 
DOCKED: BRANCH  13  14
DOCKED: ATOM     15  C   UNL     1      37.300  12.807 123.052 -0.60 -0.00    +0.000 C 
DOCKED: BRANCH  14  15
DOCKED: ATOM     16  C   UNL     1      36.662  12.060 121.869 -0.57 -0.00    +0.000 C 
DOCKED: BRANCH  15  16
DOCKED: ATOM     17  C   UNL     1      35.783  10.889 122.328 -0.63 -0.00    +0.000 C 
DOCKED: BRANCH  16  18
DOCKED: ATOM     18  O   UNL     1      37.059   9.220 121.188 -2.73 -0.00    +0.000 OA
DOCKED: ATOM     19  C   UNL     1      36.517   9.581 122.267 -0.70 -0.00    +0.000 C 
DOCKED: ATOM     20  N   UNL     1      36.580   8.732 123.414 -0.61 -0.00    +0.000 N 
DOCKED: ATOM     21  O   UNL     1      37.230   7.546 123.355 -2.48 -0.00    +0.000 OA
DOCKED: ATOM     22  H   UNL     1      36.149   9.011 124.254 -0.24 -0.00    +0.000 HD
DOCKED: ENDBRANCH  16  18
DOCKED: ENDBRANCH  15  16
DOCKED: ENDBRANCH  14  15
DOCKED: ENDBRANCH  13  14
DOCKED: ENDBRANCH  12  13
DOCKED: ENDBRANCH   1  12
DOCKED: TORSDOF 8DOCKED: TER
DOCKED: ENDMDL
________________________________________________________________________________


	BEGINNING GENETIC ALGORITHM DOCKING 86 of 100
Run: 86 Seed: 1989149787 2098508242 [ Run 86 of 100 GA/GALS ]
Beginning LAMARCKIAN GENETIC ALGORITHM (LGA), with a maximum of 2500000 energy evaluations.

Final-Value: -13.830


	FINAL GENETIC ALGORITHM DOCKED STATE
	_______________________________________________


Detailed state:  trans 38.048 13.621 121.701 quatxyzw -0.431116 0.611998 0.137805 0.648542 center 0.003 -0.142 -0.069 ntor 8 86.5798 83.8096 22.5940 105.5230 175.1446 4.7288 -77.3764 126.1677
State:	 38.048  13.621 121.701  -0.566  0.804  0.181 99.136     86.58   83.81   22.59  105.52  175.14    4.73  -77.38  126.17

DOCKED: MODEL       86
DOCKED: USER    Run = 86
DOCKED: USER    DPF = ligand_dock.biased.dpf
DOCKED: USER  
DOCKED: USER    Estimated Free Energy of Binding    =  -10.28 kcal/mol  [=(1)+(2)+(3)-(4)]
DOCKED: USER    Estimated Inhibition Constant, Ki   =   29.32 nM (nanomolar)  [Temperature = 298.15 K]
DOCKED: USER    
DOCKED: USER    (1) Final Intermolecular Energy     =  -12.66 kcal/mol
DOCKED: USER        vdW + Hbond + desolv Energy     =  -12.66 kcal/mol
DOCKED: USER        Electrostatic Energy            =   +0.00 kcal/mol
DOCKED: USER    (2) Final Total Internal Energy     =   -1.17 kcal/mol
DOCKED: USER    (3) Torsional Free Energy           =   +2.39 kcal/mol
DOCKED: USER    (4) Unbound System's Energy  [=(2)] =   -1.17 kcal/mol
DOCKED: USER    
DOCKED: USER    
DOCKED: USER    NEWDPF move ligand.dum.pdbqt
DOCKED: USER    NEWDPF about 0.003000 -0.142000 -0.069000
DOCKED: USER    NEWDPF tran0 38.048192 13.620516 121.700610
DOCKED: USER    NEWDPF quaternion0 -0.431116 0.611998 0.137805 0.648542
DOCKED: USER    NEWDPF axisangle0 -0.566379 0.804014 0.181041 99.136474
DOCKED: USER    NEWDPF quat0 -0.566379 0.804014 0.181041 99.136474
DOCKED: USER    NEWDPF dihe0 86.58 83.81 22.59 105.52 175.14 4.73 -77.38 126.17 
DOCKED: USER  keepresnum = 1 
DOCKED: USER  
DOCKED: REMARK  Name = 
DOCKED: REMARK  8 active torsions:
DOCKED: REMARK  status: ('A' for Active; 'I' for Inactive)
DOCKED: REMARK    1  A    between atoms: C_2  and  C_5
DOCKED: REMARK    2  A    between atoms: C_5  and  C_6
DOCKED: REMARK    3  A    between atoms: C_6  and  C_7
DOCKED: REMARK    4  A    between atoms: C_7  and  C_8
DOCKED: REMARK    5  A    between atoms: C_8  and  C_9
DOCKED: REMARK    6  A    between atoms: C_9  and  C_10
DOCKED: REMARK    7  A    between atoms: C_10  and  C_11
DOCKED: REMARK    8  A    between atoms: N_12  and  C_13
DOCKED: REMARK                            x       y       z     vdW  Elec       q    Type
DOCKED: REMARK                         _______ _______ _______ _____ _____    ______ ____
DOCKED: USER                              x       y       z     vdW  Elec       q    Type
DOCKED: USER                           _______ _______ _______ _____ _____    ______ ____
DOCKED: ROOT
DOCKED: ATOM      1  C   UNL     1      38.420  13.428 120.987 -0.40 -0.00    +0.000 C 
DOCKED: ENDROOT
DOCKED: BRANCH   1   2
DOCKED: ATOM      2  C   UNL     1      37.558  14.147 119.992 -0.35 -0.00    +0.000 C 
DOCKED: ATOM      3  N   UNL     1      36.872  13.405 118.971 -0.41 -0.00    +0.000 N 
DOCKED: ATOM      4  O   UNL     1      37.446  15.400 120.064 -0.23 -0.00    +0.000 OA
DOCKED: ATOM      5  H   UNL     1      36.842  12.424 119.053 -0.04 -0.00    +0.000 HD
DOCKED: BRANCH   3   6
DOCKED: ATOM      6  C   UNL     1      36.223  14.006 117.837 -0.35 -0.00    +0.000 A 
DOCKED: ATOM      7  C   UNL     1      36.920  14.828 116.935 -0.23 -0.00    +0.000 A 
DOCKED: ATOM      8  C   UNL     1      36.260  15.370 115.831 -0.16 -0.00    +0.000 A 
DOCKED: ATOM      9  C   UNL     1      34.911  15.074 115.627 -0.19 -0.00    +0.000 A 
DOCKED: ATOM     10  N   UNL     1      34.254  14.258 116.493 -0.32 -0.00    +0.000 NA
DOCKED: ATOM     11  C   UNL     1      34.875  13.718 117.576 -0.15 -0.00    +0.000 A 
DOCKED: ATOM     12  CM  UNL     1      35.538  14.534 116.710 +0.00 -0.00    +0.000 AC
DOCKED: ENDBRANCH   3   6
DOCKED: ENDBRANCH   1   2
DOCKED: BRANCH   1  12
DOCKED: ATOM     13  C   UNL     1      38.480  14.210 122.304 -0.45 -0.00    +0.000 C 
DOCKED: BRANCH  12  13
DOCKED: ATOM     14  C   UNL     1      37.735  13.509 123.455 -0.47 -0.00    +0.000 C 
DOCKED: BRANCH  13  14
DOCKED: ATOM     15  C   UNL     1      36.252  13.200 123.178 -0.58 -0.00    +0.000 C 
DOCKED: BRANCH  14  15
DOCKED: ATOM     16  C   UNL     1      35.961  11.693 123.079 -0.67 -0.00    +0.000 C 
DOCKED: BRANCH  15  16
DOCKED: ATOM     17  C   UNL     1      36.564  11.068 121.814 -0.56 -0.00    +0.000 C 
DOCKED: BRANCH  16  18
DOCKED: ATOM     18  O   UNL     1      37.062   8.883 120.981 -2.71 -0.00    +0.000 OA
DOCKED: ATOM     19  C   UNL     1      36.843   9.604 121.992 -0.65 -0.00    +0.000 C 
DOCKED: ATOM     20  N   UNL     1      36.832   9.017 123.295 -0.61 -0.00    +0.000 N 
DOCKED: ATOM     21  O   UNL     1      37.069   7.694 123.453 -2.68 -0.00    +0.000 OA
DOCKED: ATOM     22  H   UNL     1      36.652   9.579 124.083 -0.46 -0.00    +0.000 HD
DOCKED: ENDBRANCH  16  18
DOCKED: ENDBRANCH  15  16
DOCKED: ENDBRANCH  14  15
DOCKED: ENDBRANCH  13  14
DOCKED: ENDBRANCH  12  13
DOCKED: ENDBRANCH   1  12
DOCKED: TORSDOF 8DOCKED: TER
DOCKED: ENDMDL
________________________________________________________________________________


	BEGINNING GENETIC ALGORITHM DOCKING 87 of 100
Run: 87 Seed: 1479491500 1189203425 [ Run 87 of 100 GA/GALS ]
Beginning LAMARCKIAN GENETIC ALGORITHM (LGA), with a maximum of 2500000 energy evaluations.

Final-Value: -12.961


	FINAL GENETIC ALGORITHM DOCKED STATE
	_______________________________________________


Detailed state:  trans 36.047 13.650 122.589 quatxyzw 0.391313 0.768631 -0.440272 0.249482 center 0.003 -0.142 -0.069 ntor 8 -167.0231 13.1696 -180.0000 -172.0046 -87.3705 143.2936 -8.2332 134.0936
State:	 36.047  13.650 122.589   0.404  0.794 -0.455 151.106   -167.02   13.17 -180.00 -172.00  -87.37  143.29   -8.23  134.09

DOCKED: MODEL       87
DOCKED: USER    Run = 87
DOCKED: USER    DPF = ligand_dock.biased.dpf
DOCKED: USER  
DOCKED: USER    Estimated Free Energy of Binding    =   -9.64 kcal/mol  [=(1)+(2)+(3)-(4)]
DOCKED: USER    Estimated Inhibition Constant, Ki   =   86.12 nM (nanomolar)  [Temperature = 298.15 K]
DOCKED: USER    
DOCKED: USER    (1) Final Intermolecular Energy     =  -12.02 kcal/mol
DOCKED: USER        vdW + Hbond + desolv Energy     =  -12.02 kcal/mol
DOCKED: USER        Electrostatic Energy            =   +0.00 kcal/mol
DOCKED: USER    (2) Final Total Internal Energy     =   -0.94 kcal/mol
DOCKED: USER    (3) Torsional Free Energy           =   +2.39 kcal/mol
DOCKED: USER    (4) Unbound System's Energy  [=(2)] =   -0.94 kcal/mol
DOCKED: USER    
DOCKED: USER    
DOCKED: USER    NEWDPF move ligand.dum.pdbqt
DOCKED: USER    NEWDPF about 0.003000 -0.142000 -0.069000
DOCKED: USER    NEWDPF tran0 36.047102 13.649852 122.588982
DOCKED: USER    NEWDPF quaternion0 0.391313 0.768631 -0.440272 0.249482
DOCKED: USER    NEWDPF axisangle0 0.404091 0.793729 -0.454648 151.106316
DOCKED: USER    NEWDPF quat0 0.404091 0.793729 -0.454648 151.106316
DOCKED: USER    NEWDPF dihe0 -167.02 13.17 -180.00 -172.00 -87.37 143.29 -8.23 134.09 
DOCKED: USER  keepresnum = 1 
DOCKED: USER  
DOCKED: REMARK  Name = 
DOCKED: REMARK  8 active torsions:
DOCKED: REMARK  status: ('A' for Active; 'I' for Inactive)
DOCKED: REMARK    1  A    between atoms: C_2  and  C_5
DOCKED: REMARK    2  A    between atoms: C_5  and  C_6
DOCKED: REMARK    3  A    between atoms: C_6  and  C_7
DOCKED: REMARK    4  A    between atoms: C_7  and  C_8
DOCKED: REMARK    5  A    between atoms: C_8  and  C_9
DOCKED: REMARK    6  A    between atoms: C_9  and  C_10
DOCKED: REMARK    7  A    between atoms: C_10  and  C_11
DOCKED: REMARK    8  A    between atoms: N_12  and  C_13
DOCKED: REMARK                            x       y       z     vdW  Elec       q    Type
DOCKED: REMARK                         _______ _______ _______ _____ _____    ______ ____
DOCKED: USER                              x       y       z     vdW  Elec       q    Type
DOCKED: USER                           _______ _______ _______ _____ _____    ______ ____
DOCKED: ROOT
DOCKED: ATOM      1  C   UNL     1      36.037  13.283 123.331 -0.57 -0.00    +0.000 C 
DOCKED: ENDROOT
DOCKED: BRANCH   1   2
DOCKED: ATOM      2  C   UNL     1      36.357  11.863 122.971 -0.68 -0.00    +0.000 C 
DOCKED: ATOM      3  N   UNL     1      35.355  10.844 123.115 -0.56 -0.00    +0.000 N 
DOCKED: ATOM      4  O   UNL     1      37.509  11.578 122.546 -0.51 -0.00    +0.000 OA
DOCKED: ATOM      5  H   UNL     1      34.427  11.129 123.280 -0.20 -0.00    +0.000 HD
DOCKED: BRANCH   3   6
DOCKED: ATOM      6  C   UNL     1      35.621   9.434 123.032 -0.57 -0.00    +0.000 A 
DOCKED: ATOM      7  C   UNL     1      34.695   8.537 122.472 -0.60 -0.00    +0.000 A 
DOCKED: ATOM      8  C   UNL     1      35.004   7.178 122.385 -0.60 -0.00    +0.000 A 
DOCKED: ATOM      9  C   UNL     1      36.242   6.726 122.844 -0.66 -0.00    +0.000 A 
DOCKED: ATOM     10  N   UNL     1      37.139   7.608 123.361 -2.41 -0.00    +0.000 NA
DOCKED: ATOM     11  C   UNL     1      36.862   8.935 123.457 -0.27 -0.00    +0.000 A 
DOCKED: ATOM     12  CM  UNL     1      35.960   8.057 122.936 +0.00 -0.00    +0.000 AC
DOCKED: ENDBRANCH   3   6
DOCKED: ENDBRANCH   1   2
DOCKED: BRANCH   1  12
DOCKED: ATOM     13  C   UNL     1      36.751  14.249 122.377 -0.41 -0.00    +0.000 C 
DOCKED: BRANCH  12  13
DOCKED: ATOM     14  C   UNL     1      36.453  15.728 122.683 -0.35 -0.00    +0.000 C 
DOCKED: BRANCH  13  14
DOCKED: ATOM     15  C   UNL     1      37.299  16.341 123.814 -0.26 -0.00    +0.000 C 
DOCKED: BRANCH  14  15
DOCKED: ATOM     16  C   UNL     1      36.561  17.450 124.583 -0.21 -0.00    +0.000 C 
DOCKED: BRANCH  15  16
DOCKED: ATOM     17  C   UNL     1      35.061  17.478 124.262 -0.38 -0.00    +0.000 C 
DOCKED: BRANCH  16  18
DOCKED: ATOM     18  O   UNL     1      34.145  15.306 124.662 -0.67 -0.00    +0.000 OA
DOCKED: ATOM     19  C   UNL     1      34.295  16.484 125.086 -0.49 -0.00    +0.000 C 
DOCKED: ATOM     20  N   UNL     1      33.710  16.872 126.331 -0.44 -0.00    +0.000 N 
DOCKED: ATOM     21  O   UNL     1      33.007  15.979 127.066 -1.18 -0.00    +0.000 OA
DOCKED: ATOM     22  H   UNL     1      33.819  17.795 126.656 -0.01 -0.00    +0.000 HD
DOCKED: ENDBRANCH  16  18
DOCKED: ENDBRANCH  15  16
DOCKED: ENDBRANCH  14  15
DOCKED: ENDBRANCH  13  14
DOCKED: ENDBRANCH  12  13
DOCKED: ENDBRANCH   1  12
DOCKED: TORSDOF 8DOCKED: TER
DOCKED: ENDMDL
________________________________________________________________________________


	BEGINNING GENETIC ALGORITHM DOCKING 88 of 100
Run: 88 Seed: 63480187 1781912041 [ Run 88 of 100 GA/GALS ]
Beginning LAMARCKIAN GENETIC ALGORITHM (LGA), with a maximum of 2500000 energy evaluations.

Final-Value: -14.136


	FINAL GENETIC ALGORITHM DOCKED STATE
	_______________________________________________


Detailed state:  trans 35.075 15.364 123.722 quatxyzw -0.282441 -0.048662 0.672737 0.682117 center 0.003 -0.142 -0.069 ntor 8 83.7659 78.0543 -82.3369 -128.0518 -156.2598 -34.9337 -38.0414 -168.6383
State:	 35.075  15.364 123.722  -0.386 -0.067  0.920 93.981     83.77   78.05  -82.34 -128.05 -156.26  -34.93  -38.04 -168.64

DOCKED: MODEL       88
DOCKED: USER    Run = 88
DOCKED: USER    DPF = ligand_dock.biased.dpf
DOCKED: USER  
DOCKED: USER    Estimated Free Energy of Binding    =  -10.99 kcal/mol  [=(1)+(2)+(3)-(4)]
DOCKED: USER    Estimated Inhibition Constant, Ki   =    8.77 nM (nanomolar)  [Temperature = 298.15 K]
DOCKED: USER    
DOCKED: USER    (1) Final Intermolecular Energy     =  -13.38 kcal/mol
DOCKED: USER        vdW + Hbond + desolv Energy     =  -13.38 kcal/mol
DOCKED: USER        Electrostatic Energy            =   +0.00 kcal/mol
DOCKED: USER    (2) Final Total Internal Energy     =   -0.76 kcal/mol
DOCKED: USER    (3) Torsional Free Energy           =   +2.39 kcal/mol
DOCKED: USER    (4) Unbound System's Energy  [=(2)] =   -0.76 kcal/mol
DOCKED: USER    
DOCKED: USER    
DOCKED: USER    NEWDPF move ligand.dum.pdbqt
DOCKED: USER    NEWDPF about 0.003000 -0.142000 -0.069000
DOCKED: USER    NEWDPF tran0 35.074780 15.363933 123.722239
DOCKED: USER    NEWDPF quaternion0 -0.282441 -0.048662 0.672737 0.682117
DOCKED: USER    NEWDPF axisangle0 -0.386247 -0.066547 0.919992 93.981379
DOCKED: USER    NEWDPF quat0 -0.386247 -0.066547 0.919992 93.981379
DOCKED: USER    NEWDPF dihe0 83.77 78.05 -82.34 -128.05 -156.26 -34.93 -38.04 -168.64 
DOCKED: USER  keepresnum = 1 
DOCKED: USER  
DOCKED: REMARK  Name = 
DOCKED: REMARK  8 active torsions:
DOCKED: REMARK  status: ('A' for Active; 'I' for Inactive)
DOCKED: REMARK    1  A    between atoms: C_2  and  C_5
DOCKED: REMARK    2  A    between atoms: C_5  and  C_6
DOCKED: REMARK    3  A    between atoms: C_6  and  C_7
DOCKED: REMARK    4  A    between atoms: C_7  and  C_8
DOCKED: REMARK    5  A    between atoms: C_8  and  C_9
DOCKED: REMARK    6  A    between atoms: C_9  and  C_10
DOCKED: REMARK    7  A    between atoms: C_10  and  C_11
DOCKED: REMARK    8  A    between atoms: N_12  and  C_13
DOCKED: REMARK                            x       y       z     vdW  Elec       q    Type
DOCKED: REMARK                         _______ _______ _______ _____ _____    ______ ____
DOCKED: USER                              x       y       z     vdW  Elec       q    Type
DOCKED: USER                           _______ _______ _______ _____ _____    ______ ____
DOCKED: ROOT
DOCKED: ATOM      1  C   UNL     1      34.385  15.731 123.449 -0.49 -0.00    +0.000 C 
DOCKED: ENDROOT
DOCKED: BRANCH   1   2
DOCKED: ATOM      2  C   UNL     1      34.067  16.662 124.580 -0.47 -0.00    +0.000 C 
DOCKED: ATOM      3  N   UNL     1      33.944  16.149 125.917 -0.48 -0.00    +0.000 N 
DOCKED: ATOM      4  O   UNL     1      33.909  17.890 124.344 -0.44 -0.00    +0.000 OA
DOCKED: ATOM      5  H   UNL     1      34.244  15.227 126.087 -0.05 -0.00    +0.000 HD
DOCKED: BRANCH   3   6
DOCKED: ATOM      6  C   UNL     1      33.412  16.899 127.022 -0.38 -0.00    +0.000 A 
DOCKED: ATOM      7  C   UNL     1      33.826  18.214 127.292 -0.24 -0.00    +0.000 A 
DOCKED: ATOM      8  C   UNL     1      33.265  18.918 128.359 -0.13 -0.00    +0.000 A 
DOCKED: ATOM      9  C   UNL     1      32.283  18.308 129.141 -0.17 -0.00    +0.000 A 
DOCKED: ATOM     10  N   UNL     1      31.874  17.043 128.854 -0.39 -0.00    +0.000 NA
DOCKED: ATOM     11  C   UNL     1      32.405  16.337 127.821 -0.38 -0.00    +0.000 A 
DOCKED: ATOM     12  CM  UNL     1      32.818  17.605 128.102 +0.00 -0.00    +0.000 AC
DOCKED: ENDBRANCH   3   6
DOCKED: ENDBRANCH   1   2
DOCKED: BRANCH   1  12
DOCKED: ATOM     13  C   UNL     1      35.903  15.563 123.306 -0.44 -0.00    +0.000 C 
DOCKED: BRANCH  12  13
DOCKED: ATOM     14  C   UNL     1      36.307  14.182 122.759 -0.42 -0.00    +0.000 C 
DOCKED: BRANCH  13  14
DOCKED: ATOM     15  C   UNL     1      36.691  13.144 123.830 -0.53 -0.00    +0.000 C 
DOCKED: BRANCH  14  15
DOCKED: ATOM     16  C   UNL     1      36.192  11.727 123.498 -0.70 -0.00    +0.000 C 
DOCKED: BRANCH  15  16
DOCKED: ATOM     17  C   UNL     1      36.700  11.237 122.137 -0.63 -0.00    +0.000 C 
DOCKED: BRANCH  16  18
DOCKED: ATOM     18  O   UNL     1      36.981   9.144 121.014 -2.70 -0.00    +0.000 OA
DOCKED: ATOM     19  C   UNL     1      36.902   9.750 122.118 -0.63 -0.00    +0.000 C 
DOCKED: ATOM     20  N   UNL     1      36.978   9.013 123.340 -0.61 -0.00    +0.000 N 
DOCKED: ATOM     21  O   UNL     1      37.147   7.670 123.322 -2.57 -0.00    +0.000 OA
DOCKED: ATOM     22  H   UNL     1      36.908   9.485 124.201 -0.54 -0.00    +0.000 HD
DOCKED: ENDBRANCH  16  18
DOCKED: ENDBRANCH  15  16
DOCKED: ENDBRANCH  14  15
DOCKED: ENDBRANCH  13  14
DOCKED: ENDBRANCH  12  13
DOCKED: ENDBRANCH   1  12
DOCKED: TORSDOF 8DOCKED: TER
DOCKED: ENDMDL
________________________________________________________________________________


	BEGINNING GENETIC ALGORITHM DOCKING 89 of 100
Run: 89 Seed: 362796609 1905140003 [ Run 89 of 100 GA/GALS ]
Beginning LAMARCKIAN GENETIC ALGORITHM (LGA), with a maximum of 2500000 energy evaluations.

Final-Value: -13.262


	FINAL GENETIC ALGORITHM DOCKED STATE
	_______________________________________________


Detailed state:  trans 36.483 13.847 122.977 quatxyzw 0.625858 0.700657 -0.137373 -0.313861 center 0.003 -0.142 -0.069 ntor 8 -169.4513 47.4687 65.2597 102.3914 -7.0436 -179.7201 -130.6787 159.7892
State:	 36.483  13.847 122.977   0.659  0.738 -0.145 -143.416   -169.45   47.47   65.26  102.39   -7.04 -179.72 -130.68  159.79

DOCKED: MODEL       89
DOCKED: USER    Run = 89
DOCKED: USER    DPF = ligand_dock.biased.dpf
DOCKED: USER  
DOCKED: USER    Estimated Free Energy of Binding    =   -8.77 kcal/mol  [=(1)+(2)+(3)-(4)]
DOCKED: USER    Estimated Inhibition Constant, Ki   =  369.75 nM (nanomolar)  [Temperature = 298.15 K]
DOCKED: USER    
DOCKED: USER    (1) Final Intermolecular Energy     =  -11.16 kcal/mol
DOCKED: USER        vdW + Hbond + desolv Energy     =  -11.16 kcal/mol
DOCKED: USER        Electrostatic Energy            =   +0.00 kcal/mol
DOCKED: USER    (2) Final Total Internal Energy     =   -2.10 kcal/mol
DOCKED: USER    (3) Torsional Free Energy           =   +2.39 kcal/mol
DOCKED: USER    (4) Unbound System's Energy  [=(2)] =   -2.10 kcal/mol
DOCKED: USER    
DOCKED: USER    
DOCKED: USER    NEWDPF move ligand.dum.pdbqt
DOCKED: USER    NEWDPF about 0.003000 -0.142000 -0.069000
DOCKED: USER    NEWDPF tran0 36.483486 13.847194 122.977334
DOCKED: USER    NEWDPF quaternion0 0.625858 0.700657 -0.137373 -0.313861
DOCKED: USER    NEWDPF axisangle0 0.659167 0.737947 -0.144684 -143.415812
DOCKED: USER    NEWDPF quat0 0.659167 0.737947 -0.144684 -143.415812
DOCKED: USER    NEWDPF dihe0 -169.45 47.47 65.26 102.39 -7.04 -179.72 -130.68 159.79 
DOCKED: USER  keepresnum = 1 
DOCKED: USER  
DOCKED: REMARK  Name = 
DOCKED: REMARK  8 active torsions:
DOCKED: REMARK  status: ('A' for Active; 'I' for Inactive)
DOCKED: REMARK    1  A    between atoms: C_2  and  C_5
DOCKED: REMARK    2  A    between atoms: C_5  and  C_6
DOCKED: REMARK    3  A    between atoms: C_6  and  C_7
DOCKED: REMARK    4  A    between atoms: C_7  and  C_8
DOCKED: REMARK    5  A    between atoms: C_8  and  C_9
DOCKED: REMARK    6  A    between atoms: C_9  and  C_10
DOCKED: REMARK    7  A    between atoms: C_10  and  C_11
DOCKED: REMARK    8  A    between atoms: N_12  and  C_13
DOCKED: REMARK                            x       y       z     vdW  Elec       q    Type
DOCKED: REMARK                         _______ _______ _______ _____ _____    ______ ____
DOCKED: USER                              x       y       z     vdW  Elec       q    Type
DOCKED: USER                           _______ _______ _______ _____ _____    ______ ____
DOCKED: ROOT
DOCKED: ATOM      1  C   UNL     1      35.706  13.604 123.124 -0.28 -0.00    +0.000 C 
DOCKED: ENDROOT
DOCKED: BRANCH   1   2
DOCKED: ATOM      2  C   UNL     1      35.901  12.160 123.478 -0.65 -0.00    +0.000 C 
DOCKED: ATOM      3  N   UNL     1      35.956  11.168 122.441 -0.59 -0.00    +0.000 N 
DOCKED: ATOM      4  O   UNL     1      36.015  11.832 124.690 -0.62 -0.00    +0.000 OA
DOCKED: ATOM      5  H   UNL     1      36.039  11.478 121.510 -0.12 -0.00    +0.000 HD
DOCKED: BRANCH   3   6
DOCKED: ATOM      6  C   UNL     1      35.898   9.751 122.676 -0.61 -0.00    +0.000 A 
DOCKED: ATOM      7  C   UNL     1      34.712   9.019 122.498 -0.57 -0.00    +0.000 A 
DOCKED: ATOM      8  C   UNL     1      34.705   7.639 122.711 -0.63 -0.00    +0.000 A 
DOCKED: ATOM      9  C   UNL     1      35.886   6.998 123.086 -0.69 -0.00    +0.000 A 
DOCKED: ATOM     10  N   UNL     1      37.033   7.714 123.232 -2.44 -0.00    +0.000 NA
DOCKED: ATOM     11  C   UNL     1      37.065   9.059 123.030 -0.55 -0.00    +0.000 A 
DOCKED: ATOM     12  CM  UNL     1      35.914   8.346 122.881 +0.00 -0.00    +0.000 AC
DOCKED: ENDBRANCH   3   6
DOCKED: ENDBRANCH   1   2
DOCKED: BRANCH   1  12
DOCKED: ATOM     13  C   UNL     1      36.909  14.435 123.588 -0.43 -0.00    +0.000 C 
DOCKED: BRANCH  12  13
DOCKED: ATOM     14  C   UNL     1      38.244  13.939 123.004 -0.47 -0.00    +0.000 C 
DOCKED: BRANCH  13  14
DOCKED: ATOM     15  C   UNL     1      38.993  14.963 122.130 -0.39 -0.00    +0.000 C 
DOCKED: BRANCH  14  15
DOCKED: ATOM     16  C   UNL     1      38.283  15.244 120.794 -0.27 -0.00    +0.000 C 
DOCKED: BRANCH  15  16
DOCKED: ATOM     17  C   UNL     1      38.409  14.072 119.812 -0.20 -0.00    +0.000 C 
DOCKED: BRANCH  16  18
DOCKED: ATOM     18  O   UNL     1      36.613  12.530 120.149 -0.48 -0.00    +0.000 OA
DOCKED: ATOM     19  C   UNL     1      37.071  13.486 119.467 -0.42 -0.00    +0.000 C 
DOCKED: ATOM     20  N   UNL     1      36.327  13.985 118.353 -0.36 -0.00    +0.000 N 
DOCKED: ATOM     21  O   UNL     1      35.127  13.447 118.033 -0.39 -0.00    +0.000 OA
DOCKED: ATOM     22  H   UNL     1      36.689  14.726 117.815 -0.00 -0.00    +0.000 HD
DOCKED: ENDBRANCH  16  18
DOCKED: ENDBRANCH  15  16
DOCKED: ENDBRANCH  14  15
DOCKED: ENDBRANCH  13  14
DOCKED: ENDBRANCH  12  13
DOCKED: ENDBRANCH   1  12
DOCKED: TORSDOF 8DOCKED: TER
DOCKED: ENDMDL
________________________________________________________________________________


	BEGINNING GENETIC ALGORITHM DOCKING 90 of 100
Run: 90 Seed: 1783142429 485462247 [ Run 90 of 100 GA/GALS ]
Beginning LAMARCKIAN GENETIC ALGORITHM (LGA), with a maximum of 2500000 energy evaluations.

Final-Value: -13.322


	FINAL GENETIC ALGORITHM DOCKED STATE
	_______________________________________________


Detailed state:  trans 36.584 11.800 121.996 quatxyzw 0.297217 0.523899 -0.446815 0.661474 center 0.003 -0.142 -0.069 ntor 8 -51.9634 81.0987 -106.1538 85.7398 3.4249 26.2312 8.0084 160.1997
State:	 36.584  11.800 121.996   0.396  0.699 -0.596 97.175    -51.96   81.10 -106.15   85.74    3.42   26.23    8.01  160.20

DOCKED: MODEL       90
DOCKED: USER    Run = 90
DOCKED: USER    DPF = ligand_dock.biased.dpf
DOCKED: USER  
DOCKED: USER    Estimated Free Energy of Binding    =  -10.10 kcal/mol  [=(1)+(2)+(3)-(4)]
DOCKED: USER    Estimated Inhibition Constant, Ki   =   39.77 nM (nanomolar)  [Temperature = 298.15 K]
DOCKED: USER    
DOCKED: USER    (1) Final Intermolecular Energy     =  -12.48 kcal/mol
DOCKED: USER        vdW + Hbond + desolv Energy     =  -12.48 kcal/mol
DOCKED: USER        Electrostatic Energy            =   +0.00 kcal/mol
DOCKED: USER    (2) Final Total Internal Energy     =   -0.84 kcal/mol
DOCKED: USER    (3) Torsional Free Energy           =   +2.39 kcal/mol
DOCKED: USER    (4) Unbound System's Energy  [=(2)] =   -0.84 kcal/mol
DOCKED: USER    
DOCKED: USER    
DOCKED: USER    NEWDPF move ligand.dum.pdbqt
DOCKED: USER    NEWDPF about 0.003000 -0.142000 -0.069000
DOCKED: USER    NEWDPF tran0 36.584207 11.800370 121.995729
DOCKED: USER    NEWDPF quaternion0 0.297217 0.523899 -0.446815 0.661474
DOCKED: USER    NEWDPF axisangle0 0.396306 0.698562 -0.595779 97.175238
DOCKED: USER    NEWDPF quat0 0.396306 0.698562 -0.595779 97.175238
DOCKED: USER    NEWDPF dihe0 -51.96 81.10 -106.15 85.74 3.42 26.23 8.01 160.20 
DOCKED: USER  keepresnum = 1 
DOCKED: USER  
DOCKED: REMARK  Name = 
DOCKED: REMARK  8 active torsions:
DOCKED: REMARK  status: ('A' for Active; 'I' for Inactive)
DOCKED: REMARK    1  A    between atoms: C_2  and  C_5
DOCKED: REMARK    2  A    between atoms: C_5  and  C_6
DOCKED: REMARK    3  A    between atoms: C_6  and  C_7
DOCKED: REMARK    4  A    between atoms: C_7  and  C_8
DOCKED: REMARK    5  A    between atoms: C_8  and  C_9
DOCKED: REMARK    6  A    between atoms: C_9  and  C_10
DOCKED: REMARK    7  A    between atoms: C_10  and  C_11
DOCKED: REMARK    8  A    between atoms: N_12  and  C_13
DOCKED: REMARK                            x       y       z     vdW  Elec       q    Type
DOCKED: REMARK                         _______ _______ _______ _____ _____    ______ ____
DOCKED: USER                              x       y       z     vdW  Elec       q    Type
DOCKED: USER                           _______ _______ _______ _____ _____    ______ ____
DOCKED: ROOT
DOCKED: ATOM      1  C   UNL     1      36.954  11.249 122.490 -0.61 -0.00    +0.000 C 
DOCKED: ENDROOT
DOCKED: BRANCH   1   2
DOCKED: ATOM      2  C   UNL     1      36.283   9.973 122.079 -0.61 -0.00    +0.000 C 
DOCKED: ATOM      3  N   UNL     1      35.032   9.596 122.676 -0.59 -0.00    +0.000 N 
DOCKED: ATOM      4  O   UNL     1      36.828   9.241 121.209 -2.65 -0.00    +0.000 OA
DOCKED: ATOM      5  H   UNL     1      34.556  10.270 123.214 -0.37 -0.00    +0.000 HD
DOCKED: BRANCH   3   6
DOCKED: ATOM      6  C   UNL     1      34.431   8.298 122.536 -0.61 -0.00    +0.000 A 
DOCKED: ATOM      7  C   UNL     1      33.868   7.870 121.322 -0.57 -0.00    +0.000 A 
DOCKED: ATOM      8  C   UNL     1      33.318   6.591 121.220 -0.41 -0.00    +0.000 A 
DOCKED: ATOM      9  C   UNL     1      33.347   5.743 122.327 -0.58 -0.00    +0.000 A 
DOCKED: ATOM     10  N   UNL     1      33.916   6.160 123.490 -0.71 -0.00    +0.000 NA
DOCKED: ATOM     11  C   UNL     1      34.458   7.401 123.614 -0.64 -0.00    +0.000 A 
DOCKED: ATOM     12  CM  UNL     1      33.891   6.987 122.447 +0.00 -0.00    +0.000 AC
DOCKED: ENDBRANCH   3   6
DOCKED: ENDBRANCH   1   2
DOCKED: BRANCH   1  12
DOCKED: ATOM     13  C   UNL     1      37.079  12.198 121.291 -0.55 -0.00    +0.000 C 
DOCKED: BRANCH  12  13
DOCKED: ATOM     14  C   UNL     1      38.079  13.343 121.530 -0.44 -0.00    +0.000 C 
DOCKED: BRANCH  13  14
DOCKED: ATOM     15  C   UNL     1      38.128  13.874 122.975 -0.49 -0.00    +0.000 C 
DOCKED: BRANCH  14  15
DOCKED: ATOM     16  C   UNL     1      36.770  14.407 123.464 -0.49 -0.00    +0.000 C 
DOCKED: BRANCH  15  16
DOCKED: ATOM     17  C   UNL     1      36.584  15.897 123.150 -0.37 -0.00    +0.000 C 
DOCKED: BRANCH  16  18
DOCKED: ATOM     18  O   UNL     1      34.248  15.562 123.534 -0.61 -0.00    +0.000 OA
DOCKED: ATOM     19  C   UNL     1      35.137  16.254 122.968 -0.38 -0.00    +0.000 C 
DOCKED: ATOM     20  N   UNL     1      34.761  17.353 122.136 -0.33 -0.00    +0.000 N 
DOCKED: ATOM     21  O   UNL     1      33.455  17.665 121.962 -0.47 -0.00    +0.000 OA
DOCKED: ATOM     22  H   UNL     1      35.455  17.887 121.687 -0.00 -0.00    +0.000 HD
DOCKED: ENDBRANCH  16  18
DOCKED: ENDBRANCH  15  16
DOCKED: ENDBRANCH  14  15
DOCKED: ENDBRANCH  13  14
DOCKED: ENDBRANCH  12  13
DOCKED: ENDBRANCH   1  12
DOCKED: TORSDOF 8DOCKED: TER
DOCKED: ENDMDL
________________________________________________________________________________


	BEGINNING GENETIC ALGORITHM DOCKING 91 of 100
Run: 91 Seed: 948777214 1700789119 [ Run 91 of 100 GA/GALS ]
Beginning LAMARCKIAN GENETIC ALGORITHM (LGA), with a maximum of 2500000 energy evaluations.

Final-Value: -13.797


	FINAL GENETIC ALGORITHM DOCKED STATE
	_______________________________________________


Detailed state:  trans 36.002 15.240 123.368 quatxyzw -0.412151 -0.028590 0.717260 0.561117 center 0.003 -0.142 -0.069 ntor 8 -124.7405 -172.3814 -168.5660 119.1372 -50.0264 -174.1800 -80.8743 157.7024
State:	 36.002  15.240 123.368  -0.498 -0.035  0.867 111.734   -124.74 -172.38 -168.57  119.14  -50.03 -174.18  -80.87  157.70

DOCKED: MODEL       91
DOCKED: USER    Run = 91
DOCKED: USER    DPF = ligand_dock.biased.dpf
DOCKED: USER  
DOCKED: USER    Estimated Free Energy of Binding    =  -10.63 kcal/mol  [=(1)+(2)+(3)-(4)]
DOCKED: USER    Estimated Inhibition Constant, Ki   =   16.17 nM (nanomolar)  [Temperature = 298.15 K]
DOCKED: USER    
DOCKED: USER    (1) Final Intermolecular Energy     =  -13.02 kcal/mol
DOCKED: USER        vdW + Hbond + desolv Energy     =  -13.02 kcal/mol
DOCKED: USER        Electrostatic Energy            =   +0.00 kcal/mol
DOCKED: USER    (2) Final Total Internal Energy     =   -0.78 kcal/mol
DOCKED: USER    (3) Torsional Free Energy           =   +2.39 kcal/mol
DOCKED: USER    (4) Unbound System's Energy  [=(2)] =   -0.78 kcal/mol
DOCKED: USER    
DOCKED: USER    
DOCKED: USER    NEWDPF move ligand.dum.pdbqt
DOCKED: USER    NEWDPF about 0.003000 -0.142000 -0.069000
DOCKED: USER    NEWDPF tran0 36.002323 15.239833 123.367655
DOCKED: USER    NEWDPF quaternion0 -0.412151 -0.028590 0.717260 0.561117
DOCKED: USER    NEWDPF axisangle0 -0.497926 -0.034540 0.866532 111.733827
DOCKED: USER    NEWDPF quat0 -0.497926 -0.034540 0.866532 111.733827
DOCKED: USER    NEWDPF dihe0 -124.74 -172.38 -168.57 119.14 -50.03 -174.18 -80.87 157.70 
DOCKED: USER  keepresnum = 1 
DOCKED: USER  
DOCKED: REMARK  Name = 
DOCKED: REMARK  8 active torsions:
DOCKED: REMARK  status: ('A' for Active; 'I' for Inactive)
DOCKED: REMARK    1  A    between atoms: C_2  and  C_5
DOCKED: REMARK    2  A    between atoms: C_5  and  C_6
DOCKED: REMARK    3  A    between atoms: C_6  and  C_7
DOCKED: REMARK    4  A    between atoms: C_7  and  C_8
DOCKED: REMARK    5  A    between atoms: C_8  and  C_9
DOCKED: REMARK    6  A    between atoms: C_9  and  C_10
DOCKED: REMARK    7  A    between atoms: C_10  and  C_11
DOCKED: REMARK    8  A    between atoms: N_12  and  C_13
DOCKED: REMARK                            x       y       z     vdW  Elec       q    Type
DOCKED: REMARK                         _______ _______ _______ _____ _____    ______ ____
DOCKED: USER                              x       y       z     vdW  Elec       q    Type
DOCKED: USER                           _______ _______ _______ _____ _____    ______ ____
DOCKED: ROOT
DOCKED: ATOM      1  C   UNL     1      35.478  15.819 123.095 -0.40 -0.00    +0.000 C 
DOCKED: ENDROOT
DOCKED: BRANCH   1   2
DOCKED: ATOM      2  C   UNL     1      35.170  16.568 124.357 -0.45 -0.00    +0.000 C 
DOCKED: ATOM      3  N   UNL     1      34.093  16.135 125.203 -0.52 -0.00    +0.000 N 
DOCKED: ATOM      4  O   UNL     1      35.864  17.575 124.662 -0.30 -0.00    +0.000 OA
DOCKED: ATOM      5  H   UNL     1      33.692  15.253 125.026 -0.09 -0.00    +0.000 HD
DOCKED: BRANCH   3   6
DOCKED: ATOM      6  C   UNL     1      33.564  16.908 126.294 -0.32 -0.00    +0.000 A 
DOCKED: ATOM      7  C   UNL     1      33.318  16.338 127.554 -0.38 -0.00    +0.000 A 
DOCKED: ATOM      8  C   UNL     1      32.829  17.129 128.595 -0.32 -0.00    +0.000 A 
DOCKED: ATOM      9  C   UNL     1      32.603  18.488 128.374 -0.18 -0.00    +0.000 A 
DOCKED: ATOM     10  N   UNL     1      32.867  19.033 127.156 -0.23 -0.00    +0.000 NA
DOCKED: ATOM     11  C   UNL     1      33.343  18.283 126.127 -0.30 -0.00    +0.000 A 
DOCKED: ATOM     12  CM  UNL     1      33.082  17.733 127.345 +0.00 -0.00    +0.000 AC
DOCKED: ENDBRANCH   3   6
DOCKED: ENDBRANCH   1   2
DOCKED: BRANCH   1  12
DOCKED: ATOM     13  C   UNL     1      36.917  15.291 123.125 -0.41 -0.00    +0.000 C 
DOCKED: BRANCH  12  13
DOCKED: ATOM     14  C   UNL     1      36.996  13.769 123.342 -0.54 -0.00    +0.000 C 
DOCKED: BRANCH  13  14
DOCKED: ATOM     15  C   UNL     1      37.782  12.998 122.266 -0.47 -0.00    +0.000 C 
DOCKED: BRANCH  14  15
DOCKED: ATOM     16  C   UNL     1      36.890  12.081 121.411 -0.54 -0.00    +0.000 C 
DOCKED: BRANCH  15  16
DOCKED: ATOM     17  C   UNL     1      36.096  11.085 122.265 -0.64 -0.00    +0.000 C 
DOCKED: BRANCH  16  18
DOCKED: ATOM     18  O   UNL     1      37.049   9.208 121.130 -2.73 -0.00    +0.000 OA
DOCKED: ATOM     19  C   UNL     1      36.703   9.712 122.233 -0.69 -0.00    +0.000 C 
DOCKED: ATOM     20  N   UNL     1      36.864   8.963 123.439 -0.58 -0.00    +0.000 N 
DOCKED: ATOM     21  O   UNL     1      37.398   7.720 123.408 -2.58 -0.00    +0.000 OA
DOCKED: ATOM     22  H   UNL     1      36.586   9.354 124.299 -0.35 -0.00    +0.000 HD
DOCKED: ENDBRANCH  16  18
DOCKED: ENDBRANCH  15  16
DOCKED: ENDBRANCH  14  15
DOCKED: ENDBRANCH  13  14
DOCKED: ENDBRANCH  12  13
DOCKED: ENDBRANCH   1  12
DOCKED: TORSDOF 8DOCKED: TER
DOCKED: ENDMDL
________________________________________________________________________________


	BEGINNING GENETIC ALGORITHM DOCKING 92 of 100
Run: 92 Seed: 1320186736 590950310 [ Run 92 of 100 GA/GALS ]
Beginning LAMARCKIAN GENETIC ALGORITHM (LGA), with a maximum of 2500000 energy evaluations.

Final-Value: -14.128


	FINAL GENETIC ALGORITHM DOCKED STATE
	_______________________________________________


Detailed state:  trans 38.512 15.241 120.433 quatxyzw -0.554475 0.191134 0.365725 -0.722683 center 0.003 -0.142 -0.069 ntor 8 -66.9871 -159.9264 -102.1873 2.3579 -168.9607 45.0197 108.9348 -113.4293
State:	 38.512  15.241 120.433  -0.802  0.277  0.529 -87.447    -66.99 -159.93 -102.19    2.36 -168.96   45.02  108.93 -113.43

DOCKED: MODEL       92
DOCKED: USER    Run = 92
DOCKED: USER    DPF = ligand_dock.biased.dpf
DOCKED: USER  
DOCKED: USER    Estimated Free Energy of Binding    =  -10.55 kcal/mol  [=(1)+(2)+(3)-(4)]
DOCKED: USER    Estimated Inhibition Constant, Ki   =   18.49 nM (nanomolar)  [Temperature = 298.15 K]
DOCKED: USER    
DOCKED: USER    (1) Final Intermolecular Energy     =  -12.94 kcal/mol
DOCKED: USER        vdW + Hbond + desolv Energy     =  -12.94 kcal/mol
DOCKED: USER        Electrostatic Energy            =   +0.00 kcal/mol
DOCKED: USER    (2) Final Total Internal Energy     =   -1.19 kcal/mol
DOCKED: USER    (3) Torsional Free Energy           =   +2.39 kcal/mol
DOCKED: USER    (4) Unbound System's Energy  [=(2)] =   -1.19 kcal/mol
DOCKED: USER    
DOCKED: USER    
DOCKED: USER    NEWDPF move ligand.dum.pdbqt
DOCKED: USER    NEWDPF about 0.003000 -0.142000 -0.069000
DOCKED: USER    NEWDPF tran0 38.511844 15.240696 120.432752
DOCKED: USER    NEWDPF quaternion0 -0.554475 0.191134 0.365725 -0.722683
DOCKED: USER    NEWDPF axisangle0 -0.802215 0.276533 0.529132 -87.447160
DOCKED: USER    NEWDPF quat0 -0.802215 0.276533 0.529132 -87.447160
DOCKED: USER    NEWDPF dihe0 -66.99 -159.93 -102.19 2.36 -168.96 45.02 108.93 -113.43 
DOCKED: USER  keepresnum = 1 
DOCKED: USER  
DOCKED: REMARK  Name = 
DOCKED: REMARK  8 active torsions:
DOCKED: REMARK  status: ('A' for Active; 'I' for Inactive)
DOCKED: REMARK    1  A    between atoms: C_2  and  C_5
DOCKED: REMARK    2  A    between atoms: C_5  and  C_6
DOCKED: REMARK    3  A    between atoms: C_6  and  C_7
DOCKED: REMARK    4  A    between atoms: C_7  and  C_8
DOCKED: REMARK    5  A    between atoms: C_8  and  C_9
DOCKED: REMARK    6  A    between atoms: C_9  and  C_10
DOCKED: REMARK    7  A    between atoms: C_10  and  C_11
DOCKED: REMARK    8  A    between atoms: N_12  and  C_13
DOCKED: REMARK                            x       y       z     vdW  Elec       q    Type
DOCKED: REMARK                         _______ _______ _______ _____ _____    ______ ____
DOCKED: USER                              x       y       z     vdW  Elec       q    Type
DOCKED: USER                           _______ _______ _______ _____ _____    ______ ____
DOCKED: ROOT
DOCKED: ATOM      1  C   UNL     1      38.924  14.899 121.064 -0.32 -0.00    +0.000 C 
DOCKED: ENDROOT
DOCKED: BRANCH   1   2
DOCKED: ATOM      2  C   UNL     1      37.944  15.057 122.187 -0.37 -0.00    +0.000 C 
DOCKED: ATOM      3  N   UNL     1      36.666  15.666 121.944 -0.25 -0.00    +0.000 N 
DOCKED: ATOM      4  O   UNL     1      38.255  14.652 123.340 -0.45 -0.00    +0.000 OA
DOCKED: ATOM      5  H   UNL     1      36.393  15.808 121.008 -0.01 -0.00    +0.000 HD
DOCKED: BRANCH   3   6
DOCKED: ATOM      6  C   UNL     1      35.760  16.081 122.980 -0.33 -0.00    +0.000 A 
DOCKED: ATOM      7  C   UNL     1      35.119  15.153 123.819 -0.50 -0.00    +0.000 A 
DOCKED: ATOM      8  C   UNL     1      34.267  15.599 124.831 -0.49 -0.00    +0.000 A 
DOCKED: ATOM      9  C   UNL     1      34.072  16.969 125.008 -0.41 -0.00    +0.000 A 
DOCKED: ATOM     10  N   UNL     1      34.716  17.858 124.204 -0.33 -0.00    +0.000 NA
DOCKED: ATOM     11  C   UNL     1      35.551  17.449 123.212 -0.28 -0.00    +0.000 A 
DOCKED: ATOM     12  CM  UNL     1      34.909  16.554 124.015 -0.09 -0.00    +0.000 AC
DOCKED: ENDBRANCH   3   6
DOCKED: ENDBRANCH   1   2
DOCKED: BRANCH   1  12
DOCKED: ATOM     13  C   UNL     1      38.185  14.686 119.737 -0.28 -0.00    +0.000 C 
DOCKED: BRANCH  12  13
DOCKED: ATOM     14  C   UNL     1      37.356  13.389 119.711 -0.44 -0.00    +0.000 C 
DOCKED: BRANCH  13  14
DOCKED: ATOM     15  C   UNL     1      37.708  12.369 120.809 -0.49 -0.00    +0.000 C 
DOCKED: BRANCH  14  15
DOCKED: ATOM     16  C   UNL     1      36.477  11.884 121.595 -0.53 -0.00    +0.000 C 
DOCKED: BRANCH  15  16
DOCKED: ATOM     17  C   UNL     1      36.862  11.008 122.794 -0.64 -0.00    +0.000 C 
DOCKED: BRANCH  16  18
DOCKED: ATOM     18  O   UNL     1      36.908   9.219 121.208 -2.69 -0.00    +0.000 OA
DOCKED: ATOM     19  C   UNL     1      36.940   9.556 122.423 -0.64 -0.00    +0.000 C 
DOCKED: ATOM     20  N   UNL     1      37.021   8.552 123.437 -0.67 -0.00    +0.000 N 
DOCKED: ATOM     21  O   UNL     1      37.076   7.242 123.102 -2.22 -0.00    +0.000 OA
DOCKED: ATOM     22  H   UNL     1      37.036   8.815 124.386 -0.52 -0.00    +0.000 HD
DOCKED: ENDBRANCH  16  18
DOCKED: ENDBRANCH  15  16
DOCKED: ENDBRANCH  14  15
DOCKED: ENDBRANCH  13  14
DOCKED: ENDBRANCH  12  13
DOCKED: ENDBRANCH   1  12
DOCKED: TORSDOF 8DOCKED: TER
DOCKED: ENDMDL
________________________________________________________________________________


	BEGINNING GENETIC ALGORITHM DOCKING 93 of 100
Run: 93 Seed: 2070702975 4408032 [ Run 93 of 100 GA/GALS ]
Beginning LAMARCKIAN GENETIC ALGORITHM (LGA), with a maximum of 2500000 energy evaluations.

Final-Value: -12.926


	FINAL GENETIC ALGORITHM DOCKED STATE
	_______________________________________________


Detailed state:  trans 37.583 14.049 118.686 quatxyzw 0.809485 -0.169448 0.275923 -0.489784 center 0.003 -0.142 -0.069 ntor 8 -49.8659 168.2221 80.9620 -64.4019 -175.6797 -137.7085 -96.9017 -13.2864
State:	 37.583  14.049 118.686   0.928 -0.194  0.316 -121.347    -49.87  168.22   80.96  -64.40 -175.68 -137.71  -96.90  -13.29

DOCKED: MODEL       93
DOCKED: USER    Run = 93
DOCKED: USER    DPF = ligand_dock.biased.dpf
DOCKED: USER  
DOCKED: USER    Estimated Free Energy of Binding    =   -9.72 kcal/mol  [=(1)+(2)+(3)-(4)]
DOCKED: USER    Estimated Inhibition Constant, Ki   =   74.77 nM (nanomolar)  [Temperature = 298.15 K]
DOCKED: USER    
DOCKED: USER    (1) Final Intermolecular Energy     =  -12.11 kcal/mol
DOCKED: USER        vdW + Hbond + desolv Energy     =  -12.11 kcal/mol
DOCKED: USER        Electrostatic Energy            =   +0.00 kcal/mol
DOCKED: USER    (2) Final Total Internal Energy     =   -0.82 kcal/mol
DOCKED: USER    (3) Torsional Free Energy           =   +2.39 kcal/mol
DOCKED: USER    (4) Unbound System's Energy  [=(2)] =   -0.82 kcal/mol
DOCKED: USER    
DOCKED: USER    
DOCKED: USER    NEWDPF move ligand.dum.pdbqt
DOCKED: USER    NEWDPF about 0.003000 -0.142000 -0.069000
DOCKED: USER    NEWDPF tran0 37.583466 14.048658 118.686450
DOCKED: USER    NEWDPF quaternion0 0.809485 -0.169448 0.275923 -0.489784
DOCKED: USER    NEWDPF axisangle0 0.928475 -0.194355 0.316482 -121.347286
DOCKED: USER    NEWDPF quat0 0.928475 -0.194355 0.316482 -121.347286
DOCKED: USER    NEWDPF dihe0 -49.87 168.22 80.96 -64.40 -175.68 -137.71 -96.90 -13.29 
DOCKED: USER  keepresnum = 1 
DOCKED: USER  
DOCKED: REMARK  Name = 
DOCKED: REMARK  8 active torsions:
DOCKED: REMARK  status: ('A' for Active; 'I' for Inactive)
DOCKED: REMARK    1  A    between atoms: C_2  and  C_5
DOCKED: REMARK    2  A    between atoms: C_5  and  C_6
DOCKED: REMARK    3  A    between atoms: C_6  and  C_7
DOCKED: REMARK    4  A    between atoms: C_7  and  C_8
DOCKED: REMARK    5  A    between atoms: C_8  and  C_9
DOCKED: REMARK    6  A    between atoms: C_9  and  C_10
DOCKED: REMARK    7  A    between atoms: C_10  and  C_11
DOCKED: REMARK    8  A    between atoms: N_12  and  C_13
DOCKED: REMARK                            x       y       z     vdW  Elec       q    Type
DOCKED: REMARK                         _______ _______ _______ _____ _____    ______ ____
DOCKED: USER                              x       y       z     vdW  Elec       q    Type
DOCKED: USER                           _______ _______ _______ _____ _____    ______ ____
DOCKED: ROOT
DOCKED: ATOM      1  C   UNL     1      37.738  14.561 118.055 -0.28 -0.00    +0.000 C 
DOCKED: ENDROOT
DOCKED: BRANCH   1   2
DOCKED: ATOM      2  C   UNL     1      36.837  14.011 116.991 -0.37 -0.00    +0.000 C 
DOCKED: ATOM      3  N   UNL     1      35.584  14.655 116.708 -0.27 -0.00    +0.000 N 
DOCKED: ATOM      4  O   UNL     1      37.190  12.983 116.352 -0.47 -0.00    +0.000 OA
DOCKED: ATOM      5  H   UNL     1      35.424  15.545 117.099 -0.00 -0.00    +0.000 HD
DOCKED: BRANCH   3   6
DOCKED: ATOM      6  C   UNL     1      34.549  14.083 115.891 -0.28 -0.00    +0.000 A 
DOCKED: ATOM      7  C   UNL     1      33.289  13.751 116.416 -0.35 -0.00    +0.000 A 
DOCKED: ATOM      8  C   UNL     1      32.302  13.222 115.582 -0.40 -0.00    +0.000 A 
DOCKED: ATOM      9  C   UNL     1      32.576  13.044 114.225 -0.33 -0.00    +0.000 A 
DOCKED: ATOM     10  N   UNL     1      33.791  13.392 113.724 -0.28 -0.00    +0.000 NA
DOCKED: ATOM     11  C   UNL     1      34.769  13.908 114.516 -0.23 -0.00    +0.000 A 
DOCKED: ATOM     12  CM  UNL     1      33.552  13.562 115.023 +0.00 -0.00    +0.000 AC
DOCKED: ENDBRANCH   3   6
DOCKED: ENDBRANCH   1   2
DOCKED: BRANCH   1  12
DOCKED: ATOM     13  C   UNL     1      37.106  14.371 119.439 -0.32 -0.00    +0.000 C 
DOCKED: BRANCH  12  13
DOCKED: ATOM     14  C   UNL     1      37.507  13.044 120.108 -0.47 -0.00    +0.000 C 
DOCKED: BRANCH  13  14
DOCKED: ATOM     15  C   UNL     1      37.298  12.993 121.632 -0.50 -0.00    +0.000 C 
DOCKED: BRANCH  14  15
DOCKED: ATOM     16  C   UNL     1      36.367  11.850 122.073 -0.58 -0.00    +0.000 C 
DOCKED: BRANCH  15  16
DOCKED: ATOM     17  C   UNL     1      37.060  10.875 123.033 -0.62 -0.00    +0.000 C 
DOCKED: BRANCH  16  18
DOCKED: ATOM     18  O   UNL     1      37.050   9.279 121.253 -2.63 -0.00    +0.000 OA
DOCKED: ATOM     19  C   UNL     1      37.064   9.472 122.499 -0.61 -0.00    +0.000 C 
DOCKED: ATOM     20  N   UNL     1      37.054   8.357 123.392 -0.71 -0.00    +0.000 N 
DOCKED: ATOM     21  O   UNL     1      37.043   7.092 122.910 -1.93 -0.00    +0.000 OA
DOCKED: ATOM     22  H   UNL     1      37.055   8.509 124.365 -0.48 -0.00    +0.000 HD
DOCKED: ENDBRANCH  16  18
DOCKED: ENDBRANCH  15  16
DOCKED: ENDBRANCH  14  15
DOCKED: ENDBRANCH  13  14
DOCKED: ENDBRANCH  12  13
DOCKED: ENDBRANCH   1  12
DOCKED: TORSDOF 8DOCKED: TER
DOCKED: ENDMDL
________________________________________________________________________________


	BEGINNING GENETIC ALGORITHM DOCKING 94 of 100
Run: 94 Seed: 2063195267 67205537 [ Run 94 of 100 GA/GALS ]
Beginning LAMARCKIAN GENETIC ALGORITHM (LGA), with a maximum of 2500000 energy evaluations.

Final-Value: -11.945


	FINAL GENETIC ALGORITHM DOCKED STATE
	_______________________________________________


Detailed state:  trans 37.970 14.594 121.060 quatxyzw -0.106640 0.599878 0.788061 0.087942 center 0.003 -0.142 -0.069 ntor 8 -42.4617 -129.5013 -85.9109 123.2070 -12.4417 -41.6698 33.4407 -40.2612
State:	 37.970  14.594 121.060  -0.107  0.602  0.791 169.910    -42.46 -129.50  -85.91  123.21  -12.44  -41.67   33.44  -40.26

DOCKED: MODEL       94
DOCKED: USER    Run = 94
DOCKED: USER    DPF = ligand_dock.biased.dpf
DOCKED: USER  
DOCKED: USER    Estimated Free Energy of Binding    =   -8.88 kcal/mol  [=(1)+(2)+(3)-(4)]
DOCKED: USER    Estimated Inhibition Constant, Ki   =  311.57 nM (nanomolar)  [Temperature = 298.15 K]
DOCKED: USER    
DOCKED: USER    (1) Final Intermolecular Energy     =  -11.26 kcal/mol
DOCKED: USER        vdW + Hbond + desolv Energy     =  -11.26 kcal/mol
DOCKED: USER        Electrostatic Energy            =   +0.00 kcal/mol
DOCKED: USER    (2) Final Total Internal Energy     =   -0.68 kcal/mol
DOCKED: USER    (3) Torsional Free Energy           =   +2.39 kcal/mol
DOCKED: USER    (4) Unbound System's Energy  [=(2)] =   -0.68 kcal/mol
DOCKED: USER    
DOCKED: USER    
DOCKED: USER    NEWDPF move ligand.dum.pdbqt
DOCKED: USER    NEWDPF about 0.003000 -0.142000 -0.069000
DOCKED: USER    NEWDPF tran0 37.970211 14.594436 121.059968
DOCKED: USER    NEWDPF quaternion0 -0.106640 0.599878 0.788061 0.087942
DOCKED: USER    NEWDPF axisangle0 -0.107055 0.602212 0.791126 169.909501
DOCKED: USER    NEWDPF quat0 -0.107055 0.602212 0.791126 169.909501
DOCKED: USER    NEWDPF dihe0 -42.46 -129.50 -85.91 123.21 -12.44 -41.67 33.44 -40.26 
DOCKED: USER  keepresnum = 1 
DOCKED: USER  
DOCKED: REMARK  Name = 
DOCKED: REMARK  8 active torsions:
DOCKED: REMARK  status: ('A' for Active; 'I' for Inactive)
DOCKED: REMARK    1  A    between atoms: C_2  and  C_5
DOCKED: REMARK    2  A    between atoms: C_5  and  C_6
DOCKED: REMARK    3  A    between atoms: C_6  and  C_7
DOCKED: REMARK    4  A    between atoms: C_7  and  C_8
DOCKED: REMARK    5  A    between atoms: C_8  and  C_9
DOCKED: REMARK    6  A    between atoms: C_9  and  C_10
DOCKED: REMARK    7  A    between atoms: C_10  and  C_11
DOCKED: REMARK    8  A    between atoms: N_12  and  C_13
DOCKED: REMARK                            x       y       z     vdW  Elec       q    Type
DOCKED: REMARK                         _______ _______ _______ _____ _____    ______ ____
DOCKED: USER                              x       y       z     vdW  Elec       q    Type
DOCKED: USER                           _______ _______ _______ _____ _____    ______ ____
DOCKED: ROOT
DOCKED: ATOM      1  C   UNL     1      38.268  14.703 120.295 -0.29 -0.00    +0.000 C 
DOCKED: ENDROOT
DOCKED: BRANCH   1   2
DOCKED: ATOM      2  C   UNL     1      39.406  15.646 120.543 -0.22 -0.00    +0.000 C 
DOCKED: ATOM      3  N   UNL     1      40.617  15.165 121.149 -0.24 -0.00    +0.000 N 
DOCKED: ATOM      4  O   UNL     1      39.288  16.857 120.215 -0.10 -0.00    +0.000 OA
DOCKED: ATOM      5  H   UNL     1      40.738  14.191 121.228 -0.01 -0.00    +0.000 HD
DOCKED: BRANCH   3   6
DOCKED: ATOM      6  C   UNL     1      41.663  16.016 121.645 -0.30 -0.00    +0.000 A 
DOCKED: ATOM      7  C   UNL     1      42.218  17.041 120.861 -0.15 -0.00    +0.000 A 
DOCKED: ATOM      8  C   UNL     1      43.215  17.864 121.391 -0.13 -0.00    +0.000 A 
DOCKED: ATOM      9  C   UNL     1      43.639  17.666 122.705 -0.27 -0.00    +0.000 A 
DOCKED: ATOM     10  N   UNL     1      43.077  16.685 123.462 -0.82 -0.00    +0.000 NA
DOCKED: ATOM     11  C   UNL     1      42.106  15.871 122.969 -0.40 -0.00    +0.000 A 
DOCKED: ATOM     12  CM  UNL     1      42.664  16.853 122.207 +0.00 -0.00    +0.000 AC
DOCKED: ENDBRANCH   3   6
DOCKED: ENDBRANCH   1   2
DOCKED: BRANCH   1  12
DOCKED: ATOM     13  C   UNL     1      38.088  13.758 121.489 -0.44 -0.00    +0.000 C 
DOCKED: BRANCH  12  13
DOCKED: ATOM     14  C   UNL     1      37.787  12.307 121.070 -0.42 -0.00    +0.000 C 
DOCKED: BRANCH  13  14
DOCKED: ATOM     15  C   UNL     1      36.314  11.881 121.208 -0.35 -0.00    +0.000 C 
DOCKED: BRANCH  14  15
DOCKED: ATOM     16  C   UNL     1      35.895  11.636 122.668 -0.60 -0.00    +0.000 C 
DOCKED: BRANCH  15  16
DOCKED: ATOM     17  C   UNL     1      36.846  10.674 123.391 -0.61 -0.00    +0.000 C 
DOCKED: BRANCH  16  18
DOCKED: ATOM     18  O   UNL     1      36.841   9.269 121.456 -2.40 -0.00    +0.000 OA
DOCKED: ATOM     19  C   UNL     1      36.910   9.336 122.713 -0.67 -0.00    +0.000 C 
DOCKED: ATOM     20  N   UNL     1      37.019   8.138 123.484 -0.71 -0.00    +0.000 N 
DOCKED: ATOM     21  O   UNL     1      37.062   6.930 122.874 -1.75 -0.00    +0.000 OA
DOCKED: ATOM     22  H   UNL     1      37.063   8.190 124.467 -0.39 -0.00    +0.000 HD
DOCKED: ENDBRANCH  16  18
DOCKED: ENDBRANCH  15  16
DOCKED: ENDBRANCH  14  15
DOCKED: ENDBRANCH  13  14
DOCKED: ENDBRANCH  12  13
DOCKED: ENDBRANCH   1  12
DOCKED: TORSDOF 8DOCKED: TER
DOCKED: ENDMDL
________________________________________________________________________________


	BEGINNING GENETIC ALGORITHM DOCKING 95 of 100
Run: 95 Seed: 128163756 2070050859 [ Run 95 of 100 GA/GALS ]
Beginning LAMARCKIAN GENETIC ALGORITHM (LGA), with a maximum of 2500000 energy evaluations.

Final-Value: -13.832


	FINAL GENETIC ALGORITHM DOCKED STATE
	_______________________________________________


Detailed state:  trans 38.525 14.757 122.677 quatxyzw -0.702340 0.217941 -0.522271 0.431803 center 0.003 -0.142 -0.069 ntor 8 115.3689 33.0067 -159.8941 -134.7056 -132.6624 178.7079 -164.5281 30.7017
State:	 38.525  14.757 122.677  -0.779  0.242 -0.579 128.836    115.37   33.01 -159.89 -134.71 -132.66  178.71 -164.53   30.70

DOCKED: MODEL       95
DOCKED: USER    Run = 95
DOCKED: USER    DPF = ligand_dock.biased.dpf
DOCKED: USER  
DOCKED: USER    Estimated Free Energy of Binding    =  -10.44 kcal/mol  [=(1)+(2)+(3)-(4)]
DOCKED: USER    Estimated Inhibition Constant, Ki   =   22.41 nM (nanomolar)  [Temperature = 298.15 K]
DOCKED: USER    
DOCKED: USER    (1) Final Intermolecular Energy     =  -12.82 kcal/mol
DOCKED: USER        vdW + Hbond + desolv Energy     =  -12.82 kcal/mol
DOCKED: USER        Electrostatic Energy            =   +0.00 kcal/mol
DOCKED: USER    (2) Final Total Internal Energy     =   -1.01 kcal/mol
DOCKED: USER    (3) Torsional Free Energy           =   +2.39 kcal/mol
DOCKED: USER    (4) Unbound System's Energy  [=(2)] =   -1.01 kcal/mol
DOCKED: USER    
DOCKED: USER    
DOCKED: USER    NEWDPF move ligand.dum.pdbqt
DOCKED: USER    NEWDPF about 0.003000 -0.142000 -0.069000
DOCKED: USER    NEWDPF tran0 38.524582 14.757027 122.676957
DOCKED: USER    NEWDPF quaternion0 -0.702340 0.217941 -0.522271 0.431803
DOCKED: USER    NEWDPF axisangle0 -0.778675 0.241628 -0.579035 128.835905
DOCKED: USER    NEWDPF quat0 -0.778675 0.241628 -0.579035 128.835905
DOCKED: USER    NEWDPF dihe0 115.37 33.01 -159.89 -134.71 -132.66 178.71 -164.53 30.70 
DOCKED: USER  keepresnum = 1 
DOCKED: USER  
DOCKED: REMARK  Name = 
DOCKED: REMARK  8 active torsions:
DOCKED: REMARK  status: ('A' for Active; 'I' for Inactive)
DOCKED: REMARK    1  A    between atoms: C_2  and  C_5
DOCKED: REMARK    2  A    between atoms: C_5  and  C_6
DOCKED: REMARK    3  A    between atoms: C_6  and  C_7
DOCKED: REMARK    4  A    between atoms: C_7  and  C_8
DOCKED: REMARK    5  A    between atoms: C_8  and  C_9
DOCKED: REMARK    6  A    between atoms: C_9  and  C_10
DOCKED: REMARK    7  A    between atoms: C_10  and  C_11
DOCKED: REMARK    8  A    between atoms: N_12  and  C_13
DOCKED: REMARK                            x       y       z     vdW  Elec       q    Type
DOCKED: REMARK                         _______ _______ _______ _____ _____    ______ ____
DOCKED: USER                              x       y       z     vdW  Elec       q    Type
DOCKED: USER                           _______ _______ _______ _____ _____    ______ ____
DOCKED: ROOT
DOCKED: ATOM      1  C   UNL     1      38.909  15.273 122.156 -0.36 -0.00    +0.000 C 
DOCKED: ENDROOT
DOCKED: BRANCH   1   2
DOCKED: ATOM      2  C   UNL     1      38.760  14.553 120.850 -0.33 -0.00    +0.000 C 
DOCKED: ATOM      3  N   UNL     1      38.579  15.300 119.636 -0.19 -0.00    +0.000 N 
DOCKED: ATOM      4  O   UNL     1      38.795  13.293 120.832 -0.51 -0.00    +0.000 OA
DOCKED: ATOM      5  H   UNL     1      38.732  16.272 119.665 +0.00 -0.00    +0.000 HD
DOCKED: BRANCH   3   6
DOCKED: ATOM      6  C   UNL     1      38.190  14.716 118.381 -0.19 -0.00    +0.000 A 
DOCKED: ATOM      7  C   UNL     1      38.953  14.894 117.214 -0.13 -0.00    +0.000 A 
DOCKED: ATOM      8  C   UNL     1      38.555  14.288 116.021 -0.32 -0.00    +0.000 A 
DOCKED: ATOM      9  C   UNL     1      37.406  13.497 116.005 -0.37 -0.00    +0.000 A 
DOCKED: ATOM     10  N   UNL     1      36.690  13.313 117.147 -0.38 -0.00    +0.000 NA
DOCKED: ATOM     11  C   UNL     1      37.057  13.892 118.321 -0.35 -0.00    +0.000 A 
DOCKED: ATOM     12  CM  UNL     1      37.779  14.078 117.180 +0.00 -0.00    +0.000 AC
DOCKED: ENDBRANCH   3   6
DOCKED: ENDBRANCH   1   2
DOCKED: BRANCH   1  12
DOCKED: ATOM     13  C   UNL     1      37.692  15.012 123.052 -0.42 -0.00    +0.000 C 
DOCKED: BRANCH  12  13
DOCKED: ATOM     14  C   UNL     1      36.947  13.713 122.692 -0.52 -0.00    +0.000 C 
DOCKED: BRANCH  13  14
DOCKED: ATOM     15  C   UNL     1      36.926  12.646 123.801 -0.56 -0.00    +0.000 C 
DOCKED: BRANCH  14  15
DOCKED: ATOM     16  C   UNL     1      35.886  11.540 123.551 -0.66 -0.00    +0.000 C 
DOCKED: BRANCH  15  16
DOCKED: ATOM     17  C   UNL     1      35.992  10.952 122.139 -0.60 -0.00    +0.000 C 
DOCKED: BRANCH  16  18
DOCKED: ATOM     18  O   UNL     1      37.061   9.111 121.052 -2.73 -0.00    +0.000 OA
DOCKED: ATOM     19  C   UNL     1      36.667   9.612 122.140 -0.69 -0.00    +0.000 C 
DOCKED: ATOM     20  N   UNL     1      36.840   8.889 123.360 -0.61 -0.00    +0.000 N 
DOCKED: ATOM     21  O   UNL     1      37.437   7.673 123.358 -2.50 -0.00    +0.000 OA
DOCKED: ATOM     22  H   UNL     1      36.524   9.277 124.208 -0.43 -0.00    +0.000 HD
DOCKED: ENDBRANCH  16  18
DOCKED: ENDBRANCH  15  16
DOCKED: ENDBRANCH  14  15
DOCKED: ENDBRANCH  13  14
DOCKED: ENDBRANCH  12  13
DOCKED: ENDBRANCH   1  12
DOCKED: TORSDOF 8DOCKED: TER
DOCKED: ENDMDL
________________________________________________________________________________


	BEGINNING GENETIC ALGORITHM DOCKING 96 of 100
Run: 96 Seed: 1723895845 775275569 [ Run 96 of 100 GA/GALS ]
Beginning LAMARCKIAN GENETIC ALGORITHM (LGA), with a maximum of 2500000 energy evaluations.

Final-Value: -13.855


	FINAL GENETIC ALGORITHM DOCKED STATE
	_______________________________________________


Detailed state:  trans 36.467 15.624 122.259 quatxyzw -0.618109 0.046746 0.733024 0.280056 center 0.003 -0.142 -0.069 ntor 8 -115.7973 166.8234 14.5902 74.0057 -175.1496 -104.4329 -31.4671 -169.1370
State:	 36.467  15.624 122.259  -0.644  0.049  0.764 147.473   -115.80  166.82   14.59   74.01 -175.15 -104.43  -31.47 -169.14

DOCKED: MODEL       96
DOCKED: USER    Run = 96
DOCKED: USER    DPF = ligand_dock.biased.dpf
DOCKED: USER  
DOCKED: USER    Estimated Free Energy of Binding    =  -10.74 kcal/mol  [=(1)+(2)+(3)-(4)]
DOCKED: USER    Estimated Inhibition Constant, Ki   =   13.31 nM (nanomolar)  [Temperature = 298.15 K]
DOCKED: USER    
DOCKED: USER    (1) Final Intermolecular Energy     =  -13.13 kcal/mol
DOCKED: USER        vdW + Hbond + desolv Energy     =  -13.13 kcal/mol
DOCKED: USER        Electrostatic Energy            =   +0.00 kcal/mol
DOCKED: USER    (2) Final Total Internal Energy     =   -0.72 kcal/mol
DOCKED: USER    (3) Torsional Free Energy           =   +2.39 kcal/mol
DOCKED: USER    (4) Unbound System's Energy  [=(2)] =   -0.72 kcal/mol
DOCKED: USER    
DOCKED: USER    
DOCKED: USER    NEWDPF move ligand.dum.pdbqt
DOCKED: USER    NEWDPF about 0.003000 -0.142000 -0.069000
DOCKED: USER    NEWDPF tran0 36.467234 15.624388 122.258995
DOCKED: USER    NEWDPF quaternion0 -0.618109 0.046746 0.733024 0.280056
DOCKED: USER    NEWDPF axisangle0 -0.643874 0.048695 0.763580 147.472904
DOCKED: USER    NEWDPF quat0 -0.643874 0.048695 0.763580 147.472904
DOCKED: USER    NEWDPF dihe0 -115.80 166.82 14.59 74.01 -175.15 -104.43 -31.47 -169.14 
DOCKED: USER  keepresnum = 1 
DOCKED: USER  
DOCKED: REMARK  Name = 
DOCKED: REMARK  8 active torsions:
DOCKED: REMARK  status: ('A' for Active; 'I' for Inactive)
DOCKED: REMARK    1  A    between atoms: C_2  and  C_5
DOCKED: REMARK    2  A    between atoms: C_5  and  C_6
DOCKED: REMARK    3  A    between atoms: C_6  and  C_7
DOCKED: REMARK    4  A    between atoms: C_7  and  C_8
DOCKED: REMARK    5  A    between atoms: C_8  and  C_9
DOCKED: REMARK    6  A    between atoms: C_9  and  C_10
DOCKED: REMARK    7  A    between atoms: C_10  and  C_11
DOCKED: REMARK    8  A    between atoms: N_12  and  C_13
DOCKED: REMARK                            x       y       z     vdW  Elec       q    Type
DOCKED: REMARK                         _______ _______ _______ _____ _____    ______ ____
DOCKED: USER                              x       y       z     vdW  Elec       q    Type
DOCKED: USER                           _______ _______ _______ _____ _____    ______ ____
DOCKED: ROOT
DOCKED: ATOM      1  C   UNL     1      36.385  16.439 122.136 -0.27 -0.00    +0.000 C 
DOCKED: ENDROOT
DOCKED: BRANCH   1   2
DOCKED: ATOM      2  C   UNL     1      35.909  16.902 123.480 -0.34 -0.00    +0.000 C 
DOCKED: ATOM      3  N   UNL     1      34.744  16.307 124.073 -0.46 -0.00    +0.000 N 
DOCKED: ATOM      4  O   UNL     1      36.541  17.815 124.078 -0.25 -0.00    +0.000 OA
DOCKED: ATOM      5  H   UNL     1      34.385  15.486 123.662 -0.04 -0.00    +0.000 HD
DOCKED: BRANCH   3   6
DOCKED: ATOM      6  C   UNL     1      34.069  16.832 125.228 -0.41 -0.00    +0.000 A 
DOCKED: ATOM      7  C   UNL     1      33.704  18.186 125.321 -0.33 -0.00    +0.000 A 
DOCKED: ATOM      8  C   UNL     1      33.026  18.650 126.449 -0.26 -0.00    +0.000 A 
DOCKED: ATOM      9  C   UNL     1      32.703  17.756 127.471 -0.27 -0.00    +0.000 A 
DOCKED: ATOM     10  N   UNL     1      33.040  16.443 127.358 -0.94 -0.00    +0.000 NA
DOCKED: ATOM     11  C   UNL     1      33.701  15.967 126.270 -0.18 -0.00    +0.000 A 
DOCKED: ATOM     12  CM  UNL     1      33.364  17.282 126.377 -0.02 -0.00    +0.000 AC
DOCKED: ENDBRANCH   3   6
DOCKED: ENDBRANCH   1   2
DOCKED: BRANCH   1  12
DOCKED: ATOM     13  C   UNL     1      37.335  15.245 122.289 -0.35 -0.00    +0.000 C 
DOCKED: BRANCH  12  13
DOCKED: ATOM     14  C   UNL     1      37.405  14.366 121.027 -0.35 -0.00    +0.000 C 
DOCKED: BRANCH  13  14
DOCKED: ATOM     15  C   UNL     1      38.059  12.987 121.230 -0.43 -0.00    +0.000 C 
DOCKED: BRANCH  14  15
DOCKED: ATOM     16  C   UNL     1      37.135  11.821 120.838 -0.51 -0.00    +0.000 C 
DOCKED: BRANCH  15  16
DOCKED: ATOM     17  C   UNL     1      36.487  11.158 122.060 -0.62 -0.00    +0.000 C 
DOCKED: BRANCH  16  18
DOCKED: ATOM     18  O   UNL     1      36.833   9.012 121.063 -2.65 -0.00    +0.000 OA
DOCKED: ATOM     19  C   UNL     1      36.791   9.689 122.126 -0.66 -0.00    +0.000 C 
DOCKED: ATOM     20  N   UNL     1      37.003   9.049 123.386 -0.59 -0.00    +0.000 N 
DOCKED: ATOM     21  O   UNL     1      37.263   7.722 123.446 -2.64 -0.00    +0.000 OA
DOCKED: ATOM     22  H   UNL     1      36.961   9.577 124.216 -0.55 -0.00    +0.000 HD
DOCKED: ENDBRANCH  16  18
DOCKED: ENDBRANCH  15  16
DOCKED: ENDBRANCH  14  15
DOCKED: ENDBRANCH  13  14
DOCKED: ENDBRANCH  12  13
DOCKED: ENDBRANCH   1  12
DOCKED: TORSDOF 8DOCKED: TER
DOCKED: ENDMDL
________________________________________________________________________________


	BEGINNING GENETIC ALGORITHM DOCKING 97 of 100
Run: 97 Seed: 647005423 977583683 [ Run 97 of 100 GA/GALS ]
Beginning LAMARCKIAN GENETIC ALGORITHM (LGA), with a maximum of 2500000 energy evaluations.

Final-Value: -13.791


	FINAL GENETIC ALGORITHM DOCKED STATE
	_______________________________________________


Detailed state:  trans 39.129 15.334 123.066 quatxyzw 0.335489 -0.261081 0.897421 -0.117982 center 0.003 -0.142 -0.069 ntor 8 -154.7356 168.7316 169.5424 -30.3942 168.7165 -143.1110 -114.8796 82.1574
State:	 39.129  15.334 123.066   0.338 -0.263  0.904 -166.449   -154.74  168.73  169.54  -30.39  168.72 -143.11 -114.88   82.16

DOCKED: MODEL       97
DOCKED: USER    Run = 97
DOCKED: USER    DPF = ligand_dock.biased.dpf
DOCKED: USER  
DOCKED: USER    Estimated Free Energy of Binding    =  -10.78 kcal/mol  [=(1)+(2)+(3)-(4)]
DOCKED: USER    Estimated Inhibition Constant, Ki   =   12.43 nM (nanomolar)  [Temperature = 298.15 K]
DOCKED: USER    
DOCKED: USER    (1) Final Intermolecular Energy     =  -13.17 kcal/mol
DOCKED: USER        vdW + Hbond + desolv Energy     =  -13.17 kcal/mol
DOCKED: USER        Electrostatic Energy            =   +0.00 kcal/mol
DOCKED: USER    (2) Final Total Internal Energy     =   -0.62 kcal/mol
DOCKED: USER    (3) Torsional Free Energy           =   +2.39 kcal/mol
DOCKED: USER    (4) Unbound System's Energy  [=(2)] =   -0.62 kcal/mol
DOCKED: USER    
DOCKED: USER    
DOCKED: USER    NEWDPF move ligand.dum.pdbqt
DOCKED: USER    NEWDPF about 0.003000 -0.142000 -0.069000
DOCKED: USER    NEWDPF tran0 39.128561 15.333924 123.066419
DOCKED: USER    NEWDPF quaternion0 0.335489 -0.261081 0.897421 -0.117982
DOCKED: USER    NEWDPF axisangle0 0.337848 -0.262917 0.903733 -166.448679
DOCKED: USER    NEWDPF quat0 0.337848 -0.262917 0.903733 -166.448679
DOCKED: USER    NEWDPF dihe0 -154.74 168.73 169.54 -30.39 168.72 -143.11 -114.88 82.16 
DOCKED: USER  keepresnum = 1 
DOCKED: USER  
DOCKED: REMARK  Name = 
DOCKED: REMARK  8 active torsions:
DOCKED: REMARK  status: ('A' for Active; 'I' for Inactive)
DOCKED: REMARK    1  A    between atoms: C_2  and  C_5
DOCKED: REMARK    2  A    between atoms: C_5  and  C_6
DOCKED: REMARK    3  A    between atoms: C_6  and  C_7
DOCKED: REMARK    4  A    between atoms: C_7  and  C_8
DOCKED: REMARK    5  A    between atoms: C_8  and  C_9
DOCKED: REMARK    6  A    between atoms: C_9  and  C_10
DOCKED: REMARK    7  A    between atoms: C_10  and  C_11
DOCKED: REMARK    8  A    between atoms: N_12  and  C_13
DOCKED: REMARK                            x       y       z     vdW  Elec       q    Type
DOCKED: REMARK                         _______ _______ _______ _____ _____    ______ ____
DOCKED: USER                              x       y       z     vdW  Elec       q    Type
DOCKED: USER                           _______ _______ _______ _____ _____    ______ ____
DOCKED: ROOT
DOCKED: ATOM      1  C   UNL     1      39.527  16.059 123.073 -0.23 -0.00    +0.000 C 
DOCKED: ENDROOT
DOCKED: BRANCH   1   2
DOCKED: ATOM      2  C   UNL     1      40.883  15.666 122.568 -0.44 -0.00    +0.000 C 
DOCKED: ATOM      3  N   UNL     1      42.001  16.550 122.751 -0.37 -0.00    +0.000 N 
DOCKED: ATOM      4  O   UNL     1      41.027  14.558 121.984 -0.98 -0.00    +0.000 OA
DOCKED: ATOM      5  H   UNL     1      41.888  17.316 123.359 -0.03 -0.00    +0.000 HD
DOCKED: BRANCH   3   6
DOCKED: ATOM      6  C   UNL     1      43.274  16.384 122.105 -0.33 -0.00    +0.000 A 
DOCKED: ATOM      7  C   UNL     1      44.455  16.915 122.649 -0.28 -0.00    +0.000 A 
DOCKED: ATOM      8  C   UNL     1      45.676  16.709 122.004 -0.26 +0.00    +0.000 A 
DOCKED: ATOM      9  C   UNL     1      45.710  15.961 120.827 -0.25 +0.00    +0.000 A 
DOCKED: ATOM     10  N   UNL     1      44.563  15.432 120.322 -0.30 +0.00    +0.000 NA
DOCKED: ATOM     11  C   UNL     1      43.362  15.619 120.932 -0.23 -0.00    +0.000 A 
DOCKED: ATOM     12  CM  UNL     1      44.508  16.150 121.442 +0.00 +0.00    +0.000 AC
DOCKED: ENDBRANCH   3   6
DOCKED: ENDBRANCH   1   2
DOCKED: BRANCH   1  12
DOCKED: ATOM     13  C   UNL     1      38.443  15.186 122.428 -0.37 -0.00    +0.000 C 
DOCKED: BRANCH  12  13
DOCKED: ATOM     14  C   UNL     1      38.429  13.746 122.971 -0.40 -0.00    +0.000 C 
DOCKED: BRANCH  13  14
DOCKED: ATOM     15  C   UNL     1      37.080  13.014 122.841 -0.58 -0.00    +0.000 C 
DOCKED: BRANCH  14  15
DOCKED: ATOM     16  C   UNL     1      37.084  11.940 121.739 -0.56 -0.00    +0.000 C 
DOCKED: BRANCH  15  16
DOCKED: ATOM     17  C   UNL     1      36.052  10.836 122.003 -0.56 -0.00    +0.000 C 
DOCKED: BRANCH  16  18
DOCKED: ATOM     18  O   UNL     1      37.064   8.890 121.049 -2.70 -0.00    +0.000 OA
DOCKED: ATOM     19  C   UNL     1      36.694   9.482 122.100 -0.70 -0.00    +0.000 C 
DOCKED: ATOM     20  N   UNL     1      36.862   8.849 123.369 -0.62 -0.00    +0.000 N 
DOCKED: ATOM     21  O   UNL     1      37.429   7.623 123.455 -2.54 -0.00    +0.000 OA
DOCKED: ATOM     22  H   UNL     1      36.565   9.308 124.188 -0.44 -0.00    +0.000 HD
DOCKED: ENDBRANCH  16  18
DOCKED: ENDBRANCH  15  16
DOCKED: ENDBRANCH  14  15
DOCKED: ENDBRANCH  13  14
DOCKED: ENDBRANCH  12  13
DOCKED: ENDBRANCH   1  12
DOCKED: TORSDOF 8DOCKED: TER
DOCKED: ENDMDL
________________________________________________________________________________


	BEGINNING GENETIC ALGORITHM DOCKING 98 of 100
Run: 98 Seed: 644257330 541038919 [ Run 98 of 100 GA/GALS ]
Beginning LAMARCKIAN GENETIC ALGORITHM (LGA), with a maximum of 2500000 energy evaluations.

Final-Value: -14.292


	FINAL GENETIC ALGORITHM DOCKED STATE
	_______________________________________________


Detailed state:  trans 38.946 13.959 122.301 quatxyzw 0.812572 -0.164647 0.355794 -0.431311 center 0.003 -0.142 -0.069 ntor 8 138.0198 113.3403 69.9198 94.6469 18.4243 -152.5206 130.6930 47.7201
State:	 38.946  13.959 122.301   0.901 -0.182  0.394 -128.898    138.02  113.34   69.92   94.65   18.42 -152.52  130.69   47.72

DOCKED: MODEL       98
DOCKED: USER    Run = 98
DOCKED: USER    DPF = ligand_dock.biased.dpf
DOCKED: USER  
DOCKED: USER    Estimated Free Energy of Binding    =  -10.60 kcal/mol  [=(1)+(2)+(3)-(4)]
DOCKED: USER    Estimated Inhibition Constant, Ki   =   17.07 nM (nanomolar)  [Temperature = 298.15 K]
DOCKED: USER    
DOCKED: USER    (1) Final Intermolecular Energy     =  -12.98 kcal/mol
DOCKED: USER        vdW + Hbond + desolv Energy     =  -12.98 kcal/mol
DOCKED: USER        Electrostatic Energy            =   +0.00 kcal/mol
DOCKED: USER    (2) Final Total Internal Energy     =   -1.31 kcal/mol
DOCKED: USER    (3) Torsional Free Energy           =   +2.39 kcal/mol
DOCKED: USER    (4) Unbound System's Energy  [=(2)] =   -1.31 kcal/mol
DOCKED: USER    
DOCKED: USER    
DOCKED: USER    NEWDPF move ligand.dum.pdbqt
DOCKED: USER    NEWDPF about 0.003000 -0.142000 -0.069000
DOCKED: USER    NEWDPF tran0 38.946025 13.958615 122.300893
DOCKED: USER    NEWDPF quaternion0 0.812572 -0.164647 0.355794 -0.431311
DOCKED: USER    NEWDPF axisangle0 0.900653 -0.182494 0.394361 -128.898385
DOCKED: USER    NEWDPF quat0 0.900653 -0.182494 0.394361 -128.898385
DOCKED: USER    NEWDPF dihe0 138.02 113.34 69.92 94.65 18.42 -152.52 130.69 47.72 
DOCKED: USER  keepresnum = 1 
DOCKED: USER  
DOCKED: REMARK  Name = 
DOCKED: REMARK  8 active torsions:
DOCKED: REMARK  status: ('A' for Active; 'I' for Inactive)
DOCKED: REMARK    1  A    between atoms: C_2  and  C_5
DOCKED: REMARK    2  A    between atoms: C_5  and  C_6
DOCKED: REMARK    3  A    between atoms: C_6  and  C_7
DOCKED: REMARK    4  A    between atoms: C_7  and  C_8
DOCKED: REMARK    5  A    between atoms: C_8  and  C_9
DOCKED: REMARK    6  A    between atoms: C_9  and  C_10
DOCKED: REMARK    7  A    between atoms: C_10  and  C_11
DOCKED: REMARK    8  A    between atoms: N_12  and  C_13
DOCKED: REMARK                            x       y       z     vdW  Elec       q    Type
DOCKED: REMARK                         _______ _______ _______ _____ _____    ______ ____
DOCKED: USER                              x       y       z     vdW  Elec       q    Type
DOCKED: USER                           _______ _______ _______ _____ _____    ______ ____
DOCKED: ROOT
DOCKED: ATOM      1  C   UNL     1      39.122  14.531 121.730 -0.39 -0.00    +0.000 C 
DOCKED: ENDROOT
DOCKED: BRANCH   1   2
DOCKED: ATOM      2  C   UNL     1      38.451  13.965 120.515 -0.35 -0.00    +0.000 C 
DOCKED: ATOM      3  N   UNL     1      38.175  14.812 119.387 -0.22 -0.00    +0.000 N 
DOCKED: ATOM      4  O   UNL     1      38.133  12.745 120.497 -0.49 -0.00    +0.000 OA
DOCKED: ATOM      5  H   UNL     1      38.591  15.705 119.368 -0.00 -0.00    +0.000 HD
DOCKED: BRANCH   3   6
DOCKED: ATOM      6  C   UNL     1      37.333  14.438 118.285 -0.28 -0.00    +0.000 A 
DOCKED: ATOM      7  C   UNL     1      36.034  14.953 118.137 -0.23 -0.00    +0.000 A 
DOCKED: ATOM      8  C   UNL     1      35.257  14.585 117.037 -0.29 -0.00    +0.000 A 
DOCKED: ATOM      9  C   UNL     1      35.790  13.717 116.083 -0.24 -0.00    +0.000 A 
DOCKED: ATOM     10  N   UNL     1      37.057  13.244 116.224 -0.37 -0.00    +0.000 NA
DOCKED: ATOM     11  C   UNL     1      37.833  13.587 117.287 -0.32 -0.00    +0.000 A 
DOCKED: ATOM     12  CM  UNL     1      36.564  14.065 117.149 +0.00 -0.00    +0.000 AC
DOCKED: ENDBRANCH   3   6
DOCKED: ENDBRANCH   1   2
DOCKED: BRANCH   1  12
DOCKED: ATOM     13  C   UNL     1      38.334  14.167 122.994 -0.45 -0.00    +0.000 C 
DOCKED: BRANCH  12  13
DOCKED: ATOM     14  C   UNL     1      36.810  14.291 122.810 -0.48 -0.00    +0.000 C 
DOCKED: BRANCH  13  14
DOCKED: ATOM     15  C   UNL     1      35.974  13.264 123.596 -0.60 -0.00    +0.000 C 
DOCKED: BRANCH  14  15
DOCKED: ATOM     16  C   UNL     1      36.546  11.838 123.518 -0.70 -0.00    +0.000 C 
DOCKED: BRANCH  15  16
DOCKED: ATOM     17  C   UNL     1      36.165  11.131 122.211 -0.63 -0.00    +0.000 C 
DOCKED: BRANCH  16  18
DOCKED: ATOM     18  O   UNL     1      37.059   9.216 121.094 -2.74 -0.00    +0.000 OA
DOCKED: ATOM     19  C   UNL     1      36.654   9.713 122.180 -0.69 -0.00    +0.000 C 
DOCKED: ATOM     20  N   UNL     1      36.637   8.914 123.364 -0.60 -0.00    +0.000 N 
DOCKED: ATOM     21  O   UNL     1      37.066   7.630 123.332 -2.58 -0.00    +0.000 OA
DOCKED: ATOM     22  H   UNL     1      36.312   9.299 124.210 -0.35 -0.00    +0.000 HD
DOCKED: ENDBRANCH  16  18
DOCKED: ENDBRANCH  15  16
DOCKED: ENDBRANCH  14  15
DOCKED: ENDBRANCH  13  14
DOCKED: ENDBRANCH  12  13
DOCKED: ENDBRANCH   1  12
DOCKED: TORSDOF 8DOCKED: TER
DOCKED: ENDMDL
________________________________________________________________________________


	BEGINNING GENETIC ALGORITHM DOCKING 99 of 100
Run: 99 Seed: 242772561 479312387 [ Run 99 of 100 GA/GALS ]
Beginning LAMARCKIAN GENETIC ALGORITHM (LGA), with a maximum of 2500000 energy evaluations.

Final-Value: -13.495


	FINAL GENETIC ALGORITHM DOCKED STATE
	_______________________________________________


Detailed state:  trans 36.175 12.045 121.312 quatxyzw 0.388815 0.582830 -0.566971 0.433216 center 0.003 -0.142 -0.069 ntor 8 -169.9522 -119.9017 178.9070 -58.8873 -57.2796 32.3654 52.4911 135.9529
State:	 36.175  12.045 121.312   0.431  0.647 -0.629 128.656   -169.95 -119.90  178.91  -58.89  -57.28   32.37   52.49  135.95

DOCKED: MODEL       99
DOCKED: USER    Run = 99
DOCKED: USER    DPF = ligand_dock.biased.dpf
DOCKED: USER  
DOCKED: USER    Estimated Free Energy of Binding    =   -9.91 kcal/mol  [=(1)+(2)+(3)-(4)]
DOCKED: USER    Estimated Inhibition Constant, Ki   =   54.19 nM (nanomolar)  [Temperature = 298.15 K]
DOCKED: USER    
DOCKED: USER    (1) Final Intermolecular Energy     =  -12.30 kcal/mol
DOCKED: USER        vdW + Hbond + desolv Energy     =  -12.30 kcal/mol
DOCKED: USER        Electrostatic Energy            =   +0.00 kcal/mol
DOCKED: USER    (2) Final Total Internal Energy     =   -1.20 kcal/mol
DOCKED: USER    (3) Torsional Free Energy           =   +2.39 kcal/mol
DOCKED: USER    (4) Unbound System's Energy  [=(2)] =   -1.20 kcal/mol
DOCKED: USER    
DOCKED: USER    
DOCKED: USER    NEWDPF move ligand.dum.pdbqt
DOCKED: USER    NEWDPF about 0.003000 -0.142000 -0.069000
DOCKED: USER    NEWDPF tran0 36.175353 12.044935 121.311899
DOCKED: USER    NEWDPF quaternion0 0.388815 0.582830 -0.566971 0.433216
DOCKED: USER    NEWDPF axisangle0 0.431398 0.646662 -0.629066 128.656293
DOCKED: USER    NEWDPF quat0 0.431398 0.646662 -0.629066 128.656293
DOCKED: USER    NEWDPF dihe0 -169.95 -119.90 178.91 -58.89 -57.28 32.37 52.49 135.95 
DOCKED: USER  keepresnum = 1 
DOCKED: USER  
DOCKED: REMARK  Name = 
DOCKED: REMARK  8 active torsions:
DOCKED: REMARK  status: ('A' for Active; 'I' for Inactive)
DOCKED: REMARK    1  A    between atoms: C_2  and  C_5
DOCKED: REMARK    2  A    between atoms: C_5  and  C_6
DOCKED: REMARK    3  A    between atoms: C_6  and  C_7
DOCKED: REMARK    4  A    between atoms: C_7  and  C_8
DOCKED: REMARK    5  A    between atoms: C_8  and  C_9
DOCKED: REMARK    6  A    between atoms: C_9  and  C_10
DOCKED: REMARK    7  A    between atoms: C_10  and  C_11
DOCKED: REMARK    8  A    between atoms: N_12  and  C_13
DOCKED: REMARK                            x       y       z     vdW  Elec       q    Type
DOCKED: REMARK                         _______ _______ _______ _____ _____    ______ ____
DOCKED: USER                              x       y       z     vdW  Elec       q    Type
DOCKED: USER                           _______ _______ _______ _____ _____    ______ ____
DOCKED: ROOT
DOCKED: ATOM      1  C   UNL     1      36.459  11.809 122.053 -0.59 -0.00    +0.000 C 
DOCKED: ENDROOT
DOCKED: BRANCH   1   2
DOCKED: ATOM      2  C   UNL     1      36.306  10.320 121.976 -0.57 -0.00    +0.000 C 
DOCKED: ATOM      3  N   UNL     1      35.305   9.660 122.769 -0.60 -0.00    +0.000 N 
DOCKED: ATOM      4  O   UNL     1      37.061   9.659 121.213 -2.31 -0.00    +0.000 OA
DOCKED: ATOM      5  H   UNL     1      34.627  10.218 123.213 -0.37 -0.00    +0.000 HD
DOCKED: BRANCH   3   6
DOCKED: ATOM      6  C   UNL     1      35.233   8.236 122.953 -0.61 -0.00    +0.000 A 
DOCKED: ATOM      7  C   UNL     1      34.004   7.569 123.089 -0.64 -0.00    +0.000 A 
DOCKED: ATOM      8  C   UNL     1      33.975   6.181 123.239 -0.64 -0.00    +0.000 A 
DOCKED: ATOM      9  C   UNL     1      35.174   5.467 123.238 -0.55 -0.00    +0.000 A 
DOCKED: ATOM     10  N   UNL     1      36.356   6.122 123.082 -1.00 -0.00    +0.000 NA
DOCKED: ATOM     11  C   UNL     1      36.410   7.473 122.934 -0.70 -0.00    +0.000 A 
DOCKED: ATOM     12  CM  UNL     1      35.223   6.822 123.088 +0.00 -0.00    +0.000 AC
DOCKED: ENDBRANCH   3   6
DOCKED: ENDBRANCH   1   2
DOCKED: BRANCH   1  12
DOCKED: ATOM     13  C   UNL     1      36.784  12.384 120.669 -0.44 -0.00    +0.000 C 
DOCKED: BRANCH  12  13
DOCKED: ATOM     14  C   UNL     1      38.134  13.123 120.625 -0.44 -0.00    +0.000 C 
DOCKED: BRANCH  13  14
DOCKED: ATOM     15  C   UNL     1      38.569  13.763 121.957 -0.37 -0.00    +0.000 C 
DOCKED: BRANCH  14  15
DOCKED: ATOM     16  C   UNL     1      38.742  15.288 121.861 -0.33 -0.00    +0.000 C 
DOCKED: BRANCH  15  16
DOCKED: ATOM     17  C   UNL     1      37.921  16.033 122.921 -0.31 -0.00    +0.000 C 
DOCKED: BRANCH  16  18
DOCKED: ATOM     18  O   UNL     1      35.630  16.163 122.248 -0.31 -0.00    +0.000 OA
DOCKED: ATOM     19  C   UNL     1      36.494  15.570 122.950 -0.39 -0.00    +0.000 C 
DOCKED: ATOM     20  N   UNL     1      36.102  14.481 123.789 -0.50 -0.00    +0.000 N 
DOCKED: ATOM     21  O   UNL     1      34.812  14.073 123.825 -0.59 -0.00    +0.000 OA
DOCKED: ATOM     22  H   UNL     1      36.775  14.024 124.344 -0.04 -0.00    +0.000 HD
DOCKED: ENDBRANCH  16  18
DOCKED: ENDBRANCH  15  16
DOCKED: ENDBRANCH  14  15
DOCKED: ENDBRANCH  13  14
DOCKED: ENDBRANCH  12  13
DOCKED: ENDBRANCH   1  12
DOCKED: TORSDOF 8DOCKED: TER
DOCKED: ENDMDL
________________________________________________________________________________


	BEGINNING GENETIC ALGORITHM DOCKING 100 of 100
Run: 100 Seed: 612646478 1978891902 [ Run 100 of 100 GA/GALS ]
Beginning LAMARCKIAN GENETIC ALGORITHM (LGA), with a maximum of 2500000 energy evaluations.

Final-Value: -13.646


	FINAL GENETIC ALGORITHM DOCKED STATE
	_______________________________________________


Detailed state:  trans 38.593 15.268 121.263 quatxyzw 0.783150 -0.115323 -0.210115 0.573785 center 0.003 -0.142 -0.069 ntor 8 -178.1769 39.2835 -171.8678 50.3410 -78.8695 140.9598 88.2834 100.8138
State:	 38.593  15.268 121.263   0.956 -0.141 -0.257 109.971   -178.18   39.28 -171.87   50.34  -78.87  140.96   88.28  100.81

DOCKED: MODEL      100
DOCKED: USER    Run = 100
DOCKED: USER    DPF = ligand_dock.biased.dpf
DOCKED: USER  
DOCKED: USER    Estimated Free Energy of Binding    =  -10.37 kcal/mol  [=(1)+(2)+(3)-(4)]
DOCKED: USER    Estimated Inhibition Constant, Ki   =   24.91 nM (nanomolar)  [Temperature = 298.15 K]
DOCKED: USER    
DOCKED: USER    (1) Final Intermolecular Energy     =  -12.76 kcal/mol
DOCKED: USER        vdW + Hbond + desolv Energy     =  -12.76 kcal/mol
DOCKED: USER        Electrostatic Energy            =   +0.00 kcal/mol
DOCKED: USER    (2) Final Total Internal Energy     =   -0.89 kcal/mol
DOCKED: USER    (3) Torsional Free Energy           =   +2.39 kcal/mol
DOCKED: USER    (4) Unbound System's Energy  [=(2)] =   -0.89 kcal/mol
DOCKED: USER    
DOCKED: USER    
DOCKED: USER    NEWDPF move ligand.dum.pdbqt
DOCKED: USER    NEWDPF about 0.003000 -0.142000 -0.069000
DOCKED: USER    NEWDPF tran0 38.593375 15.267816 121.262772
DOCKED: USER    NEWDPF quaternion0 0.783150 -0.115323 -0.210115 0.573785
DOCKED: USER    NEWDPF axisangle0 0.956220 -0.140809 -0.256548 109.970890
DOCKED: USER    NEWDPF quat0 0.956220 -0.140809 -0.256548 109.970890
DOCKED: USER    NEWDPF dihe0 -178.18 39.28 -171.87 50.34 -78.87 140.96 88.28 100.81 
DOCKED: USER  keepresnum = 1 
DOCKED: USER  
DOCKED: REMARK  Name = 
DOCKED: REMARK  8 active torsions:
DOCKED: REMARK  status: ('A' for Active; 'I' for Inactive)
DOCKED: REMARK    1  A    between atoms: C_2  and  C_5
DOCKED: REMARK    2  A    between atoms: C_5  and  C_6
DOCKED: REMARK    3  A    between atoms: C_6  and  C_7
DOCKED: REMARK    4  A    between atoms: C_7  and  C_8
DOCKED: REMARK    5  A    between atoms: C_8  and  C_9
DOCKED: REMARK    6  A    between atoms: C_9  and  C_10
DOCKED: REMARK    7  A    between atoms: C_10  and  C_11
DOCKED: REMARK    8  A    between atoms: N_12  and  C_13
DOCKED: REMARK                            x       y       z     vdW  Elec       q    Type
DOCKED: REMARK                         _______ _______ _______ _____ _____    ______ ____
DOCKED: USER                              x       y       z     vdW  Elec       q    Type
DOCKED: USER                           _______ _______ _______ _____ _____    ______ ____
DOCKED: ROOT
DOCKED: ATOM      1  C   UNL     1      38.714  15.323 122.080 -0.34 -0.00    +0.000 C 
DOCKED: ENDROOT
DOCKED: BRANCH   1   2
DOCKED: ATOM      2  C   UNL     1      37.385  15.834 122.549 -0.31 -0.00    +0.000 C 
DOCKED: ATOM      3  N   UNL     1      37.318  16.750 123.653 -0.26 -0.00    +0.000 N 
DOCKED: ATOM      4  O   UNL     1      36.335  15.449 121.966 -0.30 -0.00    +0.000 OA
DOCKED: ATOM      5  H   UNL     1      38.157  17.160 123.965 -0.02 -0.00    +0.000 HD
DOCKED: BRANCH   3   6
DOCKED: ATOM      6  C   UNL     1      36.102  17.109 124.330 -0.26 -0.00    +0.000 A 
DOCKED: ATOM      7  C   UNL     1      35.819  18.438 124.691 -0.22 -0.00    +0.000 A 
DOCKED: ATOM      8  C   UNL     1      34.614  18.749 125.324 -0.26 -0.00    +0.000 A 
DOCKED: ATOM      9  C   UNL     1      33.693  17.732 125.578 -0.34 -0.00    +0.000 A 
DOCKED: ATOM     10  N   UNL     1      33.967  16.454 125.203 -0.48 -0.00    +0.000 NA
DOCKED: ATOM     11  C   UNL     1      35.133  16.127 124.586 -0.42 -0.00    +0.000 A 
DOCKED: ATOM     12  CM  UNL     1      34.863  17.409 124.958 -0.45 -0.00    +0.000 AC
DOCKED: ENDBRANCH   3   6
DOCKED: ENDBRANCH   1   2
DOCKED: BRANCH   1  12
DOCKED: ATOM     13  C   UNL     1      38.535  14.412 120.859 -0.34 -0.00    +0.000 C 
DOCKED: BRANCH  12  13
DOCKED: ATOM     14  C   UNL     1      38.191  12.960 121.237 -0.39 -0.00    +0.000 C 
DOCKED: BRANCH  13  14
DOCKED: ATOM     15  C   UNL     1      36.716  12.715 121.605 -0.48 -0.00    +0.000 C 
DOCKED: BRANCH  14  15
DOCKED: ATOM     16  C   UNL     1      36.545  11.731 122.775 -0.67 -0.00    +0.000 C 
DOCKED: BRANCH  15  16
DOCKED: ATOM     17  C   UNL     1      35.635  10.551 122.413 -0.64 -0.00    +0.000 C 
DOCKED: BRANCH  16  18
DOCKED: ATOM     18  O   UNL     1      36.725   8.839 121.149 -2.62 -0.00    +0.000 OA
DOCKED: ATOM     19  C   UNL     1      36.405   9.268 122.291 -0.71 -0.00    +0.000 C 
DOCKED: ATOM     20  N   UNL     1      36.751   8.516 123.456 -0.65 -0.00    +0.000 N 
DOCKED: ATOM     21  O   UNL     1      37.433   7.352 123.344 -2.26 -0.00    +0.000 OA
DOCKED: ATOM     22  H   UNL     1      36.493   8.848 124.346 -0.34 -0.00    +0.000 HD
DOCKED: ENDBRANCH  16  18
DOCKED: ENDBRANCH  15  16
DOCKED: ENDBRANCH  14  15
DOCKED: ENDBRANCH  13  14
DOCKED: ENDBRANCH  12  13
DOCKED: ENDBRANCH   1  12
DOCKED: TORSDOF 8DOCKED: TER
DOCKED: ENDMDL
________________________________________________________________________________

DPF> analysis                             # perform a ranked cluster analysis


		CLUSTER ANALYSIS OF CONFORMATIONS
		_________________________________

Number of conformations = 100

RMSD cluster analysis will be performed using the ligand atoms only (22 / 22 total atoms).

Outputting structurally similar clusters, ranked in order of increasing energy.


________________________________________________________________________________

Number of distinct conformational clusters found = 17,  out of 100 runs,
Using an rmsd-tolerance of 2.0 A


	CLUSTERING HISTOGRAM
	____________________

________________________________________________________________________________
     |           |     |           |     |                                    
Clus | Lowest    | Run | Mean      | Num | Histogram                          
-ter | Binding   |     | Binding   | in  |                                    
Rank | Energy    |     | Energy    | Clus|    5    10   15   20   25   30   35
_____|___________|_____|___________|_____|____:____|____:____|____:____|____:___
   1 |    -11.35 |  27 |    -10.57 |  25 |#########################
   2 |    -11.26 |   5 |    -10.24 |   6 |######
   3 |    -10.98 |   8 |    -10.46 |   9 |#########
   4 |    -10.82 |  25 |    -10.14 |  16 |################
   5 |    -10.78 |  97 |    -10.05 |  10 |##########
   6 |    -10.76 |  54 |    -10.34 |   9 |#########
   7 |    -10.45 |  84 |    -10.24 |   3 |###
   8 |    -10.19 |  50 |     -9.67 |   6 |######
   9 |    -10.10 |  90 |    -10.00 |   2 |##
  10 |     -9.92 |  15 |     -9.54 |   2 |##
  11 |     -9.86 |  36 |     -9.86 |   1 |#
  12 |     -9.72 |  93 |     -9.72 |   1 |#
  13 |     -9.70 |  42 |     -9.60 |   3 |###
  14 |     -9.36 |  82 |     -9.36 |   1 |#
  15 |     -9.13 |  79 |     -8.99 |   3 |###
  16 |     -9.09 |  12 |     -9.09 |   1 |#
  17 |     -8.89 |   7 |     -8.79 |   2 |##
_____|___________|_____|___________|_____|______________________________________


Number of multi-member conformational clusters found = 13, out of 100 runs.

	RMSD TABLE
	__________

_____________________________________________________________________
     |      |      |           |         |                 |
Rank | Sub- | Run  | Binding   | Cluster | Reference       | Grep
     | Rank |      | Energy    | RMSD    | RMSD            | Pattern
_____|______|______|___________|_________|_________________|___________
   1      1     27      -11.35      0.00    128.61           RANKING
   1      2     71      -11.07      1.23    129.04           RANKING
   1      3     51      -11.02      0.94    128.47           RANKING
   1      4     88      -10.99      1.92    129.65           RANKING
   1      5     76      -10.92      1.85    129.60           RANKING
   1      6     24      -10.89      1.43    129.17           RANKING
   1      7     56      -10.89      1.34    128.36           RANKING
   1      8     32      -10.81      0.97    128.83           RANKING
   1      9     96      -10.74      1.09    128.65           RANKING
   1     10     47      -10.74      1.01    128.32           RANKING
   1     11     91      -10.63      1.50    129.32           RANKING
   1     12     92      -10.55      1.71    127.67           RANKING
   1     13     13      -10.53      1.48    127.94           RANKING
   1     14     75      -10.49      1.16    128.05           RANKING
   1     15     33      -10.48      1.85    128.10           RANKING
   1     16     81      -10.43      1.99    128.06           RANKING
   1     17    100      -10.37      1.51    128.37           RANKING
   1     18      4      -10.37      1.35    128.41           RANKING
   1     19     63      -10.35      1.30    128.35           RANKING
   1     20     28      -10.32      1.42    129.19           RANKING
   1     21     46      -10.20      1.76    128.64           RANKING
   1     22     73      -10.19      1.64    127.92           RANKING
   1     23     18      -10.19      1.74    128.12           RANKING
   1     24     26      -10.07      1.90    128.27           RANKING
   1     25     10       -9.79      1.73    128.86           RANKING
   2      1      5      -11.26      0.00    128.28           RANKING
   2      2     65      -10.22      1.81    128.39           RANKING
   2      3     19      -10.19      1.65    128.57           RANKING
   2      4     45      -10.11      1.42    127.68           RANKING
   2      5     17      -10.01      1.41    127.83           RANKING
   2      6     87       -9.64      1.55    128.52           RANKING
   3      1      8      -10.98      0.00    127.71           RANKING
   3      2     69      -10.63      1.07    127.75           RANKING
   3      3     64      -10.63      1.23    127.04           RANKING
   3      4     40      -10.63      0.67    127.88           RANKING
   3      5     16      -10.61      0.91    127.45           RANKING
   3      6     20      -10.53      1.29    127.53           RANKING
   3      7     53      -10.16      1.10    128.02           RANKING
   3      8     68      -10.01      1.36    127.89           RANKING
   3      9     72       -9.91      1.39    126.98           RANKING
   4      1     25      -10.82      0.00    125.62           RANKING
   4      2     98      -10.60      1.21    125.76           RANKING
   4      3     22      -10.59      0.98    125.24           RANKING
   4      4     57      -10.58      1.43    126.17           RANKING
   4      5     83      -10.48      0.51    125.47           RANKING
   4      6     95      -10.44      1.48    126.00           RANKING
   4      7     21      -10.35      0.85    125.48           RANKING
   4      8     86      -10.28      1.14    125.30           RANKING
   4      9     48      -10.24      1.42    125.29           RANKING
   4     10     58      -10.20      1.97    124.50           RANKING
   4     11      6      -10.12      1.16    125.93           RANKING
   4     12     80      -10.08      1.26    125.66           RANKING
   4     13     55      -10.01      1.07    125.95           RANKING
   4     14     39       -9.87      1.42    125.65           RANKING
   4     15     41       -8.94      2.00    124.41           RANKING
   4     16     34       -8.70      1.28    125.23           RANKING
   5      1     97      -10.78      0.00    128.66           RANKING
   5      2     38      -10.69      1.89    128.40           RANKING
   5      3     78      -10.62      0.87    128.42           RANKING
   5      4     23      -10.15      1.71    128.34           RANKING
   5      5     66      -10.15      1.83    128.49           RANKING
   5      6     74      -10.09      1.57    128.36           RANKING
   5      7      9       -9.79      1.56    128.39           RANKING
   5      8     85       -9.70      1.07    128.33           RANKING
   5      9     31       -9.68      1.24    128.65           RANKING
   5     10     94       -8.88      1.97    128.02           RANKING
   6      1     54      -10.76      0.00    127.97           RANKING
   6      2     35      -10.61      1.02    128.11           RANKING
   6      3      3      -10.59      1.27    128.11           RANKING
   6      4     67      -10.43      1.37    128.34           RANKING
   6      5     44      -10.39      1.26    128.43           RANKING
   6      6      2      -10.37      1.46    128.40           RANKING
   6      7     29      -10.08      1.78    128.51           RANKING
   6      8     59       -9.98      1.41    128.01           RANKING
   6      9     43       -9.86      1.20    127.76           RANKING
   7      1     84      -10.45      0.00    126.59           RANKING
   7      2     14      -10.17      1.09    126.83           RANKING
   7      3     70      -10.10      1.56    127.28           RANKING
   8      1     50      -10.19      0.00    125.35           RANKING
   8      2     30       -9.92      1.96    126.27           RANKING
   8      3     61       -9.66      1.40    125.84           RANKING
   8      4     49       -9.62      1.72    125.55           RANKING
   8      5     11       -9.51      1.57    125.95           RANKING
   8      6     52       -9.12      1.53    125.75           RANKING
   9      1     90      -10.10      0.00    127.00           RANKING
   9      2     99       -9.91      1.76    127.40           RANKING
  10      1     15       -9.92      0.00    124.20           RANKING
  10      2     37       -9.17      1.94    123.80           RANKING
  11      1     36       -9.86      0.00    129.10           RANKING
  12      1     93       -9.72      0.00    123.64           RANKING
  13      1     42       -9.70      0.00    128.79           RANKING
  13      2     62       -9.70      1.24    128.51           RANKING
  13      3     60       -9.39      0.73    128.96           RANKING
  14      1     82       -9.36      0.00    129.50           RANKING
  15      1     79       -9.13      0.00    127.26           RANKING
  15      2      1       -9.07      1.86    127.58           RANKING
  15      3     89       -8.77      1.70    126.69           RANKING
  16      1     12       -9.09      0.00    128.25           RANKING
  17      1      7       -8.89      0.00    127.68           RANKING
  17      2     77       -8.69      1.12    127.96           RANKING
_______________________________________________________________________



	INFORMATION ENTROPY ANALYSIS FOR THIS CLUSTERING
	________________________________________________


Information entropy for this clustering = 0.52  (rmstol = 2.00 Angstrom)

_______________________________________________________________________


	STATISTICAL MECHANICAL ANALYSIS
	_______________________________


Partition function, Q =   101.73            at Temperature, T = 298.15 K
Free energy,        A ~ -2738.63 kcal/mol   at Temperature, T = 298.15 K
Internal energy,    U =   -10.15 kcal/mol   at Temperature, T = 298.15 K
Entropy,            S =     9.15 kcal/mol/K at Temperature, T = 298.15 K

_______________________________________________________________________


	LOWEST ENERGY DOCKED CONFORMATION from EACH CLUSTER
	___________________________________________________



Keeping original residue number (specified in the input PDBQ file) for outputting.

MODEL       27
USER    Run = 27
USER    Cluster Rank = 1
USER    Number of conformations in this cluster = 25
USER  
USER    RMSD from reference structure       = 128.609 A
USER  
USER    Estimated Free Energy of Binding    =  -11.35 kcal/mol  [=(1)+(2)+(3)-(4)]
USER    Estimated Inhibition Constant, Ki   =    4.78 nM (nanomolar)  [Temperature = 298.15 K]
USER    
USER    (1) Final Intermolecular Energy     =  -13.74 kcal/mol
USER        vdW + Hbond + desolv Energy     =  -13.74 kcal/mol
USER        Electrostatic Energy            =   +0.00 kcal/mol
USER    (2) Final Total Internal Energy     =   -0.82 kcal/mol
USER    (3) Torsional Free Energy           =   +2.39 kcal/mol
USER    (4) Unbound System's Energy  [=(2)] =   -0.82 kcal/mol
USER    
USER    
USER  
USER    DPF = ligand_dock.biased.dpf
USER    NEWDPF move	ligand.dum.pdbqt
USER    NEWDPF about	0.003000 -0.142000 -0.069000
USER    NEWDPF tran0	37.065395 14.672726 121.944518
USER    NEWDPF axisangle0	-0.685530 -0.082115 0.723399 133.621739
USER    NEWDPF quaternion0	-0.630146 -0.075481 0.664955 0.393768
USER    NEWDPF dihe0	137.05 45.17 90.67 -179.63 -151.63 -22.25 -109.39 94.71 
USER  
USER                              x       y       z    vdW   Elec        q     RMS 
ATOM      1  C   UNL     1      36.704  15.411 121.847 -0.26 -0.00    +0.000    128.609
ATOM      2  C   UNL     1      36.075  15.621 123.192 -0.42 -0.00    +0.000    128.609
ATOM      3  N   UNL     1      34.879  16.408 123.309 -0.41 -0.00    +0.000    128.609
ATOM      4  O   UNL     1      36.607  15.101 124.210 -0.45 -0.00    +0.000    128.609
ATOM      5  H   UNL     1      34.401  16.647 122.482 -0.03 -0.00    +0.000    128.609
ATOM      6  C   UNL     1      34.336  16.868 124.558 -0.43 -0.00    +0.000    128.609
ATOM      7  C   UNL     1      34.063  18.226 124.792 -0.33 -0.00    +0.000    128.609
ATOM      8  C   UNL     1      33.510  18.628 126.009 -0.29 -0.00    +0.000    128.609
ATOM      9  C   UNL     1      33.219  17.668 126.979 -0.30 -0.00    +0.000    128.609
ATOM     10  N   UNL     1      33.465  16.354 126.732 -0.94 -0.00    +0.000    128.609
ATOM     11  C   UNL     1      34.003  15.937 125.555 -0.36 -0.00    +0.000    128.609
ATOM     12  CM  UNL     1      33.757  17.255 125.797 -0.11 -0.00    +0.000    128.609
ATOM     13  C   UNL     1      38.011  14.621 121.987 -0.40 -0.00    +0.000    128.609
ATOM     14  C   UNL     1      37.784  13.111 122.182 -0.48 -0.00    +0.000    128.609
ATOM     15  C   UNL     1      37.497  12.677 123.631 -0.44 -0.00    +0.000    128.609
ATOM     16  C   UNL     1      36.522  11.491 123.721 -0.69 -0.00    +0.000    128.609
ATOM     17  C   UNL     1      36.159  10.932 122.340 -0.66 -0.00    +0.000    128.609
ATOM     18  O   UNL     1      37.053   9.144 121.027 -2.73 -0.00    +0.000    128.609
ATOM     19  C   UNL     1      36.650   9.524 122.160 -0.70 -0.00    +0.000    128.609
ATOM     20  N   UNL     1      36.636   8.607 123.255 -0.67 -0.00    +0.000    128.609
ATOM     21  O   UNL     1      37.065   7.333 123.089 -2.32 -0.00    +0.000    128.609
ATOM     22  H   UNL     1      36.313   8.902 124.137 -0.33 -0.00    +0.000    128.609
TER
ENDMDL
MODEL        5
USER    Run = 5
USER    Cluster Rank = 2
USER    Number of conformations in this cluster = 6
USER  
USER    RMSD from reference structure       = 128.284 A
USER  
USER    Estimated Free Energy of Binding    =  -11.26 kcal/mol  [=(1)+(2)+(3)-(4)]
USER    Estimated Inhibition Constant, Ki   =    5.59 nM (nanomolar)  [Temperature = 298.15 K]
USER    
USER    (1) Final Intermolecular Energy     =  -13.64 kcal/mol
USER        vdW + Hbond + desolv Energy     =  -13.64 kcal/mol
USER        Electrostatic Energy            =   +0.00 kcal/mol
USER    (2) Final Total Internal Energy     =   -0.74 kcal/mol
USER    (3) Torsional Free Energy           =   +2.39 kcal/mol
USER    (4) Unbound System's Energy  [=(2)] =   -0.74 kcal/mol
USER    
USER    
USER  
USER    DPF = ligand_dock.biased.dpf
USER    NEWDPF move	ligand.dum.pdbqt
USER    NEWDPF about	0.003000 -0.142000 -0.069000
USER    NEWDPF tran0	37.130533 11.856500 122.458054
USER    NEWDPF axisangle0	-0.803583 -0.550053 -0.227367 120.427850
USER    NEWDPF quaternion0	-0.697419 -0.477383 -0.197329 0.496763
USER    NEWDPF dihe0	133.82 -158.59 179.75 69.53 -68.08 164.77 4.17 -19.35 
USER  
USER                              x       y       z    vdW   Elec        q     RMS 
ATOM      1  C   UNL     1      36.514  11.755 121.915 -0.58 -0.00    +0.000    128.284
ATOM      2  C   UNL     1      36.349  10.265 121.919 -0.51 -0.00    +0.000    128.284
ATOM      3  N   UNL     1      35.363   9.655 122.768 -0.60 -0.00    +0.000    128.284
ATOM      4  O   UNL     1      37.081   9.560 121.173 -2.43 -0.00    +0.000    128.284
ATOM      5  H   UNL     1      34.698  10.241 123.198 -0.35 -0.00    +0.000    128.284
ATOM      6  C   UNL     1      35.284   8.243 123.027 -0.61 -0.00    +0.000    128.284
ATOM      7  C   UNL     1      34.053   7.591 123.208 -0.63 -0.00    +0.000    128.284
ATOM      8  C   UNL     1      34.019   6.213 123.431 -0.66 -0.00    +0.000    128.284
ATOM      9  C   UNL     1      35.214   5.494 123.456 -0.52 -0.00    +0.000    128.284
ATOM     10  N   UNL     1      36.398   6.133 123.256 -0.91 -0.00    +0.000    128.284
ATOM     11  C   UNL     1      36.457   7.473 123.037 -0.70 -0.00    +0.000    128.284
ATOM     12  CM  UNL     1      35.269   6.838 123.236 +0.00 -0.00    +0.000    128.284
ATOM     13  C   UNL     1      36.946  12.247 123.302 -0.67 -0.00    +0.000    128.284
ATOM     14  C   UNL     1      36.854  13.777 123.453 -0.55 -0.00    +0.000    128.284
ATOM     15  C   UNL     1      35.646  14.279 124.264 -0.44 -0.00    +0.000    128.284
ATOM     16  C   UNL     1      34.865  15.396 123.549 -0.50 -0.00    +0.000    128.284
ATOM     17  C   UNL     1      35.120  16.773 124.174 -0.44 -0.00    +0.000    128.284
ATOM     18  O   UNL     1      33.802  18.253 125.512 -0.40 -0.00    +0.000    128.284
ATOM     19  C   UNL     1      34.164  17.065 125.294 -0.45 -0.00    +0.000    128.284
ATOM     20  N   UNL     1      33.686  16.010 126.132 -0.49 -0.00    +0.000    128.284
ATOM     21  O   UNL     1      32.836  16.275 127.151 -1.16 -0.00    +0.000    128.284
ATOM     22  H   UNL     1      33.977  15.084 125.966 -0.05 -0.00    +0.000    128.284
TER
ENDMDL
MODEL        8
USER    Run = 8
USER    Cluster Rank = 3
USER    Number of conformations in this cluster = 9
USER  
USER    RMSD from reference structure       = 127.709 A
USER  
USER    Estimated Free Energy of Binding    =  -10.98 kcal/mol  [=(1)+(2)+(3)-(4)]
USER    Estimated Inhibition Constant, Ki   =    8.92 nM (nanomolar)  [Temperature = 298.15 K]
USER    
USER    (1) Final Intermolecular Energy     =  -13.37 kcal/mol
USER        vdW + Hbond + desolv Energy     =  -13.37 kcal/mol
USER        Electrostatic Energy            =   +0.00 kcal/mol
USER    (2) Final Total Internal Energy     =   -0.81 kcal/mol
USER    (3) Torsional Free Energy           =   +2.39 kcal/mol
USER    (4) Unbound System's Energy  [=(2)] =   -0.81 kcal/mol
USER    
USER    
USER  
USER    DPF = ligand_dock.biased.dpf
USER    NEWDPF move	ligand.dum.pdbqt
USER    NEWDPF about	0.003000 -0.142000 -0.069000
USER    NEWDPF tran0	36.769232 12.025332 121.603072
USER    NEWDPF axisangle0	0.525454 0.667837 -0.527155 130.959854
USER    NEWDPF quaternion0	0.478066 0.607609 -0.479614 0.415012
USER    NEWDPF dihe0	10.92 -176.32 -170.36 119.52 -177.97 113.11 -35.82 110.06 
USER  
USER                              x       y       z    vdW   Elec        q     RMS 
ATOM      1  C   UNL     1      36.854  11.734 122.373 -0.62 -0.00    +0.000    127.709
ATOM      2  C   UNL     1      36.522  10.284 122.187 -0.65 -0.00    +0.000    127.709
ATOM      3  N   UNL     1      35.657   9.621 123.124 -0.60 -0.00    +0.000    127.709
ATOM      4  O   UNL     1      37.009   9.659 121.207 -2.30 -0.00    +0.000    127.709
ATOM      5  H   UNL     1      35.161  10.177 123.768 -0.33 -0.00    +0.000    127.709
ATOM      6  C   UNL     1      35.468   8.197 123.178 -0.60 -0.00    +0.000    127.709
ATOM      7  C   UNL     1      34.192   7.624 123.313 -0.63 -0.00    +0.000    127.709
ATOM      8  C   UNL     1      34.049   6.235 123.335 -0.67 -0.00    +0.000    127.709
ATOM      9  C   UNL     1      35.181   5.428 123.207 -0.51 -0.00    +0.000    127.709
ATOM     10  N   UNL     1      36.407   5.995 123.053 -0.97 -0.00    +0.000    127.709
ATOM     11  C   UNL     1      36.573   7.344 123.029 -0.70 -0.00    +0.000    127.709
ATOM     12  CM  UNL     1      35.341   6.782 123.182 +0.00 -0.00    +0.000    127.709
ATOM     13  C   UNL     1      37.540  12.289 121.119 -0.49 -0.00    +0.000    127.709
ATOM     14  C   UNL     1      37.303  13.797 120.920 -0.39 -0.00    +0.000    127.709
ATOM     15  C   UNL     1      37.625  14.674 122.144 -0.40 -0.00    +0.000    127.709
ATOM     16  C   UNL     1      38.719  15.719 121.862 -0.28 -0.00    +0.000    127.709
ATOM     17  C   UNL     1      40.010  15.080 121.337 -0.31 -0.00    +0.000    127.709
ATOM     18  O   UNL     1      41.185  14.089 123.169 -1.00 +0.00    +0.000    127.709
ATOM     19  C   UNL     1      41.092  15.067 122.378 -0.51 -0.00    +0.000    127.709
ATOM     20  N   UNL     1      41.996  16.167 122.497 -0.39 -0.00    +0.000    127.709
ATOM     21  O   UNL     1      42.962  16.162 123.446 -1.03 +0.00    +0.000    127.709
ATOM     22  H   UNL     1      41.916  16.934 121.885 +0.00 -0.00    +0.000    127.709
TER
ENDMDL
MODEL       25
USER    Run = 25
USER    Cluster Rank = 4
USER    Number of conformations in this cluster = 16
USER  
USER    RMSD from reference structure       = 125.619 A
USER  
USER    Estimated Free Energy of Binding    =  -10.82 kcal/mol  [=(1)+(2)+(3)-(4)]
USER    Estimated Inhibition Constant, Ki   =   11.64 nM (nanomolar)  [Temperature = 298.15 K]
USER    
USER    (1) Final Intermolecular Energy     =  -13.21 kcal/mol
USER        vdW + Hbond + desolv Energy     =  -13.21 kcal/mol
USER        Electrostatic Energy            =   +0.00 kcal/mol
USER    (2) Final Total Internal Energy     =   -1.29 kcal/mol
USER    (3) Torsional Free Energy           =   +2.39 kcal/mol
USER    (4) Unbound System's Energy  [=(2)] =   -1.29 kcal/mol
USER    
USER    
USER  
USER    DPF = ligand_dock.biased.dpf
USER    NEWDPF move	ligand.dum.pdbqt
USER    NEWDPF about	0.003000 -0.142000 -0.069000
USER    NEWDPF tran0	37.894864 13.966441 122.173750
USER    NEWDPF axisangle0	-0.589990 0.801565 -0.096981 114.693521
USER    NEWDPF quaternion0	-0.496743 0.674879 -0.081654 0.539553
USER    NEWDPF dihe0	107.06 24.17 -137.13 -90.37 -71.91 105.62 -90.78 170.29 
USER  
USER                              x       y       z    vdW   Elec        q     RMS 
ATOM      1  C   UNL     1      38.569  13.861 121.705 -0.39 -0.00    +0.000    125.619
ATOM      2  C   UNL     1      38.060  14.250 120.350 -0.34 -0.00    +0.000    125.619
ATOM      3  N   UNL     1      37.209  13.352 119.618 -0.40 -0.00    +0.000    125.619
ATOM      4  O   UNL     1      38.386  15.366 119.864 -0.21 -0.00    +0.000    125.619
ATOM      5  H   UNL     1      36.837  12.576 120.097 -0.05 -0.00    +0.000    125.619
ATOM      6  C   UNL     1      36.866  13.516 118.232 -0.37 -0.00    +0.000    125.619
ATOM      7  C   UNL     1      35.617  14.024 117.833 -0.31 -0.00    +0.000    125.619
ATOM      8  C   UNL     1      35.333  14.193 116.477 -0.30 -0.00    +0.000    125.619
ATOM      9  C   UNL     1      36.304  13.869 115.528 -0.28 -0.00    +0.000    125.619
ATOM     10  N   UNL     1      37.517  13.401 115.928 -0.41 -0.00    +0.000    125.619
ATOM     11  C   UNL     1      37.817  13.227 117.242 -0.32 -0.00    +0.000    125.619
ATOM     12  CM  UNL     1      36.601  13.698 116.848 +0.00 -0.00    +0.000    125.619
ATOM     13  C   UNL     1      37.869  14.683 122.794 -0.44 -0.00    +0.000    125.619
ATOM     14  C   UNL     1      36.681  13.944 123.437 -0.54 -0.00    +0.000    125.619
ATOM     15  C   UNL     1      36.945  12.467 123.786 -0.59 -0.00    +0.000    125.619
ATOM     16  C   UNL     1      35.802  11.534 123.352 -0.65 -0.00    +0.000    125.619
ATOM     17  C   UNL     1      36.053  10.911 121.973 -0.56 -0.00    +0.000    125.619
ATOM     18  O   UNL     1      37.061   8.957 121.032 -2.71 -0.00    +0.000    125.619
ATOM     19  C   UNL     1      36.699   9.560 122.079 -0.69 -0.00    +0.000    125.619
ATOM     20  N   UNL     1      36.879   8.941 123.355 -0.61 -0.00    +0.000    125.619
ATOM     21  O   UNL     1      37.448   7.717 123.449 -2.59 -0.00    +0.000    125.619
ATOM     22  H   UNL     1      36.588   9.409 124.171 -0.45 -0.00    +0.000    125.619
TER
ENDMDL
MODEL       97
USER    Run = 97
USER    Cluster Rank = 5
USER    Number of conformations in this cluster = 10
USER  
USER    RMSD from reference structure       = 128.661 A
USER  
USER    Estimated Free Energy of Binding    =  -10.78 kcal/mol  [=(1)+(2)+(3)-(4)]
USER    Estimated Inhibition Constant, Ki   =   12.43 nM (nanomolar)  [Temperature = 298.15 K]
USER    
USER    (1) Final Intermolecular Energy     =  -13.17 kcal/mol
USER        vdW + Hbond + desolv Energy     =  -13.17 kcal/mol
USER        Electrostatic Energy            =   +0.00 kcal/mol
USER    (2) Final Total Internal Energy     =   -0.62 kcal/mol
USER    (3) Torsional Free Energy           =   +2.39 kcal/mol
USER    (4) Unbound System's Energy  [=(2)] =   -0.62 kcal/mol
USER    
USER    
USER  
USER    DPF = ligand_dock.biased.dpf
USER    NEWDPF move	ligand.dum.pdbqt
USER    NEWDPF about	0.003000 -0.142000 -0.069000
USER    NEWDPF tran0	39.128561 15.333924 123.066419
USER    NEWDPF axisangle0	0.337848 -0.262917 0.903733 -166.448679
USER    NEWDPF quaternion0	0.335489 -0.261081 0.897421 -0.117982
USER    NEWDPF dihe0	-154.74 168.73 169.54 -30.39 168.72 -143.11 -114.88 82.16 
USER  
USER                              x       y       z    vdW   Elec        q     RMS 
ATOM      1  C   UNL     1      39.527  16.059 123.073 -0.23 -0.00    +0.000    128.661
ATOM      2  C   UNL     1      40.883  15.666 122.568 -0.44 -0.00    +0.000    128.661
ATOM      3  N   UNL     1      42.001  16.550 122.751 -0.37 -0.00    +0.000    128.661
ATOM      4  O   UNL     1      41.027  14.558 121.984 -0.98 -0.00    +0.000    128.661
ATOM      5  H   UNL     1      41.888  17.316 123.359 -0.03 -0.00    +0.000    128.661
ATOM      6  C   UNL     1      43.274  16.384 122.105 -0.33 -0.00    +0.000    128.661
ATOM      7  C   UNL     1      44.455  16.915 122.649 -0.28 -0.00    +0.000    128.661
ATOM      8  C   UNL     1      45.676  16.709 122.004 -0.26 +0.00    +0.000    128.661
ATOM      9  C   UNL     1      45.710  15.961 120.827 -0.25 +0.00    +0.000    128.661
ATOM     10  N   UNL     1      44.563  15.432 120.322 -0.30 +0.00    +0.000    128.661
ATOM     11  C   UNL     1      43.362  15.619 120.932 -0.23 -0.00    +0.000    128.661
ATOM     12  CM  UNL     1      44.508  16.150 121.442 +0.00 +0.00    +0.000    128.661
ATOM     13  C   UNL     1      38.443  15.186 122.428 -0.37 -0.00    +0.000    128.661
ATOM     14  C   UNL     1      38.429  13.746 122.971 -0.40 -0.00    +0.000    128.661
ATOM     15  C   UNL     1      37.080  13.014 122.841 -0.58 -0.00    +0.000    128.661
ATOM     16  C   UNL     1      37.084  11.940 121.739 -0.56 -0.00    +0.000    128.661
ATOM     17  C   UNL     1      36.052  10.836 122.003 -0.56 -0.00    +0.000    128.661
ATOM     18  O   UNL     1      37.064   8.890 121.049 -2.70 -0.00    +0.000    128.661
ATOM     19  C   UNL     1      36.694   9.482 122.100 -0.70 -0.00    +0.000    128.661
ATOM     20  N   UNL     1      36.862   8.849 123.369 -0.62 -0.00    +0.000    128.661
ATOM     21  O   UNL     1      37.429   7.623 123.455 -2.54 -0.00    +0.000    128.661
ATOM     22  H   UNL     1      36.565   9.308 124.188 -0.44 -0.00    +0.000    128.661
TER
ENDMDL
MODEL       54
USER    Run = 54
USER    Cluster Rank = 6
USER    Number of conformations in this cluster = 9
USER  
USER    RMSD from reference structure       = 127.970 A
USER  
USER    Estimated Free Energy of Binding    =  -10.76 kcal/mol  [=(1)+(2)+(3)-(4)]
USER    Estimated Inhibition Constant, Ki   =   13.01 nM (nanomolar)  [Temperature = 298.15 K]
USER    
USER    (1) Final Intermolecular Energy     =  -13.14 kcal/mol
USER        vdW + Hbond + desolv Energy     =  -13.14 kcal/mol
USER        Electrostatic Energy            =   +0.00 kcal/mol
USER    (2) Final Total Internal Energy     =   -1.08 kcal/mol
USER    (3) Torsional Free Energy           =   +2.39 kcal/mol
USER    (4) Unbound System's Energy  [=(2)] =   -1.08 kcal/mol
USER    
USER    
USER  
USER    DPF = ligand_dock.biased.dpf
USER    NEWDPF move	ligand.dum.pdbqt
USER    NEWDPF about	0.003000 -0.142000 -0.069000
USER    NEWDPF tran0	37.317268 14.023156 121.271273
USER    NEWDPF axisangle0	0.086902 -0.036047 0.995564 147.794872
USER    NEWDPF quaternion0	0.083493 -0.034632 0.956505 0.277358
USER    NEWDPF dihe0	159.10 17.36 -161.19 164.81 -173.05 75.46 -101.24 -64.13 
USER  
USER                              x       y       z    vdW   Elec        q     RMS 
ATOM      1  C   UNL     1      37.107  14.814 121.145 -0.28 -0.00    +0.000    127.970
ATOM      2  C   UNL     1      38.353  15.531 121.569 -0.28 -0.00    +0.000    127.970
ATOM      3  N   UNL     1      39.629  15.122 121.048 -0.27 -0.00    +0.000    127.970
ATOM      4  O   UNL     1      38.267  16.489 122.383 -0.22 -0.00    +0.000    127.970
ATOM      5  H   UNL     1      39.637  14.494 120.290 -0.06 -0.00    +0.000    127.970
ATOM      6  C   UNL     1      40.892  15.574 121.563 -0.30 -0.00    +0.000    127.970
ATOM      7  C   UNL     1      41.866  16.153 120.733 -0.19 -0.00    +0.000    127.970
ATOM      8  C   UNL     1      43.070  16.604 121.277 -0.23 -0.00    +0.000    127.970
ATOM      9  C   UNL     1      43.287  16.487 122.651 -0.35 -0.00    +0.000    127.970
ATOM     10  N   UNL     1      42.326  15.946 123.448 -1.05 +0.00    +0.000    127.970
ATOM     11  C   UNL     1      41.146  15.500 122.941 -0.39 -0.00    +0.000    127.970
ATOM     12  CM  UNL     1      42.104  16.042 122.138 +0.00 -0.00    +0.000    127.970
ATOM     13  C   UNL     1      37.458  13.455 120.526 -0.45 -0.00    +0.000    127.970
ATOM     14  C   UNL     1      37.593  12.334 121.572 -0.42 -0.00    +0.000    127.970
ATOM     15  C   UNL     1      37.033  12.672 122.965 -0.62 -0.00    +0.000    127.970
ATOM     16  C   UNL     1      35.990  11.653 123.456 -0.69 -0.00    +0.000    127.970
ATOM     17  C   UNL     1      35.562  10.681 122.349 -0.63 -0.00    +0.000    127.970
ATOM     18  O   UNL     1      37.060   9.217 121.196 -2.74 -0.00    +0.000    127.970
ATOM     19  C   UNL     1      36.466   9.485 122.275 -0.70 -0.00    +0.000    127.970
ATOM     20  N   UNL     1      36.634   8.632 123.410 -0.63 -0.00    +0.000    127.970
ATOM     21  O   UNL     1      37.437   7.545 123.338 -2.39 -0.00    +0.000    127.970
ATOM     22  H   UNL     1      36.162   8.837 124.250 -0.25 -0.00    +0.000    127.970
TER
ENDMDL
MODEL       84
USER    Run = 84
USER    Cluster Rank = 7
USER    Number of conformations in this cluster = 3
USER  
USER    RMSD from reference structure       = 126.588 A
USER  
USER    Estimated Free Energy of Binding    =  -10.45 kcal/mol  [=(1)+(2)+(3)-(4)]
USER    Estimated Inhibition Constant, Ki   =   22.05 nM (nanomolar)  [Temperature = 298.15 K]
USER    
USER    (1) Final Intermolecular Energy     =  -12.83 kcal/mol
USER        vdW + Hbond + desolv Energy     =  -12.83 kcal/mol
USER        Electrostatic Energy            =   +0.00 kcal/mol
USER    (2) Final Total Internal Energy     =   -0.74 kcal/mol
USER    (3) Torsional Free Energy           =   +2.39 kcal/mol
USER    (4) Unbound System's Energy  [=(2)] =   -0.74 kcal/mol
USER    
USER    
USER  
USER    DPF = ligand_dock.biased.dpf
USER    NEWDPF move	ligand.dum.pdbqt
USER    NEWDPF about	0.003000 -0.142000 -0.069000
USER    NEWDPF tran0	35.962774 15.722376 122.670486
USER    NEWDPF axisangle0	-0.982888 0.178876 -0.043974 -166.824466
USER    NEWDPF quaternion0	-0.976399 0.177695 -0.043683 -0.114725
USER    NEWDPF dihe0	129.09 42.98 -79.72 -122.74 135.52 -166.01 -63.85 174.57 
USER  
USER                              x       y       z    vdW   Elec        q     RMS 
ATOM      1  C   UNL     1      35.948  16.475 123.014 -0.35 -0.00    +0.000    126.588
ATOM      2  C   UNL     1      34.756  17.091 122.346 -0.37 -0.00    +0.000    126.588
ATOM      3  N   UNL     1      34.819  17.451 120.956 -0.26 -0.00    +0.000    126.588
ATOM      4  O   UNL     1      33.706  17.289 123.015 -0.43 -0.00    +0.000    126.588
ATOM      5  H   UNL     1      35.584  17.124 120.429 -0.01 -0.00    +0.000    126.588
ATOM      6  C   UNL     1      33.834  18.256 120.287 -0.29 -0.00    +0.000    126.588
ATOM      7  C   UNL     1      32.457  18.042 120.464 -0.28 -0.00    +0.000    126.588
ATOM      8  C   UNL     1      31.533  18.864 119.816 -0.45 -0.00    +0.000    126.588
ATOM      9  C   UNL     1      31.991  19.904 119.007 -0.27 -0.00    +0.000    126.588
ATOM     10  N   UNL     1      33.327  20.116 118.862 -0.20 -0.00    +0.000    126.588
ATOM     11  C   UNL     1      34.246  19.330 119.482 -0.20 -0.00    +0.000    126.588
ATOM     12  CM  UNL     1      32.910  19.113 119.632 +0.00 -0.00    +0.000    126.588
ATOM     13  C   UNL     1      35.738  14.967 123.198 -0.42 -0.00    +0.000    126.588
ATOM     14  C   UNL     1      36.853  14.121 122.557 -0.46 -0.00    +0.000    126.588
ATOM     15  C   UNL     1      37.421  13.006 123.455 -0.57 -0.00    +0.000    126.588
ATOM     16  C   UNL     1      36.456  11.820 123.621 -0.70 -0.00    +0.000    126.588
ATOM     17  C   UNL     1      36.154  11.125 122.288 -0.65 -0.00    +0.000    126.588
ATOM     18  O   UNL     1      37.022   9.219 121.134 -2.72 -0.00    +0.000    126.588
ATOM     19  C   UNL     1      36.713   9.732 122.244 -0.69 -0.00    +0.000    126.588
ATOM     20  N   UNL     1      36.869   8.976 123.446 -0.58 -0.00    +0.000    126.588
ATOM     21  O   UNL     1      37.360   7.715 123.404 -2.59 -0.00    +0.000    126.588
ATOM     22  H   UNL     1      36.619   9.375 124.311 -0.35 -0.00    +0.000    126.588
TER
ENDMDL
MODEL       50
USER    Run = 50
USER    Cluster Rank = 8
USER    Number of conformations in this cluster = 6
USER  
USER    RMSD from reference structure       = 125.355 A
USER  
USER    Estimated Free Energy of Binding    =  -10.19 kcal/mol  [=(1)+(2)+(3)-(4)]
USER    Estimated Inhibition Constant, Ki   =   33.93 nM (nanomolar)  [Temperature = 298.15 K]
USER    
USER    (1) Final Intermolecular Energy     =  -12.58 kcal/mol
USER        vdW + Hbond + desolv Energy     =  -12.58 kcal/mol
USER        Electrostatic Energy            =   +0.00 kcal/mol
USER    (2) Final Total Internal Energy     =   -0.82 kcal/mol
USER    (3) Torsional Free Energy           =   +2.39 kcal/mol
USER    (4) Unbound System's Energy  [=(2)] =   -0.82 kcal/mol
USER    
USER    
USER  
USER    DPF = ligand_dock.biased.dpf
USER    NEWDPF move	ligand.dum.pdbqt
USER    NEWDPF about	0.003000 -0.142000 -0.069000
USER    NEWDPF tran0	36.804384 11.930215 121.241238
USER    NEWDPF axisangle0	-0.602192 -0.671676 0.431528 -155.740191
USER    NEWDPF quaternion0	-0.588747 -0.656680 0.421894 -0.210129
USER    NEWDPF dihe0	163.01 180.00 176.54 -174.63 -120.76 171.42 -83.12 94.33 
USER  
USER                              x       y       z    vdW   Elec        q     RMS 
ATOM      1  C   UNL     1      36.546  11.769 122.011 -0.60 -0.00    +0.000    125.355
ATOM      2  C   UNL     1      36.360  10.282 121.963 -0.58 -0.00    +0.000    125.355
ATOM      3  N   UNL     1      35.384   9.653 122.809 -0.60 -0.00    +0.000    125.355
ATOM      4  O   UNL     1      37.067   9.596 121.177 -2.41 -0.00    +0.000    125.355
ATOM      5  H   UNL     1      34.736  10.231 123.275 -0.37 -0.00    +0.000    125.355
ATOM      6  C   UNL     1      35.291   8.234 123.018 -0.61 -0.00    +0.000    125.355
ATOM      7  C   UNL     1      34.062   7.601 123.266 -0.63 -0.00    +0.000    125.355
ATOM      8  C   UNL     1      34.012   6.216 123.437 -0.66 -0.00    +0.000    125.355
ATOM      9  C   UNL     1      35.188   5.471 123.342 -0.53 -0.00    +0.000    125.355
ATOM     10  N   UNL     1      36.368   6.093 123.077 -1.00 -0.00    +0.000    125.355
ATOM     11  C   UNL     1      36.443   7.440 122.908 -0.70 -0.00    +0.000    125.355
ATOM     12  CM  UNL     1      35.258   6.822 123.171 +0.00 -0.00    +0.000    125.355
ATOM     13  C   UNL     1      37.704  12.191 121.100 -0.42 -0.00    +0.000    125.355
ATOM     14  C   UNL     1      37.232  12.842 119.786 -0.47 -0.00    +0.000    125.355
ATOM     15  C   UNL     1      37.512  14.351 119.670 -0.33 -0.00    +0.000    125.355
ATOM     16  C   UNL     1      37.088  14.937 118.312 -0.26 -0.00    +0.000    125.355
ATOM     17  C   UNL     1      36.262  13.945 117.484 -0.38 -0.00    +0.000    125.355
ATOM     18  O   UNL     1      36.584  13.656 115.132 -0.37 -0.00    +0.000    125.355
ATOM     19  C   UNL     1      37.024  13.439 116.294 -0.38 -0.00    +0.000    125.355
ATOM     20  N   UNL     1      38.228  12.689 116.469 -0.44 -0.00    +0.000    125.355
ATOM     21  O   UNL     1      38.907  12.220 115.396 -0.74 -0.00    +0.000    125.355
ATOM     22  H   UNL     1      38.566  12.512 117.377 -0.12 -0.00    +0.000    125.355
TER
ENDMDL
MODEL       90
USER    Run = 90
USER    Cluster Rank = 9
USER    Number of conformations in this cluster = 2
USER  
USER    RMSD from reference structure       = 126.996 A
USER  
USER    Estimated Free Energy of Binding    =  -10.10 kcal/mol  [=(1)+(2)+(3)-(4)]
USER    Estimated Inhibition Constant, Ki   =   39.77 nM (nanomolar)  [Temperature = 298.15 K]
USER    
USER    (1) Final Intermolecular Energy     =  -12.48 kcal/mol
USER        vdW + Hbond + desolv Energy     =  -12.48 kcal/mol
USER        Electrostatic Energy            =   +0.00 kcal/mol
USER    (2) Final Total Internal Energy     =   -0.84 kcal/mol
USER    (3) Torsional Free Energy           =   +2.39 kcal/mol
USER    (4) Unbound System's Energy  [=(2)] =   -0.84 kcal/mol
USER    
USER    
USER  
USER    DPF = ligand_dock.biased.dpf
USER    NEWDPF move	ligand.dum.pdbqt
USER    NEWDPF about	0.003000 -0.142000 -0.069000
USER    NEWDPF tran0	36.584207 11.800370 121.995729
USER    NEWDPF axisangle0	0.396306 0.698562 -0.595779 97.175238
USER    NEWDPF quaternion0	0.297217 0.523899 -0.446815 0.661474
USER    NEWDPF dihe0	-51.96 81.10 -106.15 85.74 3.42 26.23 8.01 160.20 
USER  
USER                              x       y       z    vdW   Elec        q     RMS 
ATOM      1  C   UNL     1      36.954  11.249 122.490 -0.61 -0.00    +0.000    126.996
ATOM      2  C   UNL     1      36.283   9.973 122.079 -0.61 -0.00    +0.000    126.996
ATOM      3  N   UNL     1      35.032   9.596 122.676 -0.59 -0.00    +0.000    126.996
ATOM      4  O   UNL     1      36.828   9.241 121.209 -2.65 -0.00    +0.000    126.996
ATOM      5  H   UNL     1      34.556  10.270 123.214 -0.37 -0.00    +0.000    126.996
ATOM      6  C   UNL     1      34.431   8.298 122.536 -0.61 -0.00    +0.000    126.996
ATOM      7  C   UNL     1      33.868   7.870 121.322 -0.57 -0.00    +0.000    126.996
ATOM      8  C   UNL     1      33.318   6.591 121.220 -0.41 -0.00    +0.000    126.996
ATOM      9  C   UNL     1      33.347   5.743 122.327 -0.58 -0.00    +0.000    126.996
ATOM     10  N   UNL     1      33.916   6.160 123.490 -0.71 -0.00    +0.000    126.996
ATOM     11  C   UNL     1      34.458   7.401 123.614 -0.64 -0.00    +0.000    126.996
ATOM     12  CM  UNL     1      33.891   6.987 122.447 +0.00 -0.00    +0.000    126.996
ATOM     13  C   UNL     1      37.079  12.198 121.291 -0.55 -0.00    +0.000    126.996
ATOM     14  C   UNL     1      38.079  13.343 121.530 -0.44 -0.00    +0.000    126.996
ATOM     15  C   UNL     1      38.128  13.874 122.975 -0.49 -0.00    +0.000    126.996
ATOM     16  C   UNL     1      36.770  14.407 123.464 -0.49 -0.00    +0.000    126.996
ATOM     17  C   UNL     1      36.584  15.897 123.150 -0.37 -0.00    +0.000    126.996
ATOM     18  O   UNL     1      34.248  15.562 123.534 -0.61 -0.00    +0.000    126.996
ATOM     19  C   UNL     1      35.137  16.254 122.968 -0.38 -0.00    +0.000    126.996
ATOM     20  N   UNL     1      34.761  17.353 122.136 -0.33 -0.00    +0.000    126.996
ATOM     21  O   UNL     1      33.455  17.665 121.962 -0.47 -0.00    +0.000    126.996
ATOM     22  H   UNL     1      35.455  17.887 121.687 -0.00 -0.00    +0.000    126.996
TER
ENDMDL
MODEL       15
USER    Run = 15
USER    Cluster Rank = 10
USER    Number of conformations in this cluster = 2
USER  
USER    RMSD from reference structure       = 124.205 A
USER  
USER    Estimated Free Energy of Binding    =   -9.92 kcal/mol  [=(1)+(2)+(3)-(4)]
USER    Estimated Inhibition Constant, Ki   =   53.43 nM (nanomolar)  [Temperature = 298.15 K]
USER    
USER    (1) Final Intermolecular Energy     =  -12.31 kcal/mol
USER        vdW + Hbond + desolv Energy     =  -12.31 kcal/mol
USER        Electrostatic Energy            =   +0.00 kcal/mol
USER    (2) Final Total Internal Energy     =   -0.84 kcal/mol
USER    (3) Torsional Free Energy           =   +2.39 kcal/mol
USER    (4) Unbound System's Energy  [=(2)] =   -0.84 kcal/mol
USER    
USER    
USER  
USER    DPF = ligand_dock.biased.dpf
USER    NEWDPF move	ligand.dum.pdbqt
USER    NEWDPF about	0.003000 -0.142000 -0.069000
USER    NEWDPF tran0	38.039782 12.993360 119.502149
USER    NEWDPF axisangle0	0.898581 -0.136368 0.417081 -162.050096
USER    NEWDPF quaternion0	0.887579 -0.134698 0.411974 -0.156003
USER    NEWDPF dihe0	169.63 47.31 -76.69 180.00 -35.83 -38.86 42.04 134.67 
USER  
USER                              x       y       z    vdW   Elec        q     RMS 
ATOM      1  C   UNL     1      38.031  13.790 119.278 -0.22 -0.00    +0.000    124.205
ATOM      2  C   UNL     1      37.612  13.697 117.842 -0.36 -0.00    +0.000    124.205
ATOM      3  N   UNL     1      38.547  14.018 116.799 -0.28 -0.00    +0.000    124.205
ATOM      4  O   UNL     1      36.436  13.337 117.563 -0.46 -0.00    +0.000    124.205
ATOM      5  H   UNL     1      39.495  14.123 117.046 -0.12 -0.00    +0.000    124.205
ATOM      6  C   UNL     1      38.187  14.194 115.419 -0.34 -0.00    +0.000    124.205
ATOM      7  C   UNL     1      37.271  13.342 114.778 -0.36 -0.00    +0.000    124.205
ATOM      8  C   UNL     1      36.928  13.564 113.443 -0.29 -0.00    +0.000    124.205
ATOM      9  C   UNL     1      37.490  14.644 112.762 -0.16 -0.00    +0.000    124.205
ATOM     10  N   UNL     1      38.357  15.475 113.400 -0.17 -0.00    +0.000    124.205
ATOM     11  C   UNL     1      38.707  15.280 114.699 -0.21 -0.00    +0.000    124.205
ATOM     12  CM  UNL     1      37.837  14.445 114.065 +0.00 -0.00    +0.000    124.205
ATOM     13  C   UNL     1      37.377  12.672 120.099 -0.50 -0.00    +0.000    124.205
ATOM     14  C   UNL     1      36.694  13.185 121.379 -0.33 -0.00    +0.000    124.205
ATOM     15  C   UNL     1      37.509  12.997 122.672 -0.54 -0.00    +0.000    124.205
ATOM     16  C   UNL     1      37.090  11.751 123.470 -0.66 -0.00    +0.000    124.205
ATOM     17  C   UNL     1      36.035  10.917 122.733 -0.68 -0.00    +0.000    124.205
ATOM     18  O   UNL     1      36.736   9.219 121.202 -2.64 -0.00    +0.000    124.205
ATOM     19  C   UNL     1      36.538   9.541 122.405 -0.71 -0.00    +0.000    124.205
ATOM     20  N   UNL     1      36.766   8.587 123.443 -0.64 -0.00    +0.000    124.205
ATOM     21  O   UNL     1      37.207   7.342 123.146 -2.26 -0.00    +0.000    124.205
ATOM     22  H   UNL     1      36.603   8.836 124.382 -0.37 -0.00    +0.000    124.205
TER
ENDMDL
MODEL       36
USER    Run = 36
USER    Cluster Rank = 11
USER    Number of conformations in this cluster = 1
USER  
USER    RMSD from reference structure       = 129.101 A
USER  
USER    Estimated Free Energy of Binding    =   -9.86 kcal/mol  [=(1)+(2)+(3)-(4)]
USER    Estimated Inhibition Constant, Ki   =   59.40 nM (nanomolar)  [Temperature = 298.15 K]
USER    
USER    (1) Final Intermolecular Energy     =  -12.24 kcal/mol
USER        vdW + Hbond + desolv Energy     =  -12.24 kcal/mol
USER        Electrostatic Energy            =   +0.00 kcal/mol
USER    (2) Final Total Internal Energy     =   -0.68 kcal/mol
USER    (3) Torsional Free Energy           =   +2.39 kcal/mol
USER    (4) Unbound System's Energy  [=(2)] =   -0.68 kcal/mol
USER    
USER    
USER  
USER    DPF = ligand_dock.biased.dpf
USER    NEWDPF move	ligand.dum.pdbqt
USER    NEWDPF about	0.003000 -0.142000 -0.069000
USER    NEWDPF tran0	35.010260 15.549020 124.204082
USER    NEWDPF axisangle0	-0.139504 -0.216817 -0.966193 -105.613021
USER    NEWDPF quaternion0	-0.111129 -0.172716 -0.769668 -0.604509
USER    NEWDPF dihe0	156.65 176.04 -80.09 109.77 -46.59 -93.32 -2.09 175.62 
USER  
USER                              x       y       z    vdW   Elec        q     RMS 
ATOM      1  C   UNL     1      34.343  15.876 123.839 -0.56 -0.00    +0.000    129.101
ATOM      2  C   UNL     1      34.653  17.341 123.895 -0.42 -0.00    +0.000    129.101
ATOM      3  N   UNL     1      34.638  18.030 125.156 -0.32 -0.00    +0.000    129.101
ATOM      4  O   UNL     1      34.924  17.956 122.829 -0.34 -0.00    +0.000    129.101
ATOM      5  H   UNL     1      34.596  17.488 125.977 -0.01 -0.00    +0.000    129.101
ATOM      6  C   UNL     1      34.682  19.460 125.295 -0.20 -0.00    +0.000    129.101
ATOM      7  C   UNL     1      35.579  20.248 124.554 -0.15 -0.00    +0.000    129.101
ATOM      8  C   UNL     1      35.571  21.637 124.698 -0.15 -0.00    +0.000    129.101
ATOM      9  C   UNL     1      34.657  22.230 125.569 -0.15 -0.00    +0.000    129.101
ATOM     10  N   UNL     1      33.777  21.458 126.262 -0.16 -0.00    +0.000    129.101
ATOM     11  C   UNL     1      33.765  20.104 126.140 -0.18 -0.00    +0.000    129.101
ATOM     12  CM  UNL     1      34.648  20.873 125.442 +0.00 -0.00    +0.000    129.101
ATOM     13  C   UNL     1      35.633  15.063 123.681 -0.52 -0.00    +0.000    129.101
ATOM     14  C   UNL     1      35.377  13.558 123.479 -0.29 -0.00    +0.000    129.101
ATOM     15  C   UNL     1      36.530  12.636 123.915 -0.56 -0.00    +0.000    129.101
ATOM     16  C   UNL     1      37.261  11.986 122.727 -0.54 -0.00    +0.000    129.101
ATOM     17  C   UNL     1      36.359  11.020 121.949 -0.60 -0.00    +0.000    129.101
ATOM     18  O   UNL     1      37.053   8.928 121.025 -2.71 -0.00    +0.000    129.101
ATOM     19  C   UNL     1      36.827   9.599 122.068 -0.66 -0.00    +0.000    129.101
ATOM     20  N   UNL     1      36.991   8.995 123.352 -0.61 -0.00    +0.000    129.101
ATOM     21  O   UNL     1      37.400   7.709 123.458 -2.61 -0.00    +0.000    129.101
ATOM     22  H   UNL     1      36.805   9.517 124.166 -0.51 -0.00    +0.000    129.101
TER
ENDMDL
MODEL       93
USER    Run = 93
USER    Cluster Rank = 12
USER    Number of conformations in this cluster = 1
USER  
USER    RMSD from reference structure       = 123.641 A
USER  
USER    Estimated Free Energy of Binding    =   -9.72 kcal/mol  [=(1)+(2)+(3)-(4)]
USER    Estimated Inhibition Constant, Ki   =   74.77 nM (nanomolar)  [Temperature = 298.15 K]
USER    
USER    (1) Final Intermolecular Energy     =  -12.11 kcal/mol
USER        vdW + Hbond + desolv Energy     =  -12.11 kcal/mol
USER        Electrostatic Energy            =   +0.00 kcal/mol
USER    (2) Final Total Internal Energy     =   -0.82 kcal/mol
USER    (3) Torsional Free Energy           =   +2.39 kcal/mol
USER    (4) Unbound System's Energy  [=(2)] =   -0.82 kcal/mol
USER    
USER    
USER  
USER    DPF = ligand_dock.biased.dpf
USER    NEWDPF move	ligand.dum.pdbqt
USER    NEWDPF about	0.003000 -0.142000 -0.069000
USER    NEWDPF tran0	37.583466 14.048658 118.686450
USER    NEWDPF axisangle0	0.928475 -0.194355 0.316482 -121.347286
USER    NEWDPF quaternion0	0.809485 -0.169448 0.275923 -0.489784
USER    NEWDPF dihe0	-49.87 168.22 80.96 -64.40 -175.68 -137.71 -96.90 -13.29 
USER  
USER                              x       y       z    vdW   Elec        q     RMS 
ATOM      1  C   UNL     1      37.738  14.561 118.055 -0.28 -0.00    +0.000    123.641
ATOM      2  C   UNL     1      36.837  14.011 116.991 -0.37 -0.00    +0.000    123.641
ATOM      3  N   UNL     1      35.584  14.655 116.708 -0.27 -0.00    +0.000    123.641
ATOM      4  O   UNL     1      37.190  12.983 116.352 -0.47 -0.00    +0.000    123.641
ATOM      5  H   UNL     1      35.424  15.545 117.099 -0.00 -0.00    +0.000    123.641
ATOM      6  C   UNL     1      34.549  14.083 115.891 -0.28 -0.00    +0.000    123.641
ATOM      7  C   UNL     1      33.289  13.751 116.416 -0.35 -0.00    +0.000    123.641
ATOM      8  C   UNL     1      32.302  13.222 115.582 -0.40 -0.00    +0.000    123.641
ATOM      9  C   UNL     1      32.576  13.044 114.225 -0.33 -0.00    +0.000    123.641
ATOM     10  N   UNL     1      33.791  13.392 113.724 -0.28 -0.00    +0.000    123.641
ATOM     11  C   UNL     1      34.769  13.908 114.516 -0.23 -0.00    +0.000    123.641
ATOM     12  CM  UNL     1      33.552  13.562 115.023 +0.00 -0.00    +0.000    123.641
ATOM     13  C   UNL     1      37.106  14.371 119.439 -0.32 -0.00    +0.000    123.641
ATOM     14  C   UNL     1      37.507  13.044 120.108 -0.47 -0.00    +0.000    123.641
ATOM     15  C   UNL     1      37.298  12.993 121.632 -0.50 -0.00    +0.000    123.641
ATOM     16  C   UNL     1      36.367  11.850 122.073 -0.58 -0.00    +0.000    123.641
ATOM     17  C   UNL     1      37.060  10.875 123.033 -0.62 -0.00    +0.000    123.641
ATOM     18  O   UNL     1      37.050   9.279 121.253 -2.63 -0.00    +0.000    123.641
ATOM     19  C   UNL     1      37.064   9.472 122.499 -0.61 -0.00    +0.000    123.641
ATOM     20  N   UNL     1      37.054   8.357 123.392 -0.71 -0.00    +0.000    123.641
ATOM     21  O   UNL     1      37.043   7.092 122.910 -1.93 -0.00    +0.000    123.641
ATOM     22  H   UNL     1      37.055   8.509 124.365 -0.48 -0.00    +0.000    123.641
TER
ENDMDL
MODEL       42
USER    Run = 42
USER    Cluster Rank = 13
USER    Number of conformations in this cluster = 3
USER  
USER    RMSD from reference structure       = 128.793 A
USER  
USER    Estimated Free Energy of Binding    =   -9.70 kcal/mol  [=(1)+(2)+(3)-(4)]
USER    Estimated Inhibition Constant, Ki   =   77.58 nM (nanomolar)  [Temperature = 298.15 K]
USER    
USER    (1) Final Intermolecular Energy     =  -12.09 kcal/mol
USER        vdW + Hbond + desolv Energy     =  -12.09 kcal/mol
USER        Electrostatic Energy            =   +0.00 kcal/mol
USER    (2) Final Total Internal Energy     =   -0.86 kcal/mol
USER    (3) Torsional Free Energy           =   +2.39 kcal/mol
USER    (4) Unbound System's Energy  [=(2)] =   -0.86 kcal/mol
USER    
USER    
USER  
USER    DPF = ligand_dock.biased.dpf
USER    NEWDPF move	ligand.dum.pdbqt
USER    NEWDPF about	0.003000 -0.142000 -0.069000
USER    NEWDPF tran0	35.992429 15.201173 123.697572
USER    NEWDPF axisangle0	-0.282039 -0.166972 -0.944762 -155.320802
USER    NEWDPF quaternion0	-0.275523 -0.163115 -0.922936 -0.213706
USER    NEWDPF dihe0	-124.41 123.75 59.47 -149.82 -40.84 -34.05 161.24 -137.39 
USER  
USER                              x       y       z    vdW   Elec        q     RMS 
ATOM      1  C   UNL     1      35.747  15.861 123.262 -0.42 -0.00    +0.000    128.793
ATOM      2  C   UNL     1      37.053  16.537 122.972 -0.28 -0.00    +0.000    128.793
ATOM      3  N   UNL     1      38.190  16.292 123.815 -0.24 -0.00    +0.000    128.793
ATOM      4  O   UNL     1      37.139  17.318 121.987 -0.16 -0.00    +0.000    128.793
ATOM      5  H   UNL     1      38.134  15.550 124.461 +0.05 -0.00    +0.000    128.793
ATOM      6  C   UNL     1      39.405  17.060 123.775 -0.16 -0.00    +0.000    128.793
ATOM      7  C   UNL     1      39.621  18.149 124.636 -0.22 -0.00    +0.000    128.793
ATOM      8  C   UNL     1      40.826  18.852 124.583 -0.21 -0.00    +0.000    128.793
ATOM      9  C   UNL     1      41.812  18.453 123.681 -0.20 -0.00    +0.000    128.793
ATOM     10  N   UNL     1      41.600  17.382 122.869 -0.29 -0.00    +0.000    128.793
ATOM     11  C   UNL     1      40.436  16.682 122.902 -0.27 -0.00    +0.000    128.793
ATOM     12  CM  UNL     1      40.643  17.753 123.718 +0.00 -0.00    +0.000    128.793
ATOM     13  C   UNL     1      35.932  14.339 123.308 -0.49 -0.00    +0.000    128.793
ATOM     14  C   UNL     1      37.308  13.884 122.789 -0.51 -0.00    +0.000    128.793
ATOM     15  C   UNL     1      37.339  13.465 121.308 -0.45 -0.00    +0.000    128.793
ATOM     16  C   UNL     1      37.372  11.939 121.116 -0.51 -0.00    +0.000    128.793
ATOM     17  C   UNL     1      36.555  11.202 122.184 -0.64 -0.00    +0.000    128.793
ATOM     18  O   UNL     1      36.896   9.090 121.117 -2.67 -0.00    +0.000    128.793
ATOM     19  C   UNL     1      36.854   9.731 122.202 -0.64 -0.00    +0.000    128.793
ATOM     20  N   UNL     1      37.063   9.049 123.439 -0.58 -0.00    +0.000    128.793
ATOM     21  O   UNL     1      37.319   7.720 123.456 -2.63 -0.00    +0.000    128.793
ATOM     22  H   UNL     1      37.021   9.549 124.287 -0.54 -0.00    +0.000    128.793
TER
ENDMDL
MODEL       82
USER    Run = 82
USER    Cluster Rank = 14
USER    Number of conformations in this cluster = 1
USER  
USER    RMSD from reference structure       = 129.496 A
USER  
USER    Estimated Free Energy of Binding    =   -9.36 kcal/mol  [=(1)+(2)+(3)-(4)]
USER    Estimated Inhibition Constant, Ki   =  136.79 nM (nanomolar)  [Temperature = 298.15 K]
USER    
USER    (1) Final Intermolecular Energy     =  -11.75 kcal/mol
USER        vdW + Hbond + desolv Energy     =  -11.75 kcal/mol
USER        Electrostatic Energy            =   +0.00 kcal/mol
USER    (2) Final Total Internal Energy     =   -0.69 kcal/mol
USER    (3) Torsional Free Energy           =   +2.39 kcal/mol
USER    (4) Unbound System's Energy  [=(2)] =   -0.69 kcal/mol
USER    
USER    
USER  
USER    DPF = ligand_dock.biased.dpf
USER    NEWDPF move	ligand.dum.pdbqt
USER    NEWDPF about	0.003000 -0.142000 -0.069000
USER    NEWDPF tran0	39.504906 15.734511 121.385048
USER    NEWDPF axisangle0	-0.753680 0.592178 0.285115 -103.865432
USER    NEWDPF quaternion0	-0.593363 0.466214 0.224468 -0.616586
USER    NEWDPF dihe0	-114.93 -168.17 -67.41 -16.81 -165.83 147.12 39.50 120.74 
USER  
USER                              x       y       z    vdW   Elec        q     RMS 
ATOM      1  C   UNL     1      39.959  15.492 122.033 -0.36 -0.00    +0.000    129.496
ATOM      2  C   UNL     1      39.519  16.458 123.091 -0.26 -0.00    +0.000    129.496
ATOM      3  N   UNL     1      40.493  17.256 123.784 -0.29 -0.00    +0.000    129.496
ATOM      4  O   UNL     1      38.292  16.559 123.364 -0.30 -0.00    +0.000    129.496
ATOM      5  H   UNL     1      41.410  17.278 123.426 -0.02 -0.00    +0.000    129.496
ATOM      6  C   UNL     1      40.212  18.026 124.965 -0.26 -0.00    +0.000    129.496
ATOM      7  C   UNL     1      38.955  18.616 125.182 -0.18 -0.00    +0.000    129.496
ATOM      8  C   UNL     1      38.715  19.334 126.356 -0.15 -0.00    +0.000    129.496
ATOM      9  C   UNL     1      39.726  19.443 127.311 -0.16 -0.00    +0.000    129.496
ATOM     10  N   UNL     1      40.930  18.846 127.100 -0.29 -0.00    +0.000    129.496
ATOM     11  C   UNL     1      41.188  18.143 125.965 -0.30 -0.00    +0.000    129.496
ATOM     12  CM  UNL     1      39.980  18.737 126.173 +0.00 -0.00    +0.000    129.496
ATOM     13  C   UNL     1      38.800  15.180 121.079 -0.29 -0.00    +0.000    129.496
ATOM     14  C   UNL     1      38.631  13.674 120.808 -0.37 -0.00    +0.000    129.496
ATOM     15  C   UNL     1      37.772  12.919 121.840 -0.46 -0.00    +0.000    129.496
ATOM     16  C   UNL     1      36.706  12.020 121.190 -0.51 -0.00    +0.000    129.496
ATOM     17  C   UNL     1      36.063  11.061 122.200 -0.62 -0.00    +0.000    129.496
ATOM     18  O   UNL     1      37.044   9.215 121.039 -2.73 -0.00    +0.000    129.496
ATOM     19  C   UNL     1      36.683   9.695 122.148 -0.69 -0.00    +0.000    129.496
ATOM     20  N   UNL     1      36.840   8.925 123.342 -0.61 -0.00    +0.000    129.496
ATOM     21  O   UNL     1      37.386   7.687 123.293 -2.47 -0.00    +0.000    129.496
ATOM     22  H   UNL     1      36.549   9.297 124.206 -0.43 -0.00    +0.000    129.496
TER
ENDMDL
MODEL       79
USER    Run = 79
USER    Cluster Rank = 15
USER    Number of conformations in this cluster = 3
USER  
USER    RMSD from reference structure       = 127.257 A
USER  
USER    Estimated Free Energy of Binding    =   -9.13 kcal/mol  [=(1)+(2)+(3)-(4)]
USER    Estimated Inhibition Constant, Ki   =  203.27 nM (nanomolar)  [Temperature = 298.15 K]
USER    
USER    (1) Final Intermolecular Energy     =  -11.52 kcal/mol
USER        vdW + Hbond + desolv Energy     =  -11.52 kcal/mol
USER        Electrostatic Energy            =   +0.00 kcal/mol
USER    (2) Final Total Internal Energy     =   -2.39 kcal/mol
USER    (3) Torsional Free Energy           =   +2.39 kcal/mol
USER    (4) Unbound System's Energy  [=(2)] =   -2.39 kcal/mol
USER    
USER    
USER  
USER    DPF = ligand_dock.biased.dpf
USER    NEWDPF move	ligand.dum.pdbqt
USER    NEWDPF about	0.003000 -0.142000 -0.069000
USER    NEWDPF tran0	35.495499 13.699576 123.548808
USER    NEWDPF axisangle0	0.210145 0.735032 -0.644644 135.137727
USER    NEWDPF quaternion0	0.194245 0.679419 -0.595870 0.381573
USER    NEWDPF dihe0	119.82 -174.72 138.32 163.44 159.52 104.80 72.68 -160.84 
USER  
USER                              x       y       z    vdW   Elec        q     RMS 
ATOM      1  C   UNL     1      35.944  13.462 124.203 -0.42 -0.00    +0.000    127.257
ATOM      2  C   UNL     1      36.337  12.069 123.812 -0.70 -0.00    +0.000    127.257
ATOM      3  N   UNL     1      35.351  11.168 123.281 -0.51 -0.00    +0.000    127.257
ATOM      4  O   UNL     1      37.534  11.702 123.955 -0.66 -0.00    +0.000    127.257
ATOM      5  H   UNL     1      34.477  11.541 123.022 -0.11 -0.00    +0.000    127.257
ATOM      6  C   UNL     1      35.561   9.758 123.102 -0.54 -0.00    +0.000    127.257
ATOM      7  C   UNL     1      34.521   8.898 122.711 -0.55 -0.00    +0.000    127.257
ATOM      8  C   UNL     1      34.773   7.537 122.522 -0.62 -0.00    +0.000    127.257
ATOM      9  C   UNL     1      36.066   7.048 122.711 -0.68 -0.00    +0.000    127.257
ATOM     10  N   UNL     1      37.069   7.895 123.067 -2.31 -0.00    +0.000    127.257
ATOM     11  C   UNL     1      36.849   9.223 123.257 -0.39 -0.00    +0.000    127.257
ATOM     12  CM  UNL     1      35.841   8.379 122.899 +0.00 -0.00    +0.000    127.257
ATOM     13  C   UNL     1      35.844  14.357 122.962 -0.21 -0.00    +0.000    127.257
ATOM     14  C   UNL     1      37.092  15.233 122.749 -0.39 -0.00    +0.000    127.257
ATOM     15  C   UNL     1      38.437  14.513 122.957 -0.41 -0.00    +0.000    127.257
ATOM     16  C   UNL     1      39.067  14.026 121.641 -0.26 -0.00    +0.000    127.257
ATOM     17  C   UNL     1      38.089  14.111 120.463 -0.36 -0.00    +0.000    127.257
ATOM     18  O   UNL     1      37.021  12.598 118.950 -0.46 -0.00    +0.000    127.257
ATOM     19  C   UNL     1      37.555  12.761 120.081 -0.49 -0.00    +0.000    127.257
ATOM     20  N   UNL     1      37.621  11.669 121.000 -0.43 -0.00    +0.000    127.257
ATOM     21  O   UNL     1      37.126  10.455 120.661 -1.00 -0.00    +0.000    127.257
ATOM     22  H   UNL     1      38.029  11.799 121.887 -0.02 -0.00    +0.000    127.257
TER
ENDMDL
MODEL       12
USER    Run = 12
USER    Cluster Rank = 16
USER    Number of conformations in this cluster = 1
USER  
USER    RMSD from reference structure       = 128.253 A
USER  
USER    Estimated Free Energy of Binding    =   -9.09 kcal/mol  [=(1)+(2)+(3)-(4)]
USER    Estimated Inhibition Constant, Ki   =  218.60 nM (nanomolar)  [Temperature = 298.15 K]
USER    
USER    (1) Final Intermolecular Energy     =  -11.47 kcal/mol
USER        vdW + Hbond + desolv Energy     =  -11.47 kcal/mol
USER        Electrostatic Energy            =   +0.00 kcal/mol
USER    (2) Final Total Internal Energy     =   -0.77 kcal/mol
USER    (3) Torsional Free Energy           =   +2.39 kcal/mol
USER    (4) Unbound System's Energy  [=(2)] =   -0.77 kcal/mol
USER    
USER    
USER  
USER    DPF = ligand_dock.biased.dpf
USER    NEWDPF move	ligand.dum.pdbqt
USER    NEWDPF about	0.003000 -0.142000 -0.069000
USER    NEWDPF tran0	37.798003 15.602888 122.146319
USER    NEWDPF axisangle0	0.826310 -0.533282 -0.181169 142.374201
USER    NEWDPF quaternion0	0.782166 -0.504792 -0.171490 0.322479
USER    NEWDPF dihe0	114.37 153.68 92.57 56.76 128.64 -90.42 93.23 -176.48 
USER  
USER                              x       y       z    vdW   Elec        q     RMS 
ATOM      1  C   UNL     1      38.359  15.879 122.688 -0.31 -0.00    +0.000    128.253
ATOM      2  C   UNL     1      37.807  17.228 123.038 -0.22 -0.00    +0.000    128.253
ATOM      3  N   UNL     1      37.669  18.232 122.019 -0.09 -0.00    +0.000    128.253
ATOM      4  O   UNL     1      37.468  17.467 124.228 -0.27 -0.00    +0.000    128.253
ATOM      5  H   UNL     1      37.776  17.955 121.081 +0.00 -0.00    +0.000    128.253
ATOM      6  C   UNL     1      37.382  19.615 122.285 -0.10 -0.00    +0.000    128.253
ATOM      7  C   UNL     1      38.177  20.650 121.763 -0.05 -0.00    +0.000    128.253
ATOM      8  C   UNL     1      37.848  21.982 122.022 -0.07 -0.00    +0.000    128.253
ATOM      9  C   UNL     1      36.719  22.272 122.789 -0.11 -0.00    +0.000    128.253
ATOM     10  N   UNL     1      35.944  21.262 123.268 -0.22 -0.00    +0.000    128.253
ATOM     11  C   UNL     1      36.243  19.957 123.030 -0.15 -0.00    +0.000    128.253
ATOM     12  CM  UNL     1      37.022  20.965 122.546 +0.00 -0.00    +0.000    128.253
ATOM     13  C   UNL     1      37.220  14.894 122.397 -0.39 -0.00    +0.000    128.253
ATOM     14  C   UNL     1      36.562  14.341 123.674 -0.48 -0.00    +0.000    128.253
ATOM     15  C   UNL     1      35.947  12.936 123.532 -0.62 -0.00    +0.000    128.253
ATOM     16  C   UNL     1      37.000  11.842 123.286 -0.67 -0.00    +0.000    128.253
ATOM     17  C   UNL     1      36.799  11.135 121.940 -0.60 -0.00    +0.000    128.253
ATOM     18  O   UNL     1      37.047   8.942 121.021 -2.71 -0.00    +0.000    128.253
ATOM     19  C   UNL     1      36.947   9.646 122.062 -0.62 -0.00    +0.000    128.253
ATOM     20  N   UNL     1      36.947   9.021 123.347 -0.61 -0.00    +0.000    128.253
ATOM     21  O   UNL     1      37.067   7.677 123.456 -2.67 -0.00    +0.000    128.253
ATOM     22  H   UNL     1      36.860   9.571 124.159 -0.52 -0.00    +0.000    128.253
TER
ENDMDL
MODEL        7
USER    Run = 7
USER    Cluster Rank = 17
USER    Number of conformations in this cluster = 2
USER  
USER    RMSD from reference structure       = 127.676 A
USER  
USER    Estimated Free Energy of Binding    =   -8.89 kcal/mol  [=(1)+(2)+(3)-(4)]
USER    Estimated Inhibition Constant, Ki   =  302.65 nM (nanomolar)  [Temperature = 298.15 K]
USER    
USER    (1) Final Intermolecular Energy     =  -11.28 kcal/mol
USER        vdW + Hbond + desolv Energy     =  -11.28 kcal/mol
USER        Electrostatic Energy            =   +0.00 kcal/mol
USER    (2) Final Total Internal Energy     =   -1.68 kcal/mol
USER    (3) Torsional Free Energy           =   +2.39 kcal/mol
USER    (4) Unbound System's Energy  [=(2)] =   -1.68 kcal/mol
USER    
USER    
USER  
USER    DPF = ligand_dock.biased.dpf
USER    NEWDPF move	ligand.dum.pdbqt
USER    NEWDPF about	0.003000 -0.142000 -0.069000
USER    NEWDPF tran0	35.305722 14.030227 124.068865
USER    NEWDPF axisangle0	0.168276 -0.681409 0.712295 -115.279072
USER    NEWDPF quaternion0	0.142142 -0.575585 0.601674 -0.535244
USER    NEWDPF dihe0	-68.37 175.79 131.19 -150.10 -22.56 -168.03 38.07 -174.53 
USER  
USER                              x       y       z    vdW   Elec        q     RMS 
ATOM      1  C   UNL     1      36.104  13.873 124.218 -0.37 -0.00    +0.000    127.676
ATOM      2  C   UNL     1      36.352  12.690 123.331 -0.65 -0.00    +0.000    127.676
ATOM      3  N   UNL     1      35.599  11.481 123.522 -0.61 -0.00    +0.000    127.676
ATOM      4  O   UNL     1      37.223  12.769 122.424 -0.54 -0.00    +0.000    127.676
ATOM      5  H   UNL     1      34.815  11.514 124.118 -0.26 -0.00    +0.000    127.676
ATOM      6  C   UNL     1      35.917  10.226 122.898 -0.60 -0.00    +0.000    127.676
ATOM      7  C   UNL     1      35.341   9.018 123.326 -0.37 -0.00    +0.000    127.676
ATOM      8  C   UNL     1      35.656   7.824 122.675 -0.65 -0.00    +0.000    127.676
ATOM      9  C   UNL     1      36.533   7.846 121.590 -0.42 -0.00    +0.000    127.676
ATOM     10  N   UNL     1      37.066   9.025 121.170 -2.62 -0.00    +0.000    127.676
ATOM     11  C   UNL     1      36.775  10.201 121.787 -0.44 -0.00    +0.000    127.676
ATOM     12  CM  UNL     1      36.237   9.023 122.212 +0.00 -0.00    +0.000    127.676
ATOM     13  C   UNL     1      35.069  14.809 123.583 -0.47 -0.00    +0.000    127.676
ATOM     14  C   UNL     1      35.482  16.291 123.641 -0.43 -0.00    +0.000    127.676
ATOM     15  C   UNL     1      35.371  17.051 122.307 -0.32 -0.00    +0.000    127.676
ATOM     16  C   UNL     1      36.613  16.884 121.415 -0.20 -0.00    +0.000    127.676
ATOM     17  C   UNL     1      37.239  15.490 121.548 -0.27 -0.00    +0.000    127.676
ATOM     18  O   UNL     1      39.016  16.626 122.675 -0.24 -0.00    +0.000    127.676
ATOM     19  C   UNL     1      38.605  15.547 122.169 -0.32 -0.00    +0.000    127.676
ATOM     20  N   UNL     1      39.451  14.395 122.166 -0.38 -0.00    +0.000    127.676
ATOM     21  O   UNL     1      40.687  14.451 122.714 -1.07 -0.00    +0.000    127.676
ATOM     22  H   UNL     1      39.133  13.555 121.763 -0.03 -0.00    +0.000    127.676
TER
ENDMDL


AVSFLD: # AVS field file
AVSFLD: #
AVSFLD: # Created by AutoDock
AVSFLD: #
AVSFLD: ndim=2           # number of dimensions in the field
AVSFLD: nspace=1         # number of physical coordinates
AVSFLD: veclen=7         # vector size
AVSFLD: dim1=22          # atoms
AVSFLD: dim2=17          # conformations
AVSFLD: data=Real       # data type (byte,integer,Real,double)
AVSFLD: field=uniform    # field coordinate layout
AVSFLD: label= x y z vdW Elec q RMS
AVSFLD: variable 1 file = ligand_dock.biased.dlg.pdb filetype = ascii offset = 5 stride = 12
AVSFLD: variable 2 file = ligand_dock.biased.dlg.pdb filetype = ascii offset = 6 stride = 12
AVSFLD: variable 3 file = ligand_dock.biased.dlg.pdb filetype = ascii offset = 7 stride = 12
AVSFLD: variable 4 file = ligand_dock.biased.dlg.pdb filetype = ascii offset = 8 stride = 12
AVSFLD: variable 5 file = ligand_dock.biased.dlg.pdb filetype = ascii offset = 9 stride = 12
AVSFLD: variable 6 file = ligand_dock.biased.dlg.pdb filetype = ascii offset = 10 stride = 12
AVSFLD: variable 7 file = ligand_dock.biased.dlg.pdb filetype = ascii offset = 11 stride = 12
AVSFLD: # end of file

>>> Closing the docking parameter file (DPF)...
This docking finished at:			6:18 28" p.m., 11/08/2024


________________________________________________________________________________

autodock4: Successful Completion on "ThinkStation-P620"

Real= 11m 19.77s,  CPU= 11m 19.44s,  System= 0.25s
________________________________________________________________________________

