          AutoDock 4.2 Release 4.2.6   
         (C) 1989-2012 The Scripps Research Institute
        AutoDock comes with ABSOLUTELY NO WARRANTY.
        AutoDock is free software, and you are welcome
        to redistribute it under certain conditions;
        for details type 'autodock4 -C'

                     main.cc  $Revision: 1.213 $

                   Compiled on Feb 20 2022 at 09:48:33


This file was created at:			6:07 09" p.m., 11/08/2024
                   on host:		"ThinkStation-P620"
Current Working Directory = "/home/antonio/Documenti/buccheri/IDROSSAMICO HDAC/HDAC 8/DP (copia)/Ligand_3"

      ________________________________________________________________

                   SETTING UP DEFAULT PARAMETER LIBRARY
      ________________________________________________________________


Random number generator was seeded with values 355267, 1731085629.
Docking parameter file (DPF) used for this docking:		ligand_dock.biased.dpf
DPF> parameter_file ad4_arom_params.dat

Using read_parameter_library() to try to open and read "ad4_arom_params.dat".

DPF> autodock_parameter_version 4.2       # used by autodock to validate parameter set

	Autodock parameter version 4.2.
DPF> outlev 1                             # diagnostic output level

Output Level = 1  ADT-COMPATIBLE OUTPUT DURING DOCKING.
DPF> intelec                              # calculate internal electrostatics

Electrostatic energies will be calculated for all non-bonds between moving atoms.
DPF> seed pid time                        # seeds for random generator

Random number generator was seeded with values 355267, 1731085629.
DPF> ligand_types A C HD OA N AC

WARNING: pairwise distance, Rij, 0.00, is not a very reasonable value for the equilibrium separation of two atoms! (0.90 Angstroms <= Rij <= 6.00 Angstroms)

Perhaps you meant to use "intnbp_coeffs" instead of "intnbp_r_eps"?

DPF> fld receptor.maps.fld                # grid_data_file

Opening Grid Map Dimensions file:		receptor.maps.fld
Grid Point Spacing =				0.375 Angstroms

Even Number of User-specified Grid Points =	70 x-points
						70 y-points
						70 z-points

Coordinates of Central Grid Point of Maps =	(36.691, 12.592, 124.207)
Macromolecule file used to create Grid Maps =	receptor.pdbqt
Grid Parameter file used to create Grid Maps =	receptor.gpf
Minimum coordinates in grid = (23.566, -0.533, 111.082)
Maximum coordinates in grid = (49.816, 25.717, 137.332)

DPF> map receptor.A.map                   # atom-specific affinity map

DPF> map receptor.C.map                   # atom-specific affinity map

DPF> map receptor.HD.map                  # atom-specific affinity map

DPF> map receptor.OA.biased.map

DPF> map receptor.N.map                   # atom-specific affinity map

DPF> map receptor.AC.biased.map

DPF> elecmap receptor.e.map               # electrostatics map

DPF> desolvmap receptor.d.map             # desolvation map

DPF> move ligand.dum.pdbqt

1,4-interactions will be _ignored_ in the non-bonded internal energy calculation.

Ligand PDBQT file = "ligand.dum.pdbqt"

INPUT LIGAND PDBQT FILE:
________________________

INPUT-LIGAND-PDBQT: REMARK  Name = 
INPUT-LIGAND-PDBQT: REMARK  10 active torsions:
INPUT-LIGAND-PDBQT: REMARK  status: ('A' for Active; 'I' for Inactive)
INPUT-LIGAND-PDBQT: REMARK    1  A    between atoms: C_1  and  N_2
INPUT-LIGAND-PDBQT: REMARK    2  A    between atoms: N_2  and  C_3
INPUT-LIGAND-PDBQT: REMARK    3  A    between atoms: N_2  and  C_22
INPUT-LIGAND-PDBQT: REMARK    4  A    between atoms: C_6  and  C_9
INPUT-LIGAND-PDBQT: REMARK    5  A    between atoms: C_9  and  C_10
INPUT-LIGAND-PDBQT: REMARK    6  A    between atoms: C_10  and  C_11
INPUT-LIGAND-PDBQT: REMARK    7  A    between atoms: C_10  and  C_20
INPUT-LIGAND-PDBQT: REMARK    8  A    between atoms: C_12  and  C_13
INPUT-LIGAND-PDBQT: REMARK    9  A    between atoms: C_12  and  C_19
INPUT-LIGAND-PDBQT: REMARK   10  A    between atoms: C_14  and  C_15
INPUT-LIGAND-PDBQT: REMARK                            x       y       z     vdW  Elec       q    Type
INPUT-LIGAND-PDBQT: REMARK                         _______ _______ _______ _____ _____    ______ ____
INPUT-LIGAND-PDBQT: ROOT
INPUT-LIGAND-PDBQT: ATOM      1  C   UNL     1      -0.967   0.598   1.450  0.00  0.00     0.000 C 
INPUT-LIGAND-PDBQT: ATOM      2  C   UNL     1      -1.034   1.504   2.682  0.00  0.00     0.000 C 
INPUT-LIGAND-PDBQT: ENDROOT
INPUT-LIGAND-PDBQT: BRANCH   1   3
INPUT-LIGAND-PDBQT: ATOM      3  C   UNL     1      -2.312  -0.061   1.215  0.00  0.00     0.000 C 
INPUT-LIGAND-PDBQT: ATOM      4  C   UNL     1      -3.289   0.437   0.428  0.00  0.00     0.000 C 
INPUT-LIGAND-PDBQT: ATOM      5  C   UNL     1      -3.121   1.736  -0.328  0.00  0.00     0.000 C 
INPUT-LIGAND-PDBQT: BRANCH   4   6
INPUT-LIGAND-PDBQT: ATOM      6  C   UNL     1      -4.536  -0.358   0.284  0.00  0.00     0.000 C 
INPUT-LIGAND-PDBQT: ATOM      7  C   UNL     1      -5.330  -0.284  -0.795  0.00  0.00     0.000 C 
INPUT-LIGAND-PDBQT: BRANCH   7   8
INPUT-LIGAND-PDBQT: ATOM      8  C   UNL     1      -6.570  -1.072  -0.950  0.00  0.00     0.000 C 
INPUT-LIGAND-PDBQT: ATOM      9  N   UNL     1      -6.846  -2.233  -0.158  0.00  0.00     0.000 N 
INPUT-LIGAND-PDBQT: ATOM     10  O   UNL     1      -8.041  -2.859  -0.265  0.00  0.00     0.000 OA
INPUT-LIGAND-PDBQT: ATOM     11  O   UNL     1      -7.399  -0.717  -1.830  0.00  0.00     0.000 OA
INPUT-LIGAND-PDBQT: ATOM     12  H   UNL     1      -6.165  -2.576   0.466  0.00  0.00     0.000 HD
INPUT-LIGAND-PDBQT: ENDBRANCH   7   8
INPUT-LIGAND-PDBQT: ENDBRANCH   4   6
INPUT-LIGAND-PDBQT: ENDBRANCH   1   3
INPUT-LIGAND-PDBQT: BRANCH   1  13
INPUT-LIGAND-PDBQT: ATOM     13  C   UNL     1       0.117  -0.445   1.637  0.00  0.00     0.000 C 
INPUT-LIGAND-PDBQT: ATOM     14  O   UNL     1      -0.099  -1.422   2.408  0.00  0.00     0.000 OA
INPUT-LIGAND-PDBQT: BRANCH  13  18
INPUT-LIGAND-PDBQT: ATOM     15  C   UNL     1       3.982  -0.185  -0.283  0.00  0.00     0.000 A 
INPUT-LIGAND-PDBQT: ATOM     16  C   UNL     1       3.435  -1.427   0.094  0.00  0.00     0.000 A 
INPUT-LIGAND-PDBQT: ATOM     17  C   UNL     1       2.186  -1.502   0.715  0.00  0.00     0.000 A 
INPUT-LIGAND-PDBQT: ATOM     18  C   UNL     1       1.441  -0.340   0.970  0.00  0.00     0.000 A 
INPUT-LIGAND-PDBQT: ATOM     19  C   UNL     1       1.986   0.904   0.608  0.00  0.00     0.000 A 
INPUT-LIGAND-PDBQT: ATOM     20  C   UNL     1       3.236   0.980  -0.012  0.00  0.00     0.000 A 
INPUT-LIGAND-PDBQT: ATOM     24  CM  UNL     1       2.711  -0.262   0.349  1.00  0.00     0.000 AC
INPUT-LIGAND-PDBQT: BRANCH  15  22
INPUT-LIGAND-PDBQT: ATOM     21  C   UNL     1       6.045   1.148  -0.918  0.00  0.00     0.000 C 
INPUT-LIGAND-PDBQT: ATOM     22  N   UNL     1       5.280  -0.106  -0.929  0.00  0.00     0.000 N 
INPUT-LIGAND-PDBQT: ATOM     23  C   UNL     1       5.850  -1.278  -1.604  0.00  0.00     0.000 C 
INPUT-LIGAND-PDBQT: ENDBRANCH  15  22
INPUT-LIGAND-PDBQT: ENDBRANCH  13  18
INPUT-LIGAND-PDBQT: ENDBRANCH   1  13
INPUT-LIGAND-PDBQT: TORSDOF 6________________________________________________________________________________

Total charge on ligand                               =	+0.000 e
REMARK  Name = 
REMARK  10 active torsions:
REMARK  status: ('A' for Active; 'I' for Inactive)
REMARK    1  A    between atoms: C_1  and  N_2
REMARK    2  A    between atoms: N_2  and  C_3
REMARK    3  A    between atoms: N_2  and  C_22
REMARK    4  A    between atoms: C_6  and  C_9
REMARK    5  A    between atoms: C_9  and  C_10
REMARK    6  A    between atoms: C_10  and  C_11
REMARK    7  A    between atoms: C_10  and  C_20
REMARK    8  A    between atoms: C_12  and  C_13
REMARK    9  A    between atoms: C_12  and  C_19
REMARK   10  A    between atoms: C_14  and  C_15
REMARK                            x       y       z     vdW  Elec       q    Type
REMARK                         _______ _______ _______ _____ _____    ______ ____


Number of Rotatable Bonds in Small Molecule =	6 torsions
Number of atoms in ligand:  24

Number of non-hydrogen atoms in ligand:  23

Number of vibrational degrees of freedom of ligand:  66


Number of torsional degrees of freedom = 6
Estimated loss of torsional free energy upon binding = +1.7898 kcal/mol


DPF> about -0.963 -0.416 0.212            # small molecule center

Small molecule center of rotation =	(-0.963, -0.416, +0.212)

DPF> tran0 random                         # initial coordinates/A or random

Initial translation =			(44.894, 8.992, 116.487) Angstroms
DPF> quaternion0 random                   # initial orientation

Each run will begin with a new, random initial orientation.
Initial quaternion,  (x,y,z,w) =	( 0.094, -0.620, -0.275, 0.729 ),
DPF> dihe0 random                         # initial dihedrals (relative) or random

DPF> torsdof 6                            # torsional degrees of freedom

Number of torsional degrees of freedom = 6
Free energy coefficient for torsional degrees of freedom = 0.2983 as specified in parameter library "ad4_arom_params.dat".

Estimated loss of torsional free energy upon binding = +1.7898 kcal/mol

DPF> rmstol 2.0                           # cluster_tolerance/A

Maximum RMS tolerance for conformational cluster analysis = 2.00 Angstroms
DPF> extnrg 1000.0                        # external grid energy

External grid energy (beyond grid map walls) = 1000.00

DPF> e0max 0.0 10000                      # max initial energy; max number of retries

Using user-specified maximum number of retries for simanneal initialization, 10000 retries.
If the simanneal initial energy is greater than e0max, 0.000,
then a new, random initial state will be created.

DPF> ga_pop_size 150                      # number of individuals in population

A population of 150 individuals will be used
DPF> ga_num_evals 2500000                 # maximum number of energy evaluations

There will be at most 2500000 function evaluations used.
DPF> ga_num_generations 27000             # maximum number of generations

The GA will run for at most 27000 generations.
DPF> ga_elitism 1                         # number of top individuals to survive to next generation

The 1 best will be preserved each GA generation.
DPF> ga_mutation_rate 0.02                # rate of gene mutation

The mutation rate is 0.020000.
DPF> ga_crossover_rate 0.8                # rate of crossover

The crossover rate is 0.800000.
DPF> ga_window_size 10                    # 

The GA's selection window is 10 generations.
DPF> ga_cauchy_alpha 0.0                  # Alpha parameter of Cauchy distribution

The alpha parameter (for the Cauchy distribution) is being set to 0.000000.
DPF> ga_cauchy_beta 1.0                   # Beta parameter Cauchy distribution

The beta parameter (for the Cauchy distribution) is being set to 1.000000.
DPF> set_ga                               # set the above parameters for GA or LGA

DPF> sw_max_its 300                       # iterations of Solis & Wets local search

Solis & Wets algorithms will perform at most 300 iterations.
DPF> sw_max_succ 4                        # consecutive successes before changing rho

Solis & Wets algorithms expand rho every 4 in a row successes.
DPF> sw_max_fail 4                        # consecutive failures before changing rho

Solis & Wets algorithms contract rho every 4 in a row failures.
DPF> sw_rho 1.0                           # size of local search space to sample

rho is set to 1.000000.
DPF> sw_lb_rho 0.01                       # lower bound on rho

rho will never get smaller than 0.010000.
DPF> ls_search_freq 0.06                  # probability of performing local search on individual

Local search will be performed with frequency 0.060000.
DPF> set_psw1                             # set the above pseudo-Solis & Wets parameters

Creating a new Local Search object using the pseudo-Solis-Wets algorithm (pSW1) with the current settings.

DPF> unbound_model bound                  # state of unbound ligand

DPF> ga_run 100                           # do this many hybrid GA-LS runs

centering ligand on specified point: -0.963 -0.416 0.212
Furthest true ligand atom from "about" center is 7.503 Angstroms (maxrad).
Number of requested GA dockings = 100 runs
Unbound model to be used is 'same as bound' [AutoDock 4.2 default].

	BEGINNING GENETIC ALGORITHM DOCKING 1 of 100
Run: 1 Seed: 1454543622 968752072 [ Run 1 of 100 GA/GALS ]
Beginning LAMARCKIAN GENETIC ALGORITHM (LGA), with a maximum of 2500000 energy evaluations.

Final-Value: -14.946


	FINAL GENETIC ALGORITHM DOCKED STATE
	_______________________________________________


Detailed state:  trans 36.716 14.916 123.555 quatxyzw -0.561811 -0.814249 -0.141082 -0.038247 center -0.963 -0.416 0.212 ntor 6 180.0000 -180.0000 174.8759 -145.1724 -102.7653 -40.1572
State:	 36.716  14.916 123.555  -0.562 -0.815 -0.141 -175.616    180.00 -180.00  174.88 -145.17 -102.77  -40.16

DOCKED: MODEL        1
DOCKED: USER    Run = 1
DOCKED: USER    DPF = ligand_dock.biased.dpf
DOCKED: USER  
DOCKED: USER    Estimated Free Energy of Binding    =  -12.20 kcal/mol  [=(1)+(2)+(3)-(4)]
DOCKED: USER    Estimated Inhibition Constant, Ki   =    1.14 nM (nanomolar)  [Temperature = 298.15 K]
DOCKED: USER    
DOCKED: USER    (1) Final Intermolecular Energy     =  -13.99 kcal/mol
DOCKED: USER        vdW + Hbond + desolv Energy     =  -13.99 kcal/mol
DOCKED: USER        Electrostatic Energy            =   +0.00 kcal/mol
DOCKED: USER    (2) Final Total Internal Energy     =   -0.95 kcal/mol
DOCKED: USER    (3) Torsional Free Energy           =   +1.79 kcal/mol
DOCKED: USER    (4) Unbound System's Energy  [=(2)] =   -0.95 kcal/mol
DOCKED: USER    
DOCKED: USER    
DOCKED: USER    NEWDPF move ligand.dum.pdbqt
DOCKED: USER    NEWDPF about -0.963000 -0.416000 0.212000
DOCKED: USER    NEWDPF tran0 36.715667 14.916235 123.555486
DOCKED: USER    NEWDPF quaternion0 -0.561811 -0.814249 -0.141082 -0.038247
DOCKED: USER    NEWDPF axisangle0 -0.562222 -0.814845 -0.141185 -175.616201
DOCKED: USER    NEWDPF quat0 -0.562222 -0.814845 -0.141185 -175.616201
DOCKED: USER    NEWDPF dihe0 180.00 -180.00 174.88 -145.17 -102.77 -40.16 
DOCKED: USER  keepresnum = 1 
DOCKED: USER  
DOCKED: REMARK  Name = 
DOCKED: REMARK  10 active torsions:
DOCKED: REMARK  status: ('A' for Active; 'I' for Inactive)
DOCKED: REMARK    1  A    between atoms: C_1  and  N_2
DOCKED: REMARK    2  A    between atoms: N_2  and  C_3
DOCKED: REMARK    3  A    between atoms: N_2  and  C_22
DOCKED: REMARK    4  A    between atoms: C_6  and  C_9
DOCKED: REMARK    5  A    between atoms: C_9  and  C_10
DOCKED: REMARK    6  A    between atoms: C_10  and  C_11
DOCKED: REMARK    7  A    between atoms: C_10  and  C_20
DOCKED: REMARK    8  A    between atoms: C_12  and  C_13
DOCKED: REMARK    9  A    between atoms: C_12  and  C_19
DOCKED: REMARK   10  A    between atoms: C_14  and  C_15
DOCKED: REMARK                            x       y       z     vdW  Elec       q    Type
DOCKED: REMARK                         _______ _______ _______ _____ _____    ______ ____
DOCKED: USER                              x       y       z     vdW  Elec       q    Type
DOCKED: USER                           _______ _______ _______ _____ _____    ______ ____
DOCKED: ROOT
DOCKED: ATOM      1  C   UNL     1      37.775  15.584 122.559 -0.34 -0.00    +0.000 C 
DOCKED: ATOM      2  C   UNL     1      38.757  16.157 121.534 -0.21 -0.00    +0.000 C 
DOCKED: ENDROOT
DOCKED: BRANCH   1   3
DOCKED: ATOM      3  C   UNL     1      37.634  14.087 122.364 -0.47 -0.00    +0.000 C 
DOCKED: ATOM      4  C   UNL     1      37.318  13.486 121.197 -0.44 -0.00    +0.000 C 
DOCKED: ATOM      5  C   UNL     1      37.081  14.278 119.930 -0.31 -0.00    +0.000 C 
DOCKED: BRANCH   4   6
DOCKED: ATOM      6  C   UNL     1      37.254  12.002 121.176 -0.52 -0.00    +0.000 C 
DOCKED: ATOM      7  C   UNL     1      37.077  11.262 122.281 -0.56 -0.00    +0.000 C 
DOCKED: BRANCH   7   8
DOCKED: ATOM      8  C   UNL     1      37.009   9.787 122.272 -0.60 -0.00    +0.000 C 
DOCKED: ATOM      9  N   UNL     1      37.188   9.002 123.456 -0.55 -0.00    +0.000 N 
DOCKED: ATOM     10  O   UNL     1      37.013   7.661 123.415 -2.61 -0.00    +0.000 OA
DOCKED: ATOM     11  O   UNL     1      36.808   9.204 121.173 -2.66 -0.00    +0.000 OA
DOCKED: ATOM     12  H   UNL     1      37.439   9.439 124.303 -0.64 -0.00    +0.000 HD
DOCKED: ENDBRANCH   7   8
DOCKED: ENDBRANCH   4   6
DOCKED: ENDBRANCH   1   3
DOCKED: BRANCH   1  13
DOCKED: ATOM     13  C   UNL     1      36.431  16.272 122.424 -0.29 -0.00    +0.000 C 
DOCKED: ATOM     14  O   UNL     1      36.030  16.614 121.277 -0.25 -0.00    +0.000 OA
DOCKED: BRANCH  13  18
DOCKED: ATOM     15  C   UNL     1      33.991  17.238 125.860 -0.37 -0.00    +0.000 A 
DOCKED: ATOM     16  C   UNL     1      34.743  18.226 125.197 -0.29 -0.00    +0.000 A 
DOCKED: ATOM     17  C   UNL     1      35.530  17.906 124.088 -0.27 -0.00    +0.000 A 
DOCKED: ATOM     18  C   UNL     1      35.582  16.590 123.602 -0.35 -0.00    +0.000 A 
DOCKED: ATOM     19  C   UNL     1      34.844  15.595 124.267 -0.51 -0.00    +0.000 A 
DOCKED: ATOM     20  C   UNL     1      34.058  15.915 125.378 -0.42 -0.00    +0.000 A 
DOCKED: ATOM     21  CM  UNL     1      34.792  16.912 124.732 -0.27 -0.00    +0.000 AC
DOCKED: BRANCH  15  22
DOCKED: ATOM     22  C   UNL     1      32.744  18.955 127.250 -0.26 -0.00    +0.000 C 
DOCKED: ATOM     23  N   UNL     1      33.173  17.570 127.013 -0.35 -0.00    +0.000 N 
DOCKED: ATOM     24  C   UNL     1      32.759  16.528 127.960 -0.46 -0.00    +0.000 C 
DOCKED: ENDBRANCH  15  22
DOCKED: ENDBRANCH  13  18
DOCKED: ENDBRANCH   1  13
DOCKED: TORSDOF 6DOCKED: TER
DOCKED: ENDMDL
________________________________________________________________________________


	BEGINNING GENETIC ALGORITHM DOCKING 2 of 100
Run: 2 Seed: 1744791253 779241061 [ Run 2 of 100 GA/GALS ]
Beginning LAMARCKIAN GENETIC ALGORITHM (LGA), with a maximum of 2500000 energy evaluations.

Final-Value: -15.148


	FINAL GENETIC ALGORITHM DOCKED STATE
	_______________________________________________


Detailed state:  trans 36.198 14.813 122.075 quatxyzw 0.426421 0.787038 0.229316 -0.382297 center -0.963 -0.416 0.212 ntor 6 -80.4176 11.2497 103.4060 49.7311 22.9189 174.7255
State:	 36.198  14.813 122.075   0.461  0.852  0.248 -135.048    -80.42   11.25  103.41   49.73   22.92  174.73

DOCKED: MODEL        2
DOCKED: USER    Run = 2
DOCKED: USER    DPF = ligand_dock.biased.dpf
DOCKED: USER  
DOCKED: USER    Estimated Free Energy of Binding    =  -12.09 kcal/mol  [=(1)+(2)+(3)-(4)]
DOCKED: USER    Estimated Inhibition Constant, Ki   =    1.37 nM (nanomolar)  [Temperature = 298.15 K]
DOCKED: USER    
DOCKED: USER    (1) Final Intermolecular Energy     =  -13.88 kcal/mol
DOCKED: USER        vdW + Hbond + desolv Energy     =  -13.88 kcal/mol
DOCKED: USER        Electrostatic Energy            =   +0.00 kcal/mol
DOCKED: USER    (2) Final Total Internal Energy     =   -1.27 kcal/mol
DOCKED: USER    (3) Torsional Free Energy           =   +1.79 kcal/mol
DOCKED: USER    (4) Unbound System's Energy  [=(2)] =   -1.27 kcal/mol
DOCKED: USER    
DOCKED: USER    
DOCKED: USER    NEWDPF move ligand.dum.pdbqt
DOCKED: USER    NEWDPF about -0.963000 -0.416000 0.212000
DOCKED: USER    NEWDPF tran0 36.197968 14.813171 122.074702
DOCKED: USER    NEWDPF quaternion0 0.426421 0.787038 0.229316 -0.382297
DOCKED: USER    NEWDPF axisangle0 0.461475 0.851736 0.248166 -135.047890
DOCKED: USER    NEWDPF quat0 0.461475 0.851736 0.248166 -135.047890
DOCKED: USER    NEWDPF dihe0 -80.42 11.25 103.41 49.73 22.92 174.73 
DOCKED: USER  keepresnum = 1 
DOCKED: USER  
DOCKED: REMARK  Name = 
DOCKED: REMARK  10 active torsions:
DOCKED: REMARK  status: ('A' for Active; 'I' for Inactive)
DOCKED: REMARK    1  A    between atoms: C_1  and  N_2
DOCKED: REMARK    2  A    between atoms: N_2  and  C_3
DOCKED: REMARK    3  A    between atoms: N_2  and  C_22
DOCKED: REMARK    4  A    between atoms: C_6  and  C_9
DOCKED: REMARK    5  A    between atoms: C_9  and  C_10
DOCKED: REMARK    6  A    between atoms: C_10  and  C_11
DOCKED: REMARK    7  A    between atoms: C_10  and  C_20
DOCKED: REMARK    8  A    between atoms: C_12  and  C_13
DOCKED: REMARK    9  A    between atoms: C_12  and  C_19
DOCKED: REMARK   10  A    between atoms: C_14  and  C_15
DOCKED: REMARK                            x       y       z     vdW  Elec       q    Type
DOCKED: REMARK                         _______ _______ _______ _____ _____    ______ ____
DOCKED: USER                              x       y       z     vdW  Elec       q    Type
DOCKED: USER                           _______ _______ _______ _____ _____    ______ ____
DOCKED: ROOT
DOCKED: ATOM      1  C   UNL     1      37.689  15.392 122.027 -0.31 -0.00    +0.000 C 
DOCKED: ATOM      2  C   UNL     1      39.144  15.859 121.934 -0.28 -0.00    +0.000 C 
DOCKED: ENDROOT
DOCKED: BRANCH   1   3
DOCKED: ATOM      3  C   UNL     1      37.638  13.895 122.262 -0.48 -0.00    +0.000 C 
DOCKED: ATOM      4  C   UNL     1      36.756  13.270 123.071 -0.59 -0.00    +0.000 C 
DOCKED: ATOM      5  C   UNL     1      35.693  14.030 123.832 -0.56 -0.00    +0.000 C 
DOCKED: BRANCH   4   6
DOCKED: ATOM      6  C   UNL     1      36.826  11.788 123.160 -0.68 -0.00    +0.000 C 
DOCKED: ATOM      7  C   UNL     1      36.858  10.991 122.081 -0.59 -0.00    +0.000 C 
DOCKED: BRANCH   7   8
DOCKED: ATOM      8  C   UNL     1      36.932   9.518 122.158 -0.64 -0.00    +0.000 C 
DOCKED: ATOM      9  N   UNL     1      37.109   8.822 123.398 -0.62 -0.00    +0.000 N 
DOCKED: ATOM     10  O   UNL     1      37.065   7.470 123.429 -2.51 -0.00    +0.000 OA
DOCKED: ATOM     11  O   UNL     1      36.859   8.858 121.088 -2.65 -0.00    +0.000 OA
DOCKED: ATOM     12  H   UNL     1      37.262   9.328 124.229 -0.61 -0.00    +0.000 HD
DOCKED: ENDBRANCH   7   8
DOCKED: ENDBRANCH   4   6
DOCKED: ENDBRANCH   1   3
DOCKED: BRANCH   1  13
DOCKED: ATOM     13  C   UNL     1      36.948  15.762 120.757 -0.21 -0.00    +0.000 C 
DOCKED: ATOM     14  O   UNL     1      36.071  16.670 120.802 -0.23 -0.00    +0.000 OA
DOCKED: BRANCH  13  18
DOCKED: ATOM     15  C   UNL     1      37.647  13.787 116.975 -0.34 -0.00    +0.000 A 
DOCKED: ATOM     16  C   UNL     1      37.638  15.192 117.076 -0.18 -0.00    +0.000 A 
DOCKED: ATOM     17  C   UNL     1      37.410  15.822 118.302 -0.15 -0.00    +0.000 A 
DOCKED: ATOM     18  C   UNL     1      37.194  15.069 119.466 -0.22 -0.00    +0.000 A 
DOCKED: ATOM     19  C   UNL     1      37.189  13.666 119.371 -0.36 -0.00    +0.000 A 
DOCKED: ATOM     20  C   UNL     1      37.416  13.035 118.145 -0.32 -0.00    +0.000 A 
DOCKED: ATOM     21  CM  UNL     1      37.415  14.429 118.222 +0.00 -0.00    +0.000 AC
DOCKED: BRANCH  15  22
DOCKED: ATOM     22  C   UNL     1      39.024  12.220 115.531 -0.54 -0.00    +0.000 C 
DOCKED: ATOM     23  N   UNL     1      37.884  13.132 115.702 -0.45 -0.00    +0.000 N 
DOCKED: ATOM     24  C   UNL     1      36.989  13.368 114.563 -0.37 -0.00    +0.000 C 
DOCKED: ENDBRANCH  15  22
DOCKED: ENDBRANCH  13  18
DOCKED: ENDBRANCH   1  13
DOCKED: TORSDOF 6DOCKED: TER
DOCKED: ENDMDL
________________________________________________________________________________


	BEGINNING GENETIC ALGORITHM DOCKING 3 of 100
Run: 3 Seed: 442186645 1022308309 [ Run 3 of 100 GA/GALS ]
Beginning LAMARCKIAN GENETIC ALGORITHM (LGA), with a maximum of 2500000 energy evaluations.

Final-Value: -14.909


	FINAL GENETIC ALGORITHM DOCKED STATE
	_______________________________________________


Detailed state:  trans 35.698 14.710 125.084 quatxyzw -0.487803 -0.829075 0.074848 -0.262834 center -0.963 -0.416 0.212 ntor 6 74.1806 7.5330 -101.4345 -24.7393 -163.2407 16.6449
State:	 35.698  14.710 125.084  -0.506 -0.859  0.078 -149.523     74.18    7.53 -101.43  -24.74 -163.24   16.64

DOCKED: MODEL        3
DOCKED: USER    Run = 3
DOCKED: USER    DPF = ligand_dock.biased.dpf
DOCKED: USER  
DOCKED: USER    Estimated Free Energy of Binding    =  -12.17 kcal/mol  [=(1)+(2)+(3)-(4)]
DOCKED: USER    Estimated Inhibition Constant, Ki   =    1.21 nM (nanomolar)  [Temperature = 298.15 K]
DOCKED: USER    
DOCKED: USER    (1) Final Intermolecular Energy     =  -13.96 kcal/mol
DOCKED: USER        vdW + Hbond + desolv Energy     =  -13.96 kcal/mol
DOCKED: USER        Electrostatic Energy            =   +0.00 kcal/mol
DOCKED: USER    (2) Final Total Internal Energy     =   -0.95 kcal/mol
DOCKED: USER    (3) Torsional Free Energy           =   +1.79 kcal/mol
DOCKED: USER    (4) Unbound System's Energy  [=(2)] =   -0.95 kcal/mol
DOCKED: USER    
DOCKED: USER    
DOCKED: USER    NEWDPF move ligand.dum.pdbqt
DOCKED: USER    NEWDPF about -0.963000 -0.416000 0.212000
DOCKED: USER    NEWDPF tran0 35.697624 14.710147 125.084447
DOCKED: USER    NEWDPF quaternion0 -0.487803 -0.829075 0.074848 -0.262834
DOCKED: USER    NEWDPF axisangle0 -0.505578 -0.859286 0.077575 -149.523481
DOCKED: USER    NEWDPF quat0 -0.505578 -0.859286 0.077575 -149.523481
DOCKED: USER    NEWDPF dihe0 74.18 7.53 -101.43 -24.74 -163.24 16.64 
DOCKED: USER  keepresnum = 1 
DOCKED: USER  
DOCKED: REMARK  Name = 
DOCKED: REMARK  10 active torsions:
DOCKED: REMARK  status: ('A' for Active; 'I' for Inactive)
DOCKED: REMARK    1  A    between atoms: C_1  and  N_2
DOCKED: REMARK    2  A    between atoms: N_2  and  C_3
DOCKED: REMARK    3  A    between atoms: N_2  and  C_22
DOCKED: REMARK    4  A    between atoms: C_6  and  C_9
DOCKED: REMARK    5  A    between atoms: C_9  and  C_10
DOCKED: REMARK    6  A    between atoms: C_10  and  C_11
DOCKED: REMARK    7  A    between atoms: C_10  and  C_20
DOCKED: REMARK    8  A    between atoms: C_12  and  C_13
DOCKED: REMARK    9  A    between atoms: C_12  and  C_19
DOCKED: REMARK   10  A    between atoms: C_14  and  C_15
DOCKED: REMARK                            x       y       z     vdW  Elec       q    Type
DOCKED: REMARK                         _______ _______ _______ _____ _____    ______ ____
DOCKED: USER                              x       y       z     vdW  Elec       q    Type
DOCKED: USER                           _______ _______ _______ _____ _____    ______ ____
DOCKED: ROOT
DOCKED: ATOM      1  C   UNL     1      35.850  15.391 123.644 -0.48 -0.00    +0.000 C 
DOCKED: ATOM      2  C   UNL     1      35.946  15.961 122.227 -0.23 -0.00    +0.000 C 
DOCKED: ENDROOT
DOCKED: BRANCH   1   3
DOCKED: ATOM      3  C   UNL     1      35.981  13.881 123.607 -0.56 -0.00    +0.000 C 
DOCKED: ATOM      4  C   UNL     1      37.101  13.211 123.260 -0.58 -0.00    +0.000 C 
DOCKED: ATOM      5  C   UNL     1      38.374  13.931 122.876 -0.44 -0.00    +0.000 C 
DOCKED: BRANCH   4   6
DOCKED: ATOM      6  C   UNL     1      37.064  11.727 123.309 -0.67 -0.00    +0.000 C 
DOCKED: ATOM      7  C   UNL     1      36.990  10.960 122.211 -0.57 -0.00    +0.000 C 
DOCKED: BRANCH   7   8
DOCKED: ATOM      8  C   UNL     1      36.956   9.484 122.248 -0.64 -0.00    +0.000 C 
DOCKED: ATOM      9  N   UNL     1      37.211   8.740 123.446 -0.60 -0.00    +0.000 N 
DOCKED: ATOM     10  O   UNL     1      37.066   7.394 123.453 -2.46 -0.00    +0.000 OA
DOCKED: ATOM     11  O   UNL     1      36.718   8.863 121.178 -2.62 -0.00    +0.000 OA
DOCKED: ATOM     12  H   UNL     1      37.492   9.209 124.265 -0.64 -0.00    +0.000 HD
DOCKED: ENDBRANCH   7   8
DOCKED: ENDBRANCH   4   6
DOCKED: ENDBRANCH   1   3
DOCKED: BRANCH   1  13
DOCKED: ATOM     13  C   UNL     1      34.533  15.800 124.275 -0.58 -0.00    +0.000 C 
DOCKED: ATOM     14  O   UNL     1      33.536  15.032 124.165 -0.61 -0.00    +0.000 OA
DOCKED: BRANCH  13  18
DOCKED: ATOM     15  C   UNL     1      34.087  19.576 126.333 -0.20 -0.00    +0.000 A 
DOCKED: ATOM     16  C   UNL     1      34.781  19.487 125.110 -0.18 -0.00    +0.000 A 
DOCKED: ATOM     17  C   UNL     1      34.922  18.263 124.453 -0.29 -0.00    +0.000 A 
DOCKED: ATOM     18  C   UNL     1      34.366  17.092 124.991 -0.40 -0.00    +0.000 A 
DOCKED: ATOM     19  C   UNL     1      33.683  17.170 126.217 -0.36 -0.00    +0.000 A 
DOCKED: ATOM     20  C   UNL     1      33.543  18.395 126.876 -0.26 -0.00    +0.000 A 
DOCKED: ATOM     21  CM  UNL     1      34.231  18.330 125.663 -0.22 -0.00    +0.000 AC
DOCKED: BRANCH  15  22
DOCKED: ATOM     22  C   UNL     1      34.992  21.338 127.918 -0.05 -0.00    +0.000 C 
DOCKED: ATOM     23  N   UNL     1      33.940  20.848 127.017 -0.12 -0.00    +0.000 N 
DOCKED: ATOM     24  C   UNL     1      32.738  21.667 126.820 -0.18 -0.00    +0.000 C 
DOCKED: ENDBRANCH  15  22
DOCKED: ENDBRANCH  13  18
DOCKED: ENDBRANCH   1  13
DOCKED: TORSDOF 6DOCKED: TER
DOCKED: ENDMDL
________________________________________________________________________________


	BEGINNING GENETIC ALGORITHM DOCKING 4 of 100
Run: 4 Seed: 1304351954 2024243377 [ Run 4 of 100 GA/GALS ]
Beginning LAMARCKIAN GENETIC ALGORITHM (LGA), with a maximum of 2500000 energy evaluations.

Final-Value: -15.058


	FINAL GENETIC ALGORITHM DOCKED STATE
	_______________________________________________


Detailed state:  trans 36.409 14.913 122.295 quatxyzw -0.496493 -0.743551 -0.219502 0.390442 center -0.963 -0.416 0.212 ntor 6 -120.6185 -35.9284 131.9544 62.0836 51.4257 175.0406
State:	 36.409  14.913 122.295  -0.539 -0.808 -0.238 134.036   -120.62  -35.93  131.95   62.08   51.43  175.04

DOCKED: MODEL        4
DOCKED: USER    Run = 4
DOCKED: USER    DPF = ligand_dock.biased.dpf
DOCKED: USER  
DOCKED: USER    Estimated Free Energy of Binding    =  -11.82 kcal/mol  [=(1)+(2)+(3)-(4)]
DOCKED: USER    Estimated Inhibition Constant, Ki   =    2.18 nM (nanomolar)  [Temperature = 298.15 K]
DOCKED: USER    
DOCKED: USER    (1) Final Intermolecular Energy     =  -13.61 kcal/mol
DOCKED: USER        vdW + Hbond + desolv Energy     =  -13.61 kcal/mol
DOCKED: USER        Electrostatic Energy            =   +0.00 kcal/mol
DOCKED: USER    (2) Final Total Internal Energy     =   -1.45 kcal/mol
DOCKED: USER    (3) Torsional Free Energy           =   +1.79 kcal/mol
DOCKED: USER    (4) Unbound System's Energy  [=(2)] =   -1.45 kcal/mol
DOCKED: USER    
DOCKED: USER    
DOCKED: USER    NEWDPF move ligand.dum.pdbqt
DOCKED: USER    NEWDPF about -0.963000 -0.416000 0.212000
DOCKED: USER    NEWDPF tran0 36.409173 14.913091 122.295028
DOCKED: USER    NEWDPF quaternion0 -0.496493 -0.743551 -0.219502 0.390442
DOCKED: USER    NEWDPF axisangle0 -0.539299 -0.807657 -0.238427 134.035929
DOCKED: USER    NEWDPF quat0 -0.539299 -0.807657 -0.238427 134.035929
DOCKED: USER    NEWDPF dihe0 -120.62 -35.93 131.95 62.08 51.43 175.04 
DOCKED: USER  keepresnum = 1 
DOCKED: USER  
DOCKED: REMARK  Name = 
DOCKED: REMARK  10 active torsions:
DOCKED: REMARK  status: ('A' for Active; 'I' for Inactive)
DOCKED: REMARK    1  A    between atoms: C_1  and  N_2
DOCKED: REMARK    2  A    between atoms: N_2  and  C_3
DOCKED: REMARK    3  A    between atoms: N_2  and  C_22
DOCKED: REMARK    4  A    between atoms: C_6  and  C_9
DOCKED: REMARK    5  A    between atoms: C_9  and  C_10
DOCKED: REMARK    6  A    between atoms: C_10  and  C_11
DOCKED: REMARK    7  A    between atoms: C_10  and  C_20
DOCKED: REMARK    8  A    between atoms: C_12  and  C_13
DOCKED: REMARK    9  A    between atoms: C_12  and  C_19
DOCKED: REMARK   10  A    between atoms: C_14  and  C_15
DOCKED: REMARK                            x       y       z     vdW  Elec       q    Type
DOCKED: REMARK                         _______ _______ _______ _____ _____    ______ ____
DOCKED: USER                              x       y       z     vdW  Elec       q    Type
DOCKED: USER                           _______ _______ _______ _____ _____    ______ ____
DOCKED: ROOT
DOCKED: ATOM      1  C   UNL     1      37.974  15.250 122.279 -0.35 -0.00    +0.000 C 
DOCKED: ATOM      2  C   UNL     1      39.485  15.486 122.213 -0.36 -0.00    +0.000 C 
DOCKED: ENDROOT
DOCKED: BRANCH   1   3
DOCKED: ATOM      3  C   UNL     1      37.684  13.770 122.437 -0.50 -0.00    +0.000 C 
DOCKED: ATOM      4  C   UNL     1      36.576  13.257 123.012 -0.58 -0.00    +0.000 C 
DOCKED: ATOM      5  C   UNL     1      35.477  14.141 123.558 -0.48 -0.00    +0.000 C 
DOCKED: BRANCH   4   6
DOCKED: ATOM      6  C   UNL     1      36.438  11.778 123.054 -0.69 -0.00    +0.000 C 
DOCKED: ATOM      7  C   UNL     1      37.098  10.958 122.223 -0.50 -0.00    +0.000 C 
DOCKED: BRANCH   7   8
DOCKED: ATOM      8  C   UNL     1      36.972   9.487 122.258 -0.64 -0.00    +0.000 C 
DOCKED: ATOM      9  N   UNL     1      37.177   8.727 123.455 -0.61 -0.00    +0.000 N 
DOCKED: ATOM     10  O   UNL     1      36.947   7.393 123.460 -2.40 -0.00    +0.000 OA
DOCKED: ATOM     11  O   UNL     1      36.695   8.883 121.187 -2.62 -0.00    +0.000 OA
DOCKED: ATOM     12  H   UNL     1      37.486   9.176 124.275 -0.63 -0.00    +0.000 HD
DOCKED: ENDBRANCH   7   8
DOCKED: ENDBRANCH   4   6
DOCKED: ENDBRANCH   1   3
DOCKED: BRANCH   1  13
DOCKED: ATOM     13  C   UNL     1      37.312  15.796 121.029 -0.23 -0.00    +0.000 C 
DOCKED: ATOM     14  O   UNL     1      36.594  16.832 121.119 -0.20 -0.00    +0.000 OA
DOCKED: BRANCH  13  18
DOCKED: ATOM     15  C   UNL     1      37.736  13.918 117.158 -0.32 -0.00    +0.000 A 
DOCKED: ATOM     16  C   UNL     1      38.471  15.072 117.496 -0.18 -0.00    +0.000 A 
DOCKED: ATOM     17  C   UNL     1      38.327  15.673 118.748 -0.15 -0.00    +0.000 A 
DOCKED: ATOM     18  C   UNL     1      37.452  15.135 119.706 -0.22 -0.00    +0.000 A 
DOCKED: ATOM     19  C   UNL     1      36.707  13.992 119.372 -0.25 -0.00    +0.000 A 
DOCKED: ATOM     20  C   UNL     1      36.849  13.390 118.118 -0.36 -0.00    +0.000 A 
DOCKED: ATOM     21  CM  UNL     1      37.590  14.530 118.433 +0.00 -0.00    +0.000 AC
DOCKED: BRANCH  15  22
DOCKED: ATOM     22  C   UNL     1      39.026  12.409 115.578 -0.55 -0.00    +0.000 C 
DOCKED: ATOM     23  N   UNL     1      37.885  13.292 115.857 -0.44 -0.00    +0.000 N 
DOCKED: ATOM     24  C   UNL     1      36.898  13.530 114.797 -0.36 -0.00    +0.000 C 
DOCKED: ENDBRANCH  15  22
DOCKED: ENDBRANCH  13  18
DOCKED: ENDBRANCH   1  13
DOCKED: TORSDOF 6DOCKED: TER
DOCKED: ENDMDL
________________________________________________________________________________


	BEGINNING GENETIC ALGORITHM DOCKING 5 of 100
Run: 5 Seed: 2004976270 615003530 [ Run 5 of 100 GA/GALS ]
Beginning LAMARCKIAN GENETIC ALGORITHM (LGA), with a maximum of 2500000 energy evaluations.

Final-Value: -14.840


	FINAL GENETIC ALGORITHM DOCKED STATE
	_______________________________________________


Detailed state:  trans 36.099 14.956 122.178 quatxyzw 0.478260 0.732692 0.256247 -0.410813 center -0.963 -0.416 0.212 ntor 6 -108.1399 -42.5061 148.4385 47.9529 26.1043 -179.7411
State:	 36.099  14.956 122.178   0.525  0.804  0.281 -131.488   -108.14  -42.51  148.44   47.95   26.10 -179.74

DOCKED: MODEL        5
DOCKED: USER    Run = 5
DOCKED: USER    DPF = ligand_dock.biased.dpf
DOCKED: USER  
DOCKED: USER    Estimated Free Energy of Binding    =  -11.81 kcal/mol  [=(1)+(2)+(3)-(4)]
DOCKED: USER    Estimated Inhibition Constant, Ki   =    2.22 nM (nanomolar)  [Temperature = 298.15 K]
DOCKED: USER    
DOCKED: USER    (1) Final Intermolecular Energy     =  -13.60 kcal/mol
DOCKED: USER        vdW + Hbond + desolv Energy     =  -13.60 kcal/mol
DOCKED: USER        Electrostatic Energy            =   +0.00 kcal/mol
DOCKED: USER    (2) Final Total Internal Energy     =   -1.24 kcal/mol
DOCKED: USER    (3) Torsional Free Energy           =   +1.79 kcal/mol
DOCKED: USER    (4) Unbound System's Energy  [=(2)] =   -1.24 kcal/mol
DOCKED: USER    
DOCKED: USER    
DOCKED: USER    NEWDPF move ligand.dum.pdbqt
DOCKED: USER    NEWDPF about -0.963000 -0.416000 0.212000
DOCKED: USER    NEWDPF tran0 36.099279 14.955916 122.177916
DOCKED: USER    NEWDPF quaternion0 0.478260 0.732692 0.256247 -0.410813
DOCKED: USER    NEWDPF axisangle0 0.524570 0.803637 0.281059 -131.488196
DOCKED: USER    NEWDPF quat0 0.524570 0.803637 0.281059 -131.488196
DOCKED: USER    NEWDPF dihe0 -108.14 -42.51 148.44 47.95 26.10 -179.74 
DOCKED: USER  keepresnum = 1 
DOCKED: USER  
DOCKED: REMARK  Name = 
DOCKED: REMARK  10 active torsions:
DOCKED: REMARK  status: ('A' for Active; 'I' for Inactive)
DOCKED: REMARK    1  A    between atoms: C_1  and  N_2
DOCKED: REMARK    2  A    between atoms: N_2  and  C_3
DOCKED: REMARK    3  A    between atoms: N_2  and  C_22
DOCKED: REMARK    4  A    between atoms: C_6  and  C_9
DOCKED: REMARK    5  A    between atoms: C_9  and  C_10
DOCKED: REMARK    6  A    between atoms: C_10  and  C_11
DOCKED: REMARK    7  A    between atoms: C_10  and  C_20
DOCKED: REMARK    8  A    between atoms: C_12  and  C_13
DOCKED: REMARK    9  A    between atoms: C_12  and  C_19
DOCKED: REMARK   10  A    between atoms: C_14  and  C_15
DOCKED: REMARK                            x       y       z     vdW  Elec       q    Type
DOCKED: REMARK                         _______ _______ _______ _____ _____    ______ ____
DOCKED: USER                              x       y       z     vdW  Elec       q    Type
DOCKED: USER                           _______ _______ _______ _____ _____    ______ ____
DOCKED: ROOT
DOCKED: ATOM      1  C   UNL     1      37.646  15.348 122.301 -0.34 -0.00    +0.000 C 
DOCKED: ATOM      2  C   UNL     1      39.148  15.638 122.367 -0.34 -0.00    +0.000 C 
DOCKED: ENDROOT
DOCKED: BRANCH   1   3
DOCKED: ATOM      3  C   UNL     1      37.400  13.855 122.399 -0.49 -0.00    +0.000 C 
DOCKED: ATOM      4  C   UNL     1      36.401  13.282 123.104 -0.58 -0.00    +0.000 C 
DOCKED: ATOM      5  C   UNL     1      35.395  14.105 123.877 -0.49 -0.00    +0.000 C 
DOCKED: BRANCH   4   6
DOCKED: ATOM      6  C   UNL     1      36.286  11.801 123.065 -0.69 -0.00    +0.000 C 
DOCKED: ATOM      7  C   UNL     1      37.062  11.027 122.291 -0.56 -0.00    +0.000 C 
DOCKED: BRANCH   7   8
DOCKED: ATOM      8  C   UNL     1      36.959   9.554 122.246 -0.63 -0.00    +0.000 C 
DOCKED: ATOM      9  N   UNL     1      37.161   8.735 123.404 -0.62 -0.00    +0.000 N 
DOCKED: ATOM     10  O   UNL     1      36.953   7.400 123.335 -2.37 -0.00    +0.000 OA
DOCKED: ATOM     11  O   UNL     1      36.707   9.005 121.141 -2.62 -0.00    +0.000 OA
DOCKED: ATOM     12  H   UNL     1      37.452   9.145 124.251 -0.63 -0.00    +0.000 HD
DOCKED: ENDBRANCH   7   8
DOCKED: ENDBRANCH   4   6
DOCKED: ENDBRANCH   1   3
DOCKED: BRANCH   1  13
DOCKED: ATOM     13  C   UNL     1      37.071  15.903 121.013 -0.22 -0.00    +0.000 C 
DOCKED: ATOM     14  O   UNL     1      36.391  16.968 121.055 -0.21 -0.00    +0.000 OA
DOCKED: BRANCH  13  18
DOCKED: ATOM     15  C   UNL     1      37.589  13.961 117.186 -0.32 -0.00    +0.000 A 
DOCKED: ATOM     16  C   UNL     1      37.916  15.319 117.367 -0.17 -0.00    +0.000 A 
DOCKED: ATOM     17  C   UNL     1      37.745  15.939 118.606 -0.14 -0.00    +0.000 A 
DOCKED: ATOM     18  C   UNL     1      37.250  15.220 119.706 -0.21 -0.00    +0.000 A 
DOCKED: ATOM     19  C   UNL     1      36.909  13.868 119.529 -0.29 -0.00    +0.000 A 
DOCKED: ATOM     20  C   UNL     1      37.079  13.247 118.289 -0.35 -0.00    +0.000 A 
DOCKED: ATOM     21  CM  UNL     1      37.414  14.593 118.447 +0.00 -0.00    +0.000 AC
DOCKED: BRANCH  15  22
DOCKED: ATOM     22  C   UNL     1      39.016  12.610 115.582 -0.58 -0.00    +0.000 C 
DOCKED: ATOM     23  N   UNL     1      37.767  13.315 115.897 -0.43 -0.00    +0.000 N 
DOCKED: ATOM     24  C   UNL     1      36.702  13.356 114.889 -0.32 -0.00    +0.000 C 
DOCKED: ENDBRANCH  15  22
DOCKED: ENDBRANCH  13  18
DOCKED: ENDBRANCH   1  13
DOCKED: TORSDOF 6DOCKED: TER
DOCKED: ENDMDL
________________________________________________________________________________


	BEGINNING GENETIC ALGORITHM DOCKING 6 of 100
Run: 6 Seed: 1975203764 1088673635 [ Run 6 of 100 GA/GALS ]
Beginning LAMARCKIAN GENETIC ALGORITHM (LGA), with a maximum of 2500000 energy evaluations.

Final-Value: -14.949


	FINAL GENETIC ALGORITHM DOCKED STATE
	_______________________________________________


Detailed state:  trans 36.785 14.926 123.506 quatxyzw -0.536880 -0.832457 -0.131656 -0.037962 center -0.963 -0.416 0.212 ntor 6 -174.7399 171.4536 -166.6811 -148.0128 72.1478 -35.0524
State:	 36.785  14.926 123.506  -0.537 -0.833 -0.132 -175.649   -174.74  171.45 -166.68 -148.01   72.15  -35.05

DOCKED: MODEL        6
DOCKED: USER    Run = 6
DOCKED: USER    DPF = ligand_dock.biased.dpf
DOCKED: USER  
DOCKED: USER    Estimated Free Energy of Binding    =  -12.24 kcal/mol  [=(1)+(2)+(3)-(4)]
DOCKED: USER    Estimated Inhibition Constant, Ki   =    1.07 nM (nanomolar)  [Temperature = 298.15 K]
DOCKED: USER    
DOCKED: USER    (1) Final Intermolecular Energy     =  -14.03 kcal/mol
DOCKED: USER        vdW + Hbond + desolv Energy     =  -14.03 kcal/mol
DOCKED: USER        Electrostatic Energy            =   +0.00 kcal/mol
DOCKED: USER    (2) Final Total Internal Energy     =   -0.92 kcal/mol
DOCKED: USER    (3) Torsional Free Energy           =   +1.79 kcal/mol
DOCKED: USER    (4) Unbound System's Energy  [=(2)] =   -0.92 kcal/mol
DOCKED: USER    
DOCKED: USER    
DOCKED: USER    NEWDPF move ligand.dum.pdbqt
DOCKED: USER    NEWDPF about -0.963000 -0.416000 0.212000
DOCKED: USER    NEWDPF tran0 36.784505 14.925836 123.506473
DOCKED: USER    NEWDPF quaternion0 -0.536880 -0.832457 -0.131656 -0.037962
DOCKED: USER    NEWDPF axisangle0 -0.537267 -0.833058 -0.131751 -175.648879
DOCKED: USER    NEWDPF quat0 -0.537267 -0.833058 -0.131751 -175.648879
DOCKED: USER    NEWDPF dihe0 -174.74 171.45 -166.68 -148.01 72.15 -35.05 
DOCKED: USER  keepresnum = 1 
DOCKED: USER  
DOCKED: REMARK  Name = 
DOCKED: REMARK  10 active torsions:
DOCKED: REMARK  status: ('A' for Active; 'I' for Inactive)
DOCKED: REMARK    1  A    between atoms: C_1  and  N_2
DOCKED: REMARK    2  A    between atoms: N_2  and  C_3
DOCKED: REMARK    3  A    between atoms: N_2  and  C_22
DOCKED: REMARK    4  A    between atoms: C_6  and  C_9
DOCKED: REMARK    5  A    between atoms: C_9  and  C_10
DOCKED: REMARK    6  A    between atoms: C_10  and  C_11
DOCKED: REMARK    7  A    between atoms: C_10  and  C_20
DOCKED: REMARK    8  A    between atoms: C_12  and  C_13
DOCKED: REMARK    9  A    between atoms: C_12  and  C_19
DOCKED: REMARK   10  A    between atoms: C_14  and  C_15
DOCKED: REMARK                            x       y       z     vdW  Elec       q    Type
DOCKED: REMARK                         _______ _______ _______ _____ _____    ______ ____
DOCKED: USER                              x       y       z     vdW  Elec       q    Type
DOCKED: USER                           _______ _______ _______ _____ _____    ______ ____
DOCKED: ROOT
DOCKED: ATOM      1  C   UNL     1      37.799  15.638 122.495 -0.33 -0.00    +0.000 C 
DOCKED: ATOM      2  C   UNL     1      38.743  16.252 121.457 -0.20 -0.00    +0.000 C 
DOCKED: ENDROOT
DOCKED: BRANCH   1   3
DOCKED: ATOM      3  C   UNL     1      37.751  14.132 122.329 -0.46 -0.00    +0.000 C 
DOCKED: ATOM      4  C   UNL     1      37.419  13.492 121.188 -0.45 -0.00    +0.000 C 
DOCKED: ATOM      5  C   UNL     1      37.064  14.243 119.924 -0.31 -0.00    +0.000 C 
DOCKED: BRANCH   4   6
DOCKED: ATOM      6  C   UNL     1      37.454  12.006 121.191 -0.49 -0.00    +0.000 C 
DOCKED: ATOM      7  C   UNL     1      37.034  11.267 122.229 -0.57 -0.00    +0.000 C 
DOCKED: BRANCH   7   8
DOCKED: ATOM      8  C   UNL     1      37.062   9.790 122.242 -0.58 -0.00    +0.000 C 
DOCKED: ATOM      9  N   UNL     1      37.145   9.034 123.455 -0.55 -0.00    +0.000 N 
DOCKED: ATOM     10  O   UNL     1      37.063   7.684 123.421 -2.66 -0.00    +0.000 OA
DOCKED: ATOM     11  O   UNL     1      37.035   9.181 121.139 -2.72 -0.00    +0.000 OA
DOCKED: ATOM     12  H   UNL     1      37.263   9.498 124.317 -0.59 -0.00    +0.000 HD
DOCKED: ENDBRANCH   7   8
DOCKED: ENDBRANCH   4   6
DOCKED: ENDBRANCH   1   3
DOCKED: BRANCH   1  13
DOCKED: ATOM     13  C   UNL     1      36.415  16.240 122.351 -0.29 -0.00    +0.000 C 
DOCKED: ATOM     14  O   UNL     1      35.954  16.444 121.193 -0.25 -0.00    +0.000 OA
DOCKED: BRANCH  13  18
DOCKED: ATOM     15  C   UNL     1      33.997  17.332 125.764 -0.37 -0.00    +0.000 A 
DOCKED: ATOM     16  C   UNL     1      34.064  16.000 125.312 -0.45 -0.00    +0.000 A 
DOCKED: ATOM     17  C   UNL     1      34.847  15.656 124.207 -0.51 -0.00    +0.000 A 
DOCKED: ATOM     18  C   UNL     1      35.594  16.629 123.527 -0.34 -0.00    +0.000 A 
DOCKED: ATOM     19  C   UNL     1      35.523  17.963 123.965 -0.27 -0.00    +0.000 A 
DOCKED: ATOM     20  C   UNL     1      34.739  18.309 125.069 -0.29 -0.00    +0.000 A 
DOCKED: ATOM     21  CM  UNL     1      34.794  16.981 124.640 -0.28 -0.00    +0.000 AC
DOCKED: BRANCH  15  22
DOCKED: ATOM     22  C   UNL     1      32.876  16.697 127.950 -0.45 -0.00    +0.000 C 
DOCKED: ATOM     23  N   UNL     1      33.184  17.691 126.913 -0.34 -0.00    +0.000 N 
DOCKED: ATOM     24  C   UNL     1      32.657  19.053 127.057 -0.27 -0.00    +0.000 C 
DOCKED: ENDBRANCH  15  22
DOCKED: ENDBRANCH  13  18
DOCKED: ENDBRANCH   1  13
DOCKED: TORSDOF 6DOCKED: TER
DOCKED: ENDMDL
________________________________________________________________________________


	BEGINNING GENETIC ALGORITHM DOCKING 7 of 100
Run: 7 Seed: 865366000 485791550 [ Run 7 of 100 GA/GALS ]
Beginning LAMARCKIAN GENETIC ALGORITHM (LGA), with a maximum of 2500000 energy evaluations.

Final-Value: -15.081


	FINAL GENETIC ALGORITHM DOCKED STATE
	_______________________________________________


Detailed state:  trans 36.148 14.850 121.835 quatxyzw 0.463356 0.771853 0.198613 -0.387425 center -0.963 -0.416 0.212 ntor 6 85.0959 -24.6270 139.6653 42.8383 -122.1844 164.0946
State:	 36.148  14.850 121.835   0.503  0.837  0.215 -134.411     85.10  -24.63  139.67   42.84 -122.18  164.09

DOCKED: MODEL        7
DOCKED: USER    Run = 7
DOCKED: USER    DPF = ligand_dock.biased.dpf
DOCKED: USER  
DOCKED: USER    Estimated Free Energy of Binding    =  -11.93 kcal/mol  [=(1)+(2)+(3)-(4)]
DOCKED: USER    Estimated Inhibition Constant, Ki   =    1.81 nM (nanomolar)  [Temperature = 298.15 K]
DOCKED: USER    
DOCKED: USER    (1) Final Intermolecular Energy     =  -13.72 kcal/mol
DOCKED: USER        vdW + Hbond + desolv Energy     =  -13.72 kcal/mol
DOCKED: USER        Electrostatic Energy            =   +0.00 kcal/mol
DOCKED: USER    (2) Final Total Internal Energy     =   -1.36 kcal/mol
DOCKED: USER    (3) Torsional Free Energy           =   +1.79 kcal/mol
DOCKED: USER    (4) Unbound System's Energy  [=(2)] =   -1.36 kcal/mol
DOCKED: USER    
DOCKED: USER    
DOCKED: USER    NEWDPF move ligand.dum.pdbqt
DOCKED: USER    NEWDPF about -0.963000 -0.416000 0.212000
DOCKED: USER    NEWDPF tran0 36.148399 14.849643 121.834761
DOCKED: USER    NEWDPF quaternion0 0.463356 0.771853 0.198613 -0.387425
DOCKED: USER    NEWDPF axisangle0 0.502609 0.837240 0.215438 -134.411275
DOCKED: USER    NEWDPF quat0 0.502609 0.837240 0.215438 -134.411275
DOCKED: USER    NEWDPF dihe0 85.10 -24.63 139.67 42.84 -122.18 164.09 
DOCKED: USER  keepresnum = 1 
DOCKED: USER  
DOCKED: REMARK  Name = 
DOCKED: REMARK  10 active torsions:
DOCKED: REMARK  status: ('A' for Active; 'I' for Inactive)
DOCKED: REMARK    1  A    between atoms: C_1  and  N_2
DOCKED: REMARK    2  A    between atoms: N_2  and  C_3
DOCKED: REMARK    3  A    between atoms: N_2  and  C_22
DOCKED: REMARK    4  A    between atoms: C_6  and  C_9
DOCKED: REMARK    5  A    between atoms: C_9  and  C_10
DOCKED: REMARK    6  A    between atoms: C_10  and  C_11
DOCKED: REMARK    7  A    between atoms: C_10  and  C_20
DOCKED: REMARK    8  A    between atoms: C_12  and  C_13
DOCKED: REMARK    9  A    between atoms: C_12  and  C_19
DOCKED: REMARK   10  A    between atoms: C_14  and  C_15
DOCKED: REMARK                            x       y       z     vdW  Elec       q    Type
DOCKED: REMARK                         _______ _______ _______ _____ _____    ______ ____
DOCKED: USER                              x       y       z     vdW  Elec       q    Type
DOCKED: USER                           _______ _______ _______ _____ _____    ______ ____
DOCKED: ROOT
DOCKED: ATOM      1  C   UNL     1      37.687  15.280 121.743 -0.30 -0.00    +0.000 C 
DOCKED: ATOM      2  C   UNL     1      39.177  15.603 121.609 -0.29 -0.00    +0.000 C 
DOCKED: ENDROOT
DOCKED: BRANCH   1   3
DOCKED: ATOM      3  C   UNL     1      37.497  13.799 122.007 -0.46 -0.00    +0.000 C 
DOCKED: ATOM      4  C   UNL     1      36.672  13.281 122.941 -0.58 -0.00    +0.000 C 
DOCKED: ATOM      5  C   UNL     1      35.822  14.160 123.832 -0.56 -0.00    +0.000 C 
DOCKED: BRANCH   4   6
DOCKED: ATOM      6  C   UNL     1      36.583  11.801 123.043 -0.68 -0.00    +0.000 C 
DOCKED: ATOM      7  C   UNL     1      37.059  10.973 122.101 -0.55 -0.00    +0.000 C 
DOCKED: BRANCH   7   8
DOCKED: ATOM      8  C   UNL     1      36.979   9.501 122.194 -0.63 -0.00    +0.000 C 
DOCKED: ATOM      9  N   UNL     1      37.244   8.793 123.411 -0.58 -0.00    +0.000 N 
DOCKED: ATOM     10  O   UNL     1      37.056   7.454 123.472 -2.49 -0.00    +0.000 OA
DOCKED: ATOM     11  O   UNL     1      36.690   8.850 121.155 -2.61 -0.00    +0.000 OA
DOCKED: ATOM     12  H   UNL     1      37.563   9.281 124.205 -0.64 -0.00    +0.000 HD
DOCKED: ENDBRANCH   7   8
DOCKED: ENDBRANCH   4   6
DOCKED: ENDBRANCH   1   3
DOCKED: BRANCH   1  13
DOCKED: ATOM     13  C   UNL     1      36.955  15.699 120.484 -0.21 -0.00    +0.000 C 
DOCKED: ATOM     14  O   UNL     1      36.025  16.550 120.570 -0.22 -0.00    +0.000 OA
DOCKED: BRANCH  13  18
DOCKED: ATOM     15  C   UNL     1      37.859  13.961 116.630 -0.33 -0.00    +0.000 A 
DOCKED: ATOM     16  C   UNL     1      36.981  13.326 117.530 -0.35 -0.00    +0.000 A 
DOCKED: ATOM     17  C   UNL     1      36.695  13.894 118.774 -0.34 -0.00    +0.000 A 
DOCKED: ATOM     18  C   UNL     1      37.270  15.118 119.153 -0.22 -0.00    +0.000 A 
DOCKED: ATOM     19  C   UNL     1      38.156  15.751 118.264 -0.14 -0.00    +0.000 A 
DOCKED: ATOM     20  C   UNL     1      38.444  15.182 117.021 -0.18 -0.00    +0.000 A 
DOCKED: ATOM     21  CM  UNL     1      37.568  14.538 117.896 +0.00 -0.00    +0.000 AC
DOCKED: BRANCH  15  22
DOCKED: ATOM     22  C   UNL     1      39.042  12.204 115.233 -0.57 -0.00    +0.000 C 
DOCKED: ATOM     23  N   UNL     1      38.157  13.372 115.336 -0.45 -0.00    +0.000 N 
DOCKED: ATOM     24  C   UNL     1      37.577  13.932 114.110 -0.34 -0.00    +0.000 C 
DOCKED: ENDBRANCH  15  22
DOCKED: ENDBRANCH  13  18
DOCKED: ENDBRANCH   1  13
DOCKED: TORSDOF 6DOCKED: TER
DOCKED: ENDMDL
________________________________________________________________________________


	BEGINNING GENETIC ALGORITHM DOCKING 8 of 100
Run: 8 Seed: 1902408064 1265722388 [ Run 8 of 100 GA/GALS ]
Beginning LAMARCKIAN GENETIC ALGORITHM (LGA), with a maximum of 2500000 energy evaluations.

Final-Value: -14.454


	FINAL GENETIC ALGORITHM DOCKED STATE
	_______________________________________________


Detailed state:  trans 38.348 15.077 121.461 quatxyzw -0.110918 -0.104354 0.531866 -0.833022 center -0.963 -0.416 0.212 ntor 6 121.4967 149.2413 -172.5922 41.3369 29.1473 -68.9571
State:	 38.348  15.077 121.461  -0.200 -0.189  0.961 -67.179    121.50  149.24 -172.59   41.34   29.15  -68.96

DOCKED: MODEL        8
DOCKED: USER    Run = 8
DOCKED: USER    DPF = ligand_dock.biased.dpf
DOCKED: USER  
DOCKED: USER    Estimated Free Energy of Binding    =  -11.32 kcal/mol  [=(1)+(2)+(3)-(4)]
DOCKED: USER    Estimated Inhibition Constant, Ki   =    5.01 nM (nanomolar)  [Temperature = 298.15 K]
DOCKED: USER    
DOCKED: USER    (1) Final Intermolecular Energy     =  -13.11 kcal/mol
DOCKED: USER        vdW + Hbond + desolv Energy     =  -13.11 kcal/mol
DOCKED: USER        Electrostatic Energy            =   +0.00 kcal/mol
DOCKED: USER    (2) Final Total Internal Energy     =   -1.34 kcal/mol
DOCKED: USER    (3) Torsional Free Energy           =   +1.79 kcal/mol
DOCKED: USER    (4) Unbound System's Energy  [=(2)] =   -1.34 kcal/mol
DOCKED: USER    
DOCKED: USER    
DOCKED: USER    NEWDPF move ligand.dum.pdbqt
DOCKED: USER    NEWDPF about -0.963000 -0.416000 0.212000
DOCKED: USER    NEWDPF tran0 38.347868 15.076783 121.461292
DOCKED: USER    NEWDPF quaternion0 -0.110918 -0.104354 0.531866 -0.833022
DOCKED: USER    NEWDPF axisangle0 -0.200487 -0.188623 0.961367 -67.179127
DOCKED: USER    NEWDPF quat0 -0.200487 -0.188623 0.961367 -67.179127
DOCKED: USER    NEWDPF dihe0 121.50 149.24 -172.59 41.34 29.15 -68.96 
DOCKED: USER  keepresnum = 1 
DOCKED: USER  
DOCKED: REMARK  Name = 
DOCKED: REMARK  10 active torsions:
DOCKED: REMARK  status: ('A' for Active; 'I' for Inactive)
DOCKED: REMARK    1  A    between atoms: C_1  and  N_2
DOCKED: REMARK    2  A    between atoms: N_2  and  C_3
DOCKED: REMARK    3  A    between atoms: N_2  and  C_22
DOCKED: REMARK    4  A    between atoms: C_6  and  C_9
DOCKED: REMARK    5  A    between atoms: C_9  and  C_10
DOCKED: REMARK    6  A    between atoms: C_10  and  C_11
DOCKED: REMARK    7  A    between atoms: C_10  and  C_20
DOCKED: REMARK    8  A    between atoms: C_12  and  C_13
DOCKED: REMARK    9  A    between atoms: C_12  and  C_19
DOCKED: REMARK   10  A    between atoms: C_14  and  C_15
DOCKED: REMARK                            x       y       z     vdW  Elec       q    Type
DOCKED: REMARK                         _______ _______ _______ _____ _____    ______ ____
DOCKED: USER                              x       y       z     vdW  Elec       q    Type
DOCKED: USER                           _______ _______ _______ _____ _____    ______ ____
DOCKED: ROOT
DOCKED: ATOM      1  C   UNL     1      37.110  15.580 122.342 -0.32 -0.00    +0.000 C 
DOCKED: ATOM      2  C   UNL     1      35.941  15.981 123.245 -0.40 -0.00    +0.000 C 
DOCKED: ENDROOT
DOCKED: BRANCH   1   3
DOCKED: ATOM      3  C   UNL     1      37.192  14.070 122.237 -0.45 -0.00    +0.000 C 
DOCKED: ATOM      4  C   UNL     1      37.343  13.382 121.086 -0.45 -0.00    +0.000 C 
DOCKED: ATOM      5  C   UNL     1      37.460  14.080 119.749 -0.36 -0.00    +0.000 C 
DOCKED: BRANCH   4   6
DOCKED: ATOM      6  C   UNL     1      37.438  11.902 121.169 -0.49 -0.00    +0.000 C 
DOCKED: ATOM      7  C   UNL     1      36.774  11.177 122.082 -0.61 -0.00    +0.000 C 
DOCKED: BRANCH   7   8
DOCKED: ATOM      8  C   UNL     1      36.859   9.704 122.173 -0.64 -0.00    +0.000 C 
DOCKED: ATOM      9  N   UNL     1      37.095   9.023 123.410 -0.59 -0.00    +0.000 N 
DOCKED: ATOM     10  O   UNL     1      37.060   7.671 123.458 -2.66 -0.00    +0.000 OA
DOCKED: ATOM     11  O   UNL     1      36.742   9.032 121.113 -2.63 -0.00    +0.000 OA
DOCKED: ATOM     12  H   UNL     1      37.283   9.540 124.228 -0.61 -0.00    +0.000 HD
DOCKED: ENDBRANCH   7   8
DOCKED: ENDBRANCH   4   6
DOCKED: ENDBRANCH   1   3
DOCKED: BRANCH   1  13
DOCKED: ATOM     13  C   UNL     1      38.402  16.152 122.889 -0.29 -0.00    +0.000 C 
DOCKED: ATOM     14  O   UNL     1      38.389  16.734 124.010 -0.29 -0.00    +0.000 OA
DOCKED: BRANCH  13  18
DOCKED: ATOM     15  C   UNL     1      42.149  15.947 120.741 -0.20 -0.00    +0.000 A 
DOCKED: ATOM     16  C   UNL     1      42.027  15.438 122.049 -0.40 -0.00    +0.000 A 
DOCKED: ATOM     17  C   UNL     1      40.813  15.510 122.736 -0.39 -0.00    +0.000 A 
DOCKED: ATOM     18  C   UNL     1      39.682  16.083 122.135 -0.25 -0.00    +0.000 A 
DOCKED: ATOM     19  C   UNL     1      39.799  16.604 120.835 -0.13 -0.00    +0.000 A 
DOCKED: ATOM     20  C   UNL     1      41.013  16.534 120.147 -0.14 -0.00    +0.000 A 
DOCKED: ATOM     21  CM  UNL     1      40.914  16.019 121.441 +0.00 -0.00    +0.000 AC
DOCKED: BRANCH  15  22
DOCKED: ATOM     22  C   UNL     1      44.683  16.077 120.731 -0.28 +0.00    +0.000 C 
DOCKED: ATOM     23  N   UNL     1      43.410  15.873 120.026 -0.24 -0.00    +0.000 N 
DOCKED: ATOM     24  C   UNL     1      43.435  15.592 118.585 -0.28 -0.00    +0.000 C 
DOCKED: ENDBRANCH  15  22
DOCKED: ENDBRANCH  13  18
DOCKED: ENDBRANCH   1  13
DOCKED: TORSDOF 6DOCKED: TER
DOCKED: ENDMDL
________________________________________________________________________________


	BEGINNING GENETIC ALGORITHM DOCKING 9 of 100
Run: 9 Seed: 1467845639 1276112735 [ Run 9 of 100 GA/GALS ]
Beginning LAMARCKIAN GENETIC ALGORITHM (LGA), with a maximum of 2500000 energy evaluations.

Final-Value: -14.440


	FINAL GENETIC ALGORITHM DOCKED STATE
	_______________________________________________


Detailed state:  trans 38.444 15.125 121.597 quatxyzw -0.108272 -0.118286 0.517503 -0.840522 center -0.963 -0.416 0.212 ntor 6 -40.4263 152.8717 -176.5617 38.1256 -166.9897 -68.2818
State:	 38.444  15.125 121.597  -0.200 -0.218  0.955 -65.610    -40.43  152.87 -176.56   38.13 -166.99  -68.28

DOCKED: MODEL        9
DOCKED: USER    Run = 9
DOCKED: USER    DPF = ligand_dock.biased.dpf
DOCKED: USER  
DOCKED: USER    Estimated Free Energy of Binding    =  -11.33 kcal/mol  [=(1)+(2)+(3)-(4)]
DOCKED: USER    Estimated Inhibition Constant, Ki   =    4.94 nM (nanomolar)  [Temperature = 298.15 K]
DOCKED: USER    
DOCKED: USER    (1) Final Intermolecular Energy     =  -13.12 kcal/mol
DOCKED: USER        vdW + Hbond + desolv Energy     =  -13.12 kcal/mol
DOCKED: USER        Electrostatic Energy            =   +0.00 kcal/mol
DOCKED: USER    (2) Final Total Internal Energy     =   -1.32 kcal/mol
DOCKED: USER    (3) Torsional Free Energy           =   +1.79 kcal/mol
DOCKED: USER    (4) Unbound System's Energy  [=(2)] =   -1.32 kcal/mol
DOCKED: USER    
DOCKED: USER    
DOCKED: USER    NEWDPF move ligand.dum.pdbqt
DOCKED: USER    NEWDPF about -0.963000 -0.416000 0.212000
DOCKED: USER    NEWDPF tran0 38.443914 15.125317 121.596814
DOCKED: USER    NEWDPF quaternion0 -0.108272 -0.118286 0.517503 -0.840522
DOCKED: USER    NEWDPF axisangle0 -0.199846 -0.218329 0.955193 -65.609504
DOCKED: USER    NEWDPF quat0 -0.199846 -0.218329 0.955193 -65.609504
DOCKED: USER    NEWDPF dihe0 -40.43 152.87 -176.56 38.13 -166.99 -68.28 
DOCKED: USER  keepresnum = 1 
DOCKED: USER  
DOCKED: REMARK  Name = 
DOCKED: REMARK  10 active torsions:
DOCKED: REMARK  status: ('A' for Active; 'I' for Inactive)
DOCKED: REMARK    1  A    between atoms: C_1  and  N_2
DOCKED: REMARK    2  A    between atoms: N_2  and  C_3
DOCKED: REMARK    3  A    between atoms: N_2  and  C_22
DOCKED: REMARK    4  A    between atoms: C_6  and  C_9
DOCKED: REMARK    5  A    between atoms: C_9  and  C_10
DOCKED: REMARK    6  A    between atoms: C_10  and  C_11
DOCKED: REMARK    7  A    between atoms: C_10  and  C_20
DOCKED: REMARK    8  A    between atoms: C_12  and  C_13
DOCKED: REMARK    9  A    between atoms: C_12  and  C_19
DOCKED: REMARK   10  A    between atoms: C_14  and  C_15
DOCKED: REMARK                            x       y       z     vdW  Elec       q    Type
DOCKED: REMARK                         _______ _______ _______ _____ _____    ______ ____
DOCKED: USER                              x       y       z     vdW  Elec       q    Type
DOCKED: USER                           _______ _______ _______ _____ _____    ______ ____
DOCKED: ROOT
DOCKED: ATOM      1  C   UNL     1      37.201  15.643 122.462 -0.33 -0.00    +0.000 C 
DOCKED: ATOM      2  C   UNL     1      36.024  16.056 123.349 -0.40 -0.00    +0.000 C 
DOCKED: ENDROOT
DOCKED: BRANCH   1   3
DOCKED: ATOM      3  C   UNL     1      37.244  14.134 122.323 -0.46 -0.00    +0.000 C 
DOCKED: ATOM      4  C   UNL     1      37.339  13.468 121.153 -0.44 -0.00    +0.000 C 
DOCKED: ATOM      5  C   UNL     1      37.428  14.192 119.828 -0.35 -0.00    +0.000 C 
DOCKED: BRANCH   4   6
DOCKED: ATOM      6  C   UNL     1      37.401  11.984 121.202 -0.50 -0.00    +0.000 C 
DOCKED: ATOM      7  C   UNL     1      36.814  11.259 122.166 -0.61 -0.00    +0.000 C 
DOCKED: BRANCH   7   8
DOCKED: ATOM      8  C   UNL     1      36.867   9.784 122.223 -0.64 -0.00    +0.000 C 
DOCKED: ATOM      9  N   UNL     1      37.135   9.071 123.436 -0.56 -0.00    +0.000 N 
DOCKED: ATOM     10  O   UNL     1      37.070   7.720 123.457 -2.70 -0.00    +0.000 OA
DOCKED: ATOM     11  O   UNL     1      36.693   9.137 121.156 -2.62 -0.00    +0.000 OA
DOCKED: ATOM     12  H   UNL     1      37.367   9.566 124.256 -0.63 -0.00    +0.000 HD
DOCKED: ENDBRANCH   7   8
DOCKED: ENDBRANCH   4   6
DOCKED: ENDBRANCH   1   3
DOCKED: BRANCH   1  13
DOCKED: ATOM     13  C   UNL     1      38.497  16.165 123.051 -0.29 -0.00    +0.000 C 
DOCKED: ATOM     14  O   UNL     1      38.476  16.708 124.191 -0.26 -0.00    +0.000 OA
DOCKED: BRANCH  13  18
DOCKED: ATOM     15  C   UNL     1      42.225  15.938 120.874 -0.22 -0.00    +0.000 A 
DOCKED: ATOM     16  C   UNL     1      41.016  16.250 120.223 -0.15 -0.00    +0.000 A 
DOCKED: ATOM     17  C   UNL     1      39.815  16.320 120.933 -0.16 -0.00    +0.000 A 
DOCKED: ATOM     18  C   UNL     1      39.787  16.090 122.318 -0.27 -0.00    +0.000 A 
DOCKED: ATOM     19  C   UNL     1      40.988  15.765 122.972 -0.34 -0.00    +0.000 A 
DOCKED: ATOM     20  C   UNL     1      42.189  15.694 122.262 -0.42 -0.00    +0.000 A 
DOCKED: ATOM     21  CM  UNL     1      41.003  16.009 121.597 +0.00 -0.00    +0.000 AC
DOCKED: BRANCH  15  22
DOCKED: ATOM     22  C   UNL     1      44.762  15.974 120.834 -0.28 +0.00    +0.000 C 
DOCKED: ATOM     23  N   UNL     1      43.474  15.865 120.136 -0.24 -0.00    +0.000 N 
DOCKED: ATOM     24  C   UNL     1      43.470  15.681 118.680 -0.27 -0.00    +0.000 C 
DOCKED: ENDBRANCH  15  22
DOCKED: ENDBRANCH  13  18
DOCKED: ENDBRANCH   1  13
DOCKED: TORSDOF 6DOCKED: TER
DOCKED: ENDMDL
________________________________________________________________________________


	BEGINNING GENETIC ALGORITHM DOCKING 10 of 100
Run: 10 Seed: 528115134 313434357 [ Run 10 of 100 GA/GALS ]
Beginning LAMARCKIAN GENETIC ALGORITHM (LGA), with a maximum of 2500000 energy evaluations.

Final-Value: -14.018


	FINAL GENETIC ALGORITHM DOCKED STATE
	_______________________________________________


Detailed state:  trans 36.572 14.920 123.316 quatxyzw 0.593993 0.780814 0.193440 0.009086 center -0.963 -0.416 0.212 ntor 6 71.8011 -134.3495 -107.2449 84.6914 -161.0911 -25.7347
State:	 36.572  14.920 123.316   0.594  0.781  0.193 178.959     71.80 -134.35 -107.24   84.69 -161.09  -25.73

DOCKED: MODEL       10
DOCKED: USER    Run = 10
DOCKED: USER    DPF = ligand_dock.biased.dpf
DOCKED: USER  
DOCKED: USER    Estimated Free Energy of Binding    =  -11.09 kcal/mol  [=(1)+(2)+(3)-(4)]
DOCKED: USER    Estimated Inhibition Constant, Ki   =    7.39 nM (nanomolar)  [Temperature = 298.15 K]
DOCKED: USER    
DOCKED: USER    (1) Final Intermolecular Energy     =  -12.88 kcal/mol
DOCKED: USER        vdW + Hbond + desolv Energy     =  -12.88 kcal/mol
DOCKED: USER        Electrostatic Energy            =   +0.00 kcal/mol
DOCKED: USER    (2) Final Total Internal Energy     =   -1.14 kcal/mol
DOCKED: USER    (3) Torsional Free Energy           =   +1.79 kcal/mol
DOCKED: USER    (4) Unbound System's Energy  [=(2)] =   -1.14 kcal/mol
DOCKED: USER    
DOCKED: USER    
DOCKED: USER    NEWDPF move ligand.dum.pdbqt
DOCKED: USER    NEWDPF about -0.963000 -0.416000 0.212000
DOCKED: USER    NEWDPF tran0 36.571915 14.920404 123.316407
DOCKED: USER    NEWDPF quaternion0 0.593993 0.780814 0.193440 0.009086
DOCKED: USER    NEWDPF axisangle0 0.594018 0.780846 0.193448 178.958803
DOCKED: USER    NEWDPF quat0 0.594018 0.780846 0.193448 178.958803
DOCKED: USER    NEWDPF dihe0 71.80 -134.35 -107.24 84.69 -161.09 -25.73 
DOCKED: USER  keepresnum = 1 
DOCKED: USER  
DOCKED: REMARK  Name = 
DOCKED: REMARK  10 active torsions:
DOCKED: REMARK  status: ('A' for Active; 'I' for Inactive)
DOCKED: REMARK    1  A    between atoms: C_1  and  N_2
DOCKED: REMARK    2  A    between atoms: N_2  and  C_3
DOCKED: REMARK    3  A    between atoms: N_2  and  C_22
DOCKED: REMARK    4  A    between atoms: C_6  and  C_9
DOCKED: REMARK    5  A    between atoms: C_9  and  C_10
DOCKED: REMARK    6  A    between atoms: C_10  and  C_11
DOCKED: REMARK    7  A    between atoms: C_10  and  C_20
DOCKED: REMARK    8  A    between atoms: C_12  and  C_13
DOCKED: REMARK    9  A    between atoms: C_12  and  C_19
DOCKED: REMARK   10  A    between atoms: C_14  and  C_15
DOCKED: REMARK                            x       y       z     vdW  Elec       q    Type
DOCKED: REMARK                         _______ _______ _______ _____ _____    ______ ____
DOCKED: USER                              x       y       z     vdW  Elec       q    Type
DOCKED: USER                           _______ _______ _______ _____ _____    ______ ____
DOCKED: ROOT
DOCKED: ATOM      1  C   UNL     1      37.784  15.527 122.466 -0.33 -0.00    +0.000 C 
DOCKED: ATOM      2  C   UNL     1      38.913  16.049 121.574 -0.23 -0.00    +0.000 C 
DOCKED: ENDROOT
DOCKED: BRANCH   1   3
DOCKED: ATOM      3  C   UNL     1      37.516  14.066 122.163 -0.45 -0.00    +0.000 C 
DOCKED: ATOM      4  C   UNL     1      36.629  13.290 122.823 -0.56 -0.00    +0.000 C 
DOCKED: ATOM      5  C   UNL     1      35.785  13.830 123.955 -0.51 -0.00    +0.000 C 
DOCKED: BRANCH   4   6
DOCKED: ATOM      6  C   UNL     1      36.469  11.884 122.373 -0.62 -0.00    +0.000 C 
DOCKED: ATOM      7  C   UNL     1      37.064  10.848 122.983 -0.61 -0.00    +0.000 C 
DOCKED: BRANCH   7   8
DOCKED: ATOM      8  C   UNL     1      36.909   9.445 122.545 -0.66 -0.00    +0.000 C 
DOCKED: ATOM      9  N   UNL     1      37.020   8.341 123.451 -0.70 -0.00    +0.000 N 
DOCKED: ATOM     10  O   UNL     1      36.766   7.083 123.023 -1.90 -0.00    +0.000 OA
DOCKED: ATOM     11  O   UNL     1      36.694   9.219 121.324 -2.53 -0.00    +0.000 OA
DOCKED: ATOM     12  H   UNL     1      37.282   8.499 124.388 -0.50 -0.00    +0.000 HD
DOCKED: ENDBRANCH   7   8
DOCKED: ENDBRANCH   4   6
DOCKED: ENDBRANCH   1   3
DOCKED: BRANCH   1  13
DOCKED: ATOM     13  C   UNL     1      36.534  16.358 122.253 -0.27 -0.00    +0.000 C 
DOCKED: ATOM     14  O   UNL     1      36.132  16.570 121.075 -0.23 -0.00    +0.000 OA
DOCKED: BRANCH  13  18
DOCKED: ATOM     15  C   UNL     1      34.391  18.112 125.573 -0.31 -0.00    +0.000 A 
DOCKED: ATOM     16  C   UNL     1      35.796  18.180 125.492 -0.20 -0.00    +0.000 A 
DOCKED: ATOM     17  C   UNL     1      36.480  17.610 124.416 -0.21 -0.00    +0.000 A 
DOCKED: ATOM     18  C   UNL     1      35.783  16.962 123.384 -0.30 -0.00    +0.000 A 
DOCKED: ATOM     19  C   UNL     1      34.382  16.879 123.465 -0.40 -0.00    +0.000 A 
DOCKED: ATOM     20  C   UNL     1      33.697  17.448 124.542 -0.22 -0.00    +0.000 A 
DOCKED: ATOM     21  CM  UNL     1      35.089  17.532 124.479 -0.36 -0.00    +0.000 AC
DOCKED: BRANCH  15  22
DOCKED: ATOM     22  C   UNL     1      33.446  17.937 127.921 -0.27 -0.00    +0.000 C 
DOCKED: ATOM     23  N   UNL     1      33.678  18.705 126.691 -0.26 -0.00    +0.000 N 
DOCKED: ATOM     24  C   UNL     1      33.177  20.082 126.610 -0.22 -0.00    +0.000 C 
DOCKED: ENDBRANCH  15  22
DOCKED: ENDBRANCH  13  18
DOCKED: ENDBRANCH   1  13
DOCKED: TORSDOF 6DOCKED: TER
DOCKED: ENDMDL
________________________________________________________________________________


	BEGINNING GENETIC ALGORITHM DOCKING 11 of 100
Run: 11 Seed: 32682648 1787440856 [ Run 11 of 100 GA/GALS ]
Beginning LAMARCKIAN GENETIC ALGORITHM (LGA), with a maximum of 2500000 energy evaluations.

Final-Value: -14.369


	FINAL GENETIC ALGORITHM DOCKED STATE
	_______________________________________________


Detailed state:  trans 38.237 15.270 121.703 quatxyzw -0.085932 -0.074344 0.560926 -0.820031 center -0.963 -0.416 0.212 ntor 6 -33.7366 134.4691 -146.1829 37.3425 13.4679 -76.6276
State:	 38.237  15.270 121.703  -0.150 -0.130  0.980 -69.824    -33.74  134.47 -146.18   37.34   13.47  -76.63

DOCKED: MODEL       11
DOCKED: USER    Run = 11
DOCKED: USER    DPF = ligand_dock.biased.dpf
DOCKED: USER  
DOCKED: USER    Estimated Free Energy of Binding    =  -11.27 kcal/mol  [=(1)+(2)+(3)-(4)]
DOCKED: USER    Estimated Inhibition Constant, Ki   =    5.46 nM (nanomolar)  [Temperature = 298.15 K]
DOCKED: USER    
DOCKED: USER    (1) Final Intermolecular Energy     =  -13.06 kcal/mol
DOCKED: USER        vdW + Hbond + desolv Energy     =  -13.06 kcal/mol
DOCKED: USER        Electrostatic Energy            =   +0.00 kcal/mol
DOCKED: USER    (2) Final Total Internal Energy     =   -1.31 kcal/mol
DOCKED: USER    (3) Torsional Free Energy           =   +1.79 kcal/mol
DOCKED: USER    (4) Unbound System's Energy  [=(2)] =   -1.31 kcal/mol
DOCKED: USER    
DOCKED: USER    
DOCKED: USER    NEWDPF move ligand.dum.pdbqt
DOCKED: USER    NEWDPF about -0.963000 -0.416000 0.212000
DOCKED: USER    NEWDPF tran0 38.237291 15.269625 121.702948
DOCKED: USER    NEWDPF quaternion0 -0.085932 -0.074344 0.560926 -0.820031
DOCKED: USER    NEWDPF axisangle0 -0.150147 -0.129900 0.980093 -69.824202
DOCKED: USER    NEWDPF quat0 -0.150147 -0.129900 0.980093 -69.824202
DOCKED: USER    NEWDPF dihe0 -33.74 134.47 -146.18 37.34 13.47 -76.63 
DOCKED: USER  keepresnum = 1 
DOCKED: USER  
DOCKED: REMARK  Name = 
DOCKED: REMARK  10 active torsions:
DOCKED: REMARK  status: ('A' for Active; 'I' for Inactive)
DOCKED: REMARK    1  A    between atoms: C_1  and  N_2
DOCKED: REMARK    2  A    between atoms: N_2  and  C_3
DOCKED: REMARK    3  A    between atoms: N_2  and  C_22
DOCKED: REMARK    4  A    between atoms: C_6  and  C_9
DOCKED: REMARK    5  A    between atoms: C_9  and  C_10
DOCKED: REMARK    6  A    between atoms: C_10  and  C_11
DOCKED: REMARK    7  A    between atoms: C_10  and  C_20
DOCKED: REMARK    8  A    between atoms: C_12  and  C_13
DOCKED: REMARK    9  A    between atoms: C_12  and  C_19
DOCKED: REMARK   10  A    between atoms: C_14  and  C_15
DOCKED: REMARK                            x       y       z     vdW  Elec       q    Type
DOCKED: REMARK                         _______ _______ _______ _____ _____    ______ ____
DOCKED: USER                              x       y       z     vdW  Elec       q    Type
DOCKED: USER                           _______ _______ _______ _____ _____    ______ ____
DOCKED: ROOT
DOCKED: ATOM      1  C   UNL     1      37.046  15.698 122.681 -0.34 -0.00    +0.000 C 
DOCKED: ATOM      2  C   UNL     1      35.931  16.029 123.677 -0.42 -0.00    +0.000 C 
DOCKED: ENDROOT
DOCKED: BRANCH   1   3
DOCKED: ATOM      3  C   UNL     1      37.211  14.195 122.566 -0.47 -0.00    +0.000 C 
DOCKED: ATOM      4  C   UNL     1      37.233  13.508 121.405 -0.44 -0.00    +0.000 C 
DOCKED: ATOM      5  C   UNL     1      37.104  14.198 120.065 -0.31 -0.00    +0.000 C 
DOCKED: BRANCH   4   6
DOCKED: ATOM      6  C   UNL     1      37.437  12.038 121.473 -0.49 -0.00    +0.000 C 
DOCKED: ATOM      7  C   UNL     1      36.600  11.213 122.120 -0.63 -0.00    +0.000 C 
DOCKED: BRANCH   7   8
DOCKED: ATOM      8  C   UNL     1      36.792   9.750 122.192 -0.66 -0.00    +0.000 C 
DOCKED: ATOM      9  N   UNL     1      37.015   9.064 123.430 -0.58 -0.00    +0.000 N 
DOCKED: ATOM     10  O   UNL     1      37.080   7.713 123.455 -2.69 -0.00    +0.000 OA
DOCKED: ATOM     11  O   UNL     1      36.781   9.091 121.118 -2.64 -0.00    +0.000 OA
DOCKED: ATOM     12  H   UNL     1      37.120   9.577 124.264 -0.57 -0.00    +0.000 HD
DOCKED: ENDBRANCH   7   8
DOCKED: ENDBRANCH   4   6
DOCKED: ENDBRANCH   1   3
DOCKED: BRANCH   1  13
DOCKED: ATOM     13  C   UNL     1      38.341  16.349 123.125 -0.28 -0.00    +0.000 C 
DOCKED: ATOM     14  O   UNL     1      38.345  17.054 124.173 -0.29 -0.00    +0.000 OA
DOCKED: BRANCH  13  18
DOCKED: ATOM     15  C   UNL     1      42.035  15.973 120.910 -0.22 -0.00    +0.000 A 
DOCKED: ATOM     16  C   UNL     1      42.019  15.930 122.318 -0.40 -0.00    +0.000 A 
DOCKED: ATOM     17  C   UNL     1      40.821  16.054 123.026 -0.31 -0.00    +0.000 A 
DOCKED: ATOM     18  C   UNL     1      39.602  16.214 122.350 -0.25 -0.00    +0.000 A 
DOCKED: ATOM     19  C   UNL     1      39.611  16.270 120.945 -0.16 -0.00    +0.000 A 
DOCKED: ATOM     20  C   UNL     1      40.809  16.148 120.236 -0.15 -0.00    +0.000 A 
DOCKED: ATOM     21  CM  UNL     1      40.816  16.098 121.631 +0.00 -0.00    +0.000 AC
DOCKED: BRANCH  15  22
DOCKED: ATOM     22  C   UNL     1      43.268  15.600 118.725 -0.24 -0.00    +0.000 C 
DOCKED: ATOM     23  N   UNL     1      43.279  15.844 120.174 -0.24 -0.00    +0.000 N 
DOCKED: ATOM     24  C   UNL     1      44.570  15.955 120.864 -0.27 +0.00    +0.000 C 
DOCKED: ENDBRANCH  15  22
DOCKED: ENDBRANCH  13  18
DOCKED: ENDBRANCH   1  13
DOCKED: TORSDOF 6DOCKED: TER
DOCKED: ENDMDL
________________________________________________________________________________


	BEGINNING GENETIC ALGORITHM DOCKING 12 of 100
Run: 12 Seed: 100917855 1283345398 [ Run 12 of 100 GA/GALS ]
Beginning LAMARCKIAN GENETIC ALGORITHM (LGA), with a maximum of 2500000 energy evaluations.

Final-Value: -14.914


	FINAL GENETIC ALGORITHM DOCKED STATE
	_______________________________________________


Detailed state:  trans 36.750 14.939 123.364 quatxyzw -0.556230 -0.822204 -0.103491 -0.062274 center -0.963 -0.416 0.212 ntor 6 -173.4046 -180.0000 176.1542 -139.9806 70.9195 -40.6604
State:	 36.750  14.939 123.364  -0.557 -0.824 -0.104 -172.859   -173.40 -180.00  176.15 -139.98   70.92  -40.66

DOCKED: MODEL       12
DOCKED: USER    Run = 12
DOCKED: USER    DPF = ligand_dock.biased.dpf
DOCKED: USER  
DOCKED: USER    Estimated Free Energy of Binding    =  -12.22 kcal/mol  [=(1)+(2)+(3)-(4)]
DOCKED: USER    Estimated Inhibition Constant, Ki   =    1.11 nM (nanomolar)  [Temperature = 298.15 K]
DOCKED: USER    
DOCKED: USER    (1) Final Intermolecular Energy     =  -14.01 kcal/mol
DOCKED: USER        vdW + Hbond + desolv Energy     =  -14.01 kcal/mol
DOCKED: USER        Electrostatic Energy            =   +0.00 kcal/mol
DOCKED: USER    (2) Final Total Internal Energy     =   -0.91 kcal/mol
DOCKED: USER    (3) Torsional Free Energy           =   +1.79 kcal/mol
DOCKED: USER    (4) Unbound System's Energy  [=(2)] =   -0.91 kcal/mol
DOCKED: USER    
DOCKED: USER    
DOCKED: USER    NEWDPF move ligand.dum.pdbqt
DOCKED: USER    NEWDPF about -0.963000 -0.416000 0.212000
DOCKED: USER    NEWDPF tran0 36.750295 14.939373 123.364021
DOCKED: USER    NEWDPF quaternion0 -0.556230 -0.822204 -0.103491 -0.062274
DOCKED: USER    NEWDPF axisangle0 -0.557311 -0.823803 -0.103692 -172.859306
DOCKED: USER    NEWDPF quat0 -0.557311 -0.823803 -0.103692 -172.859306
DOCKED: USER    NEWDPF dihe0 -173.40 -180.00 176.15 -139.98 70.92 -40.66 
DOCKED: USER  keepresnum = 1 
DOCKED: USER  
DOCKED: REMARK  Name = 
DOCKED: REMARK  10 active torsions:
DOCKED: REMARK  status: ('A' for Active; 'I' for Inactive)
DOCKED: REMARK    1  A    between atoms: C_1  and  N_2
DOCKED: REMARK    2  A    between atoms: N_2  and  C_3
DOCKED: REMARK    3  A    between atoms: N_2  and  C_22
DOCKED: REMARK    4  A    between atoms: C_6  and  C_9
DOCKED: REMARK    5  A    between atoms: C_9  and  C_10
DOCKED: REMARK    6  A    between atoms: C_10  and  C_11
DOCKED: REMARK    7  A    between atoms: C_10  and  C_20
DOCKED: REMARK    8  A    between atoms: C_12  and  C_13
DOCKED: REMARK    9  A    between atoms: C_12  and  C_19
DOCKED: REMARK   10  A    between atoms: C_14  and  C_15
DOCKED: REMARK                            x       y       z     vdW  Elec       q    Type
DOCKED: REMARK                         _______ _______ _______ _____ _____    ______ ____
DOCKED: USER                              x       y       z     vdW  Elec       q    Type
DOCKED: USER                           _______ _______ _______ _____ _____    ______ ____
DOCKED: ROOT
DOCKED: ATOM      1  C   UNL     1      37.708  15.597 122.264 -0.31 -0.00    +0.000 C 
DOCKED: ATOM      2  C   UNL     1      38.589  16.158 121.144 -0.19 -0.00    +0.000 C 
DOCKED: ENDROOT
DOCKED: BRANCH   1   3
DOCKED: ATOM      3  C   UNL     1      37.596  14.091 122.133 -0.45 -0.00    +0.000 C 
DOCKED: ATOM      4  C   UNL     1      37.304  13.435 120.990 -0.44 -0.00    +0.000 C 
DOCKED: ATOM      5  C   UNL     1      37.066  14.166 119.688 -0.33 -0.00    +0.000 C 
DOCKED: BRANCH   4   6
DOCKED: ATOM      6  C   UNL     1      37.266  11.950 121.033 -0.52 -0.00    +0.000 C 
DOCKED: ATOM      7  C   UNL     1      37.065  11.256 122.164 -0.56 -0.00    +0.000 C 
DOCKED: BRANCH   7   8
DOCKED: ATOM      8  C   UNL     1      37.023   9.780 122.218 -0.60 -0.00    +0.000 C 
DOCKED: ATOM      9  N   UNL     1      37.176   9.052 123.442 -0.54 -0.00    +0.000 N 
DOCKED: ATOM     10  O   UNL     1      37.026   7.707 123.455 -2.67 -0.00    +0.000 OA
DOCKED: ATOM     11  O   UNL     1      36.869   9.146 121.141 -2.67 -0.00    +0.000 OA
DOCKED: ATOM     12  H   UNL     1      37.392   9.531 124.276 -0.63 -0.00    +0.000 HD
DOCKED: ENDBRANCH   7   8
DOCKED: ENDBRANCH   4   6
DOCKED: ENDBRANCH   1   3
DOCKED: BRANCH   1  13
DOCKED: ATOM     13  C   UNL     1      36.338  16.244 122.213 -0.28 -0.00    +0.000 C 
DOCKED: ATOM     14  O   UNL     1      35.842  16.541 121.090 -0.24 -0.00    +0.000 OA
DOCKED: BRANCH  13  18
DOCKED: ATOM     15  C   UNL     1      34.075  17.161 125.780 -0.38 -0.00    +0.000 A 
DOCKED: ATOM     16  C   UNL     1      34.066  15.869 125.221 -0.44 -0.00    +0.000 A 
DOCKED: ATOM     17  C   UNL     1      34.799  15.581 124.067 -0.52 -0.00    +0.000 A 
DOCKED: ATOM     18  C   UNL     1      35.571  16.573 123.442 -0.35 -0.00    +0.000 A 
DOCKED: ATOM     19  C   UNL     1      35.575  17.868 123.988 -0.27 -0.00    +0.000 A 
DOCKED: ATOM     20  C   UNL     1      34.841  18.157 125.141 -0.29 -0.00    +0.000 A 
DOCKED: ATOM     21  CM  UNL     1      34.821  16.868 124.606 -0.25 -0.00    +0.000 AC
DOCKED: BRANCH  15  22
DOCKED: ATOM     22  C   UNL     1      33.014  16.407 127.958 -0.45 -0.00    +0.000 C 
DOCKED: ATOM     23  N   UNL     1      33.313  17.461 126.980 -0.36 -0.00    +0.000 N 
DOCKED: ATOM     24  C   UNL     1      32.830  18.823 127.235 -0.26 -0.00    +0.000 C 
DOCKED: ENDBRANCH  15  22
DOCKED: ENDBRANCH  13  18
DOCKED: ENDBRANCH   1  13
DOCKED: TORSDOF 6DOCKED: TER
DOCKED: ENDMDL
________________________________________________________________________________


	BEGINNING GENETIC ALGORITHM DOCKING 13 of 100
Run: 13 Seed: 577438943 330898601 [ Run 13 of 100 GA/GALS ]
Beginning LAMARCKIAN GENETIC ALGORITHM (LGA), with a maximum of 2500000 energy evaluations.

Final-Value: -14.582


	FINAL GENETIC ALGORITHM DOCKED STATE
	_______________________________________________


Detailed state:  trans 36.315 15.065 122.013 quatxyzw 0.350895 0.708206 0.341939 -0.508326 center -0.963 -0.416 0.212 ntor 6 117.8400 19.3139 80.1031 39.6049 154.5227 -19.7841
State:	 36.315  15.065 122.013   0.407  0.822  0.397 -118.895    117.84   19.31   80.10   39.60  154.52  -19.78

DOCKED: MODEL       13
DOCKED: USER    Run = 13
DOCKED: USER    DPF = ligand_dock.biased.dpf
DOCKED: USER  
DOCKED: USER    Estimated Free Energy of Binding    =  -11.59 kcal/mol  [=(1)+(2)+(3)-(4)]
DOCKED: USER    Estimated Inhibition Constant, Ki   =    3.19 nM (nanomolar)  [Temperature = 298.15 K]
DOCKED: USER    
DOCKED: USER    (1) Final Intermolecular Energy     =  -13.38 kcal/mol
DOCKED: USER        vdW + Hbond + desolv Energy     =  -13.38 kcal/mol
DOCKED: USER        Electrostatic Energy            =   +0.00 kcal/mol
DOCKED: USER    (2) Final Total Internal Energy     =   -1.20 kcal/mol
DOCKED: USER    (3) Torsional Free Energy           =   +1.79 kcal/mol
DOCKED: USER    (4) Unbound System's Energy  [=(2)] =   -1.20 kcal/mol
DOCKED: USER    
DOCKED: USER    
DOCKED: USER    NEWDPF move ligand.dum.pdbqt
DOCKED: USER    NEWDPF about -0.963000 -0.416000 0.212000
DOCKED: USER    NEWDPF tran0 36.314812 15.065328 122.013475
DOCKED: USER    NEWDPF quaternion0 0.350895 0.708206 0.341939 -0.508326
DOCKED: USER    NEWDPF axisangle0 0.407466 0.822381 0.397065 -118.895221
DOCKED: USER    NEWDPF quat0 0.407466 0.822381 0.397065 -118.895221
DOCKED: USER    NEWDPF dihe0 117.84 19.31 80.10 39.60 154.52 -19.78 
DOCKED: USER  keepresnum = 1 
DOCKED: USER  
DOCKED: REMARK  Name = 
DOCKED: REMARK  10 active torsions:
DOCKED: REMARK  status: ('A' for Active; 'I' for Inactive)
DOCKED: REMARK    1  A    between atoms: C_1  and  N_2
DOCKED: REMARK    2  A    between atoms: N_2  and  C_3
DOCKED: REMARK    3  A    between atoms: N_2  and  C_22
DOCKED: REMARK    4  A    between atoms: C_6  and  C_9
DOCKED: REMARK    5  A    between atoms: C_9  and  C_10
DOCKED: REMARK    6  A    between atoms: C_10  and  C_11
DOCKED: REMARK    7  A    between atoms: C_10  and  C_20
DOCKED: REMARK    8  A    between atoms: C_12  and  C_13
DOCKED: REMARK    9  A    between atoms: C_12  and  C_19
DOCKED: REMARK   10  A    between atoms: C_14  and  C_15
DOCKED: REMARK                            x       y       z     vdW  Elec       q    Type
DOCKED: REMARK                         _______ _______ _______ _____ _____    ______ ____
DOCKED: USER                              x       y       z     vdW  Elec       q    Type
DOCKED: USER                           _______ _______ _______ _____ _____    ______ ____
DOCKED: ROOT
DOCKED: ATOM      1  C   UNL     1      37.656  15.747 122.560 -0.32 -0.00    +0.000 C 
DOCKED: ATOM      2  C   UNL     1      38.990  16.319 123.046 -0.27 -0.00    +0.000 C 
DOCKED: ENDROOT
DOCKED: BRANCH   1   3
DOCKED: ATOM      3  C   UNL     1      37.650  14.238 122.709 -0.48 -0.00    +0.000 C 
DOCKED: ATOM      4  C   UNL     1      36.658  13.522 123.279 -0.58 -0.00    +0.000 C 
DOCKED: ATOM      5  C   UNL     1      35.411  14.181 123.826 -0.52 -0.00    +0.000 C 
DOCKED: BRANCH   4   6
DOCKED: ATOM      6  C   UNL     1      36.801  12.044 123.313 -0.68 -0.00    +0.000 C 
DOCKED: ATOM      7  C   UNL     1      36.661  11.270 122.227 -0.64 -0.00    +0.000 C 
DOCKED: BRANCH   7   8
DOCKED: ATOM      8  C   UNL     1      36.805   9.799 122.249 -0.66 -0.00    +0.000 C 
DOCKED: ATOM      9  N   UNL     1      37.074   9.073 123.454 -0.57 -0.00    +0.000 N 
DOCKED: ATOM     10  O   UNL     1      37.093   7.720 123.440 -2.68 -0.00    +0.000 OA
DOCKED: ATOM     11  O   UNL     1      36.710   9.172 121.161 -2.63 -0.00    +0.000 OA
DOCKED: ATOM     12  H   UNL     1      37.245   9.559 124.294 -0.59 -0.00    +0.000 HD
DOCKED: ENDBRANCH   7   8
DOCKED: ENDBRANCH   4   6
DOCKED: ENDBRANCH   1   3
DOCKED: BRANCH   1  13
DOCKED: ATOM     13  C   UNL     1      37.423  16.144 121.115 -0.20 -0.00    +0.000 C 
DOCKED: ATOM     14  O   UNL     1      38.296  15.852 120.251 -0.18 -0.00    +0.000 OA
DOCKED: BRANCH  13  18
DOCKED: ATOM     15  C   UNL     1      33.886  18.318 119.907 -0.27 -0.00    +0.000 A 
DOCKED: ATOM     16  C   UNL     1      34.105  17.968 121.254 -0.31 -0.00    +0.000 A 
DOCKED: ATOM     17  C   UNL     1      35.249  17.265 121.636 -0.25 -0.00    +0.000 A 
DOCKED: ATOM     18  C   UNL     1      36.215  16.897 120.686 -0.16 -0.00    +0.000 A 
DOCKED: ATOM     19  C   UNL     1      35.998  17.232 119.338 -0.14 -0.00    +0.000 A 
DOCKED: ATOM     20  C   UNL     1      34.852  17.935 118.955 -0.17 -0.00    +0.000 A 
DOCKED: ATOM     21  CM  UNL     1      35.051  17.602 120.296 +0.00 -0.00    +0.000 AC
DOCKED: BRANCH  15  22
DOCKED: ATOM     22  C   UNL     1      31.386  18.713 120.082 -0.51 -0.00    +0.000 C 
DOCKED: ATOM     23  N   UNL     1      32.696  19.050 119.510 -0.34 -0.00    +0.000 N 
DOCKED: ATOM     24  C   UNL     1      32.783  20.139 118.530 -0.23 -0.00    +0.000 C 
DOCKED: ENDBRANCH  15  22
DOCKED: ENDBRANCH  13  18
DOCKED: ENDBRANCH   1  13
DOCKED: TORSDOF 6DOCKED: TER
DOCKED: ENDMDL
________________________________________________________________________________


	BEGINNING GENETIC ALGORITHM DOCKING 14 of 100
Run: 14 Seed: 208015047 646722335 [ Run 14 of 100 GA/GALS ]
Beginning LAMARCKIAN GENETIC ALGORITHM (LGA), with a maximum of 2500000 energy evaluations.

Final-Value: -14.577


	FINAL GENETIC ALGORITHM DOCKED STATE
	_______________________________________________


Detailed state:  trans 38.955 14.781 122.019 quatxyzw -0.397763 -0.477185 0.373753 -0.688758 center -0.963 -0.416 0.212 ntor 6 -166.5084 166.7471 -175.1827 -27.8819 -145.0684 131.0000
State:	 38.955  14.781 122.019  -0.549 -0.658  0.516 -92.936   -166.51  166.75 -175.18  -27.88 -145.07  131.00

DOCKED: MODEL       14
DOCKED: USER    Run = 14
DOCKED: USER    DPF = ligand_dock.biased.dpf
DOCKED: USER  
DOCKED: USER    Estimated Free Energy of Binding    =  -11.70 kcal/mol  [=(1)+(2)+(3)-(4)]
DOCKED: USER    Estimated Inhibition Constant, Ki   =    2.67 nM (nanomolar)  [Temperature = 298.15 K]
DOCKED: USER    
DOCKED: USER    (1) Final Intermolecular Energy     =  -13.49 kcal/mol
DOCKED: USER        vdW + Hbond + desolv Energy     =  -13.49 kcal/mol
DOCKED: USER        Electrostatic Energy            =   +0.00 kcal/mol
DOCKED: USER    (2) Final Total Internal Energy     =   -1.09 kcal/mol
DOCKED: USER    (3) Torsional Free Energy           =   +1.79 kcal/mol
DOCKED: USER    (4) Unbound System's Energy  [=(2)] =   -1.09 kcal/mol
DOCKED: USER    
DOCKED: USER    
DOCKED: USER    NEWDPF move ligand.dum.pdbqt
DOCKED: USER    NEWDPF about -0.963000 -0.416000 0.212000
DOCKED: USER    NEWDPF tran0 38.955090 14.781156 122.019417
DOCKED: USER    NEWDPF quaternion0 -0.397763 -0.477185 0.373753 -0.688758
DOCKED: USER    NEWDPF axisangle0 -0.548646 -0.658194 0.515527 -92.936184
DOCKED: USER    NEWDPF quat0 -0.548646 -0.658194 0.515527 -92.936184
DOCKED: USER    NEWDPF dihe0 -166.51 166.75 -175.18 -27.88 -145.07 131.00 
DOCKED: USER  keepresnum = 1 
DOCKED: USER  
DOCKED: REMARK  Name = 
DOCKED: REMARK  10 active torsions:
DOCKED: REMARK  status: ('A' for Active; 'I' for Inactive)
DOCKED: REMARK    1  A    between atoms: C_1  and  N_2
DOCKED: REMARK    2  A    between atoms: N_2  and  C_3
DOCKED: REMARK    3  A    between atoms: N_2  and  C_22
DOCKED: REMARK    4  A    between atoms: C_6  and  C_9
DOCKED: REMARK    5  A    between atoms: C_9  and  C_10
DOCKED: REMARK    6  A    between atoms: C_10  and  C_11
DOCKED: REMARK    7  A    between atoms: C_10  and  C_20
DOCKED: REMARK    8  A    between atoms: C_12  and  C_13
DOCKED: REMARK    9  A    between atoms: C_12  and  C_19
DOCKED: REMARK   10  A    between atoms: C_14  and  C_15
DOCKED: REMARK                            x       y       z     vdW  Elec       q    Type
DOCKED: REMARK                         _______ _______ _______ _____ _____    ______ ____
DOCKED: USER                              x       y       z     vdW  Elec       q    Type
DOCKED: USER                           _______ _______ _______ _____ _____    ______ ____
DOCKED: ROOT
DOCKED: ATOM      1  C   UNL     1      37.635  15.424 121.383 -0.27 -0.00    +0.000 C 
DOCKED: ATOM      2  C   UNL     1      36.319  15.966 120.821 -0.08 -0.00    +0.000 C 
DOCKED: ENDROOT
DOCKED: BRANCH   1   3
DOCKED: ATOM      3  C   UNL     1      37.592  13.910 121.441 -0.42 -0.00    +0.000 C 
DOCKED: ATOM      4  C   UNL     1      37.491  13.098 120.368 -0.47 -0.00    +0.000 C 
DOCKED: ATOM      5  C   UNL     1      37.424  13.643 118.959 -0.41 -0.00    +0.000 C 
DOCKED: BRANCH   4   6
DOCKED: ATOM      6  C   UNL     1      37.495  11.631 120.605 -0.46 -0.00    +0.000 C 
DOCKED: ATOM      7  C   UNL     1      36.996  11.069 121.715 -0.53 -0.00    +0.000 C 
DOCKED: BRANCH   7   8
DOCKED: ATOM      8  C   UNL     1      36.992   9.612 121.960 -0.62 -0.00    +0.000 C 
DOCKED: ATOM      9  N   UNL     1      37.083   9.054 123.276 -0.62 -0.00    +0.000 N 
DOCKED: ATOM     10  O   UNL     1      36.970   7.717 123.455 -2.64 -0.00    +0.000 OA
DOCKED: ATOM     11  O   UNL     1      36.929   8.838 120.967 -2.67 -0.00    +0.000 OA
DOCKED: ATOM     12  H   UNL     1      37.229   9.644 124.051 -0.54 -0.00    +0.000 HD
DOCKED: ENDBRANCH   7   8
DOCKED: ENDBRANCH   4   6
DOCKED: ENDBRANCH   1   3
DOCKED: BRANCH   1  13
DOCKED: ATOM     13  C   UNL     1      37.885  16.008 122.760 -0.30 -0.00    +0.000 C 
DOCKED: ATOM     14  O   UNL     1      39.074  16.113 123.174 -0.31 -0.00    +0.000 OA
DOCKED: BRANCH  13  18
DOCKED: ATOM     15  C   UNL     1      34.631  17.198 125.346 -0.35 -0.00    +0.000 A 
DOCKED: ATOM     16  C   UNL     1      34.772  15.865 124.914 -0.41 -0.00    +0.000 A 
DOCKED: ATOM     17  C   UNL     1      35.825  15.489 124.077 -0.40 -0.00    +0.000 A 
DOCKED: ATOM     18  C   UNL     1      36.776  16.431 123.654 -0.28 -0.00    +0.000 A 
DOCKED: ATOM     19  C   UNL     1      36.635  17.766 124.071 -0.21 -0.00    +0.000 A 
DOCKED: ATOM     20  C   UNL     1      35.581  18.143 124.907 -0.24 -0.00    +0.000 A 
DOCKED: ATOM     21  CM  UNL     1      35.703  16.815 124.495 -0.14 -0.00    +0.000 AC
DOCKED: BRANCH  15  22
DOCKED: ATOM     22  C   UNL     1      33.021  16.662 127.232 -0.44 -0.00    +0.000 C 
DOCKED: ATOM     23  N   UNL     1      33.537  17.589 126.216 -0.37 -0.00    +0.000 N 
DOCKED: ATOM     24  C   UNL     1      32.926  18.919 126.095 -0.29 -0.00    +0.000 C 
DOCKED: ENDBRANCH  15  22
DOCKED: ENDBRANCH  13  18
DOCKED: ENDBRANCH   1  13
DOCKED: TORSDOF 6DOCKED: TER
DOCKED: ENDMDL
________________________________________________________________________________


	BEGINNING GENETIC ALGORITHM DOCKING 15 of 100
Run: 15 Seed: 570294675 1978017355 [ Run 15 of 100 GA/GALS ]
Beginning LAMARCKIAN GENETIC ALGORITHM (LGA), with a maximum of 2500000 energy evaluations.

Final-Value: -14.871


	FINAL GENETIC ALGORITHM DOCKED STATE
	_______________________________________________


Detailed state:  trans 36.738 14.915 123.588 quatxyzw 0.581999 0.796775 0.162054 0.012840 center -0.963 -0.416 0.212 ntor 6 -180.0000 -173.6871 168.1265 -150.0695 83.4078 -41.3588
State:	 36.738  14.915 123.588   0.582  0.797  0.162 178.529   -180.00 -173.69  168.13 -150.07   83.41  -41.36

DOCKED: MODEL       15
DOCKED: USER    Run = 15
DOCKED: USER    DPF = ligand_dock.biased.dpf
DOCKED: USER  
DOCKED: USER    Estimated Free Energy of Binding    =  -12.11 kcal/mol  [=(1)+(2)+(3)-(4)]
DOCKED: USER    Estimated Inhibition Constant, Ki   =    1.32 nM (nanomolar)  [Temperature = 298.15 K]
DOCKED: USER    
DOCKED: USER    (1) Final Intermolecular Energy     =  -13.90 kcal/mol
DOCKED: USER        vdW + Hbond + desolv Energy     =  -13.90 kcal/mol
DOCKED: USER        Electrostatic Energy            =   +0.00 kcal/mol
DOCKED: USER    (2) Final Total Internal Energy     =   -0.97 kcal/mol
DOCKED: USER    (3) Torsional Free Energy           =   +1.79 kcal/mol
DOCKED: USER    (4) Unbound System's Energy  [=(2)] =   -0.97 kcal/mol
DOCKED: USER    
DOCKED: USER    
DOCKED: USER    NEWDPF move ligand.dum.pdbqt
DOCKED: USER    NEWDPF about -0.963000 -0.416000 0.212000
DOCKED: USER    NEWDPF tran0 36.738060 14.915093 123.588243
DOCKED: USER    NEWDPF quaternion0 0.581999 0.796775 0.162054 0.012840
DOCKED: USER    NEWDPF axisangle0 0.582047 0.796841 0.162067 178.528584
DOCKED: USER    NEWDPF quat0 0.582047 0.796841 0.162067 178.528584
DOCKED: USER    NEWDPF dihe0 -180.00 -173.69 168.13 -150.07 83.41 -41.36 
DOCKED: USER  keepresnum = 1 
DOCKED: USER  
DOCKED: REMARK  Name = 
DOCKED: REMARK  10 active torsions:
DOCKED: REMARK  status: ('A' for Active; 'I' for Inactive)
DOCKED: REMARK    1  A    between atoms: C_1  and  N_2
DOCKED: REMARK    2  A    between atoms: N_2  and  C_3
DOCKED: REMARK    3  A    between atoms: N_2  and  C_22
DOCKED: REMARK    4  A    between atoms: C_6  and  C_9
DOCKED: REMARK    5  A    between atoms: C_9  and  C_10
DOCKED: REMARK    6  A    between atoms: C_10  and  C_11
DOCKED: REMARK    7  A    between atoms: C_10  and  C_20
DOCKED: REMARK    8  A    between atoms: C_12  and  C_13
DOCKED: REMARK    9  A    between atoms: C_12  and  C_19
DOCKED: REMARK   10  A    between atoms: C_14  and  C_15
DOCKED: REMARK                            x       y       z     vdW  Elec       q    Type
DOCKED: REMARK                         _______ _______ _______ _____ _____    ______ ____
DOCKED: USER                              x       y       z     vdW  Elec       q    Type
DOCKED: USER                           _______ _______ _______ _____ _____    ______ ____
DOCKED: ROOT
DOCKED: ATOM      1  C   UNL     1      37.892  15.523 122.662 -0.35 -0.00    +0.000 C 
DOCKED: ATOM      2  C   UNL     1      38.965  16.043 121.701 -0.24 -0.00    +0.000 C 
DOCKED: ENDROOT
DOCKED: BRANCH   1   3
DOCKED: ATOM      3  C   UNL     1      37.672  14.039 122.443 -0.48 -0.00    +0.000 C 
DOCKED: ATOM      4  C   UNL     1      37.297  13.479 121.274 -0.44 -0.00    +0.000 C 
DOCKED: ATOM      5  C   UNL     1      37.067  14.306 120.029 -0.30 -0.00    +0.000 C 
DOCKED: BRANCH   4   6
DOCKED: ATOM      6  C   UNL     1      37.158  12.000 121.227 -0.54 -0.00    +0.000 C 
DOCKED: ATOM      7  C   UNL     1      37.105  11.235 122.328 -0.53 -0.00    +0.000 C 
DOCKED: BRANCH   7   8
DOCKED: ATOM      8  C   UNL     1      36.964   9.765 122.294 -0.62 -0.00    +0.000 C 
DOCKED: ATOM      9  N   UNL     1      37.144   8.949 123.457 -0.57 -0.00    +0.000 N 
DOCKED: ATOM     10  O   UNL     1      36.902   7.619 123.396 -2.51 -0.00    +0.000 OA
DOCKED: ATOM     11  O   UNL     1      36.699   9.215 121.192 -2.63 -0.00    +0.000 OA
DOCKED: ATOM     12  H   UNL     1      37.444   9.357 124.302 -0.64 -0.00    +0.000 HD
DOCKED: ENDBRANCH   7   8
DOCKED: ENDBRANCH   4   6
DOCKED: ENDBRANCH   1   3
DOCKED: BRANCH   1  13
DOCKED: ATOM     13  C   UNL     1      36.603  16.294 122.457 -0.29 -0.00    +0.000 C 
DOCKED: ATOM     14  O   UNL     1      36.302  16.688 121.296 -0.23 -0.00    +0.000 OA
DOCKED: BRANCH  13  18
DOCKED: ATOM     15  C   UNL     1      33.934  17.235 125.726 -0.37 -0.00    +0.000 A 
DOCKED: ATOM     16  C   UNL     1      34.087  15.913 125.264 -0.44 -0.00    +0.000 A 
DOCKED: ATOM     17  C   UNL     1      34.950  15.618 124.207 -0.50 -0.00    +0.000 A 
DOCKED: ATOM     18  C   UNL     1      35.695  16.632 123.584 -0.34 -0.00    +0.000 A 
DOCKED: ATOM     19  C   UNL     1      35.539  17.955 124.032 -0.27 -0.00    +0.000 A 
DOCKED: ATOM     20  C   UNL     1      34.674  18.251 125.089 -0.30 -0.00    +0.000 A 
DOCKED: ATOM     21  CM  UNL     1      34.813  16.934 124.650 -0.27 -0.00    +0.000 AC
DOCKED: BRANCH  15  22
DOCKED: ATOM     22  C   UNL     1      32.619  16.493 127.765 -0.45 -0.00    +0.000 C 
DOCKED: ATOM     23  N   UNL     1      33.038  17.542 126.826 -0.35 -0.00    +0.000 N 
DOCKED: ATOM     24  C   UNL     1      32.534  18.908 127.019 -0.27 -0.00    +0.000 C 
DOCKED: ENDBRANCH  15  22
DOCKED: ENDBRANCH  13  18
DOCKED: ENDBRANCH   1  13
DOCKED: TORSDOF 6DOCKED: TER
DOCKED: ENDMDL
________________________________________________________________________________


	BEGINNING GENETIC ALGORITHM DOCKING 16 of 100
Run: 16 Seed: 1544430232 1800063290 [ Run 16 of 100 GA/GALS ]
Beginning LAMARCKIAN GENETIC ALGORITHM (LGA), with a maximum of 2500000 energy evaluations.

Final-Value: -15.104


	FINAL GENETIC ALGORITHM DOCKED STATE
	_______________________________________________


Detailed state:  trans 36.345 14.811 122.359 quatxyzw -0.425228 -0.809592 -0.227380 0.334723 center -0.963 -0.416 0.212 ntor 6 -85.5239 38.5042 74.0423 61.0348 -149.0565 170.6649
State:	 36.345  14.811 122.359  -0.451 -0.859 -0.241 140.889    -85.52   38.50   74.04   61.03 -149.06  170.66

DOCKED: MODEL       16
DOCKED: USER    Run = 16
DOCKED: USER    DPF = ligand_dock.biased.dpf
DOCKED: USER  
DOCKED: USER    Estimated Free Energy of Binding    =  -12.00 kcal/mol  [=(1)+(2)+(3)-(4)]
DOCKED: USER    Estimated Inhibition Constant, Ki   =    1.60 nM (nanomolar)  [Temperature = 298.15 K]
DOCKED: USER    
DOCKED: USER    (1) Final Intermolecular Energy     =  -13.79 kcal/mol
DOCKED: USER        vdW + Hbond + desolv Energy     =  -13.79 kcal/mol
DOCKED: USER        Electrostatic Energy            =   +0.00 kcal/mol
DOCKED: USER    (2) Final Total Internal Energy     =   -1.31 kcal/mol
DOCKED: USER    (3) Torsional Free Energy           =   +1.79 kcal/mol
DOCKED: USER    (4) Unbound System's Energy  [=(2)] =   -1.31 kcal/mol
DOCKED: USER    
DOCKED: USER    
DOCKED: USER    NEWDPF move ligand.dum.pdbqt
DOCKED: USER    NEWDPF about -0.963000 -0.416000 0.212000
DOCKED: USER    NEWDPF tran0 36.344682 14.810928 122.359046
DOCKED: USER    NEWDPF quaternion0 -0.425228 -0.809592 -0.227380 0.334723
DOCKED: USER    NEWDPF axisangle0 -0.451258 -0.859151 -0.241299 140.888617
DOCKED: USER    NEWDPF quat0 -0.451258 -0.859151 -0.241299 140.888617
DOCKED: USER    NEWDPF dihe0 -85.52 38.50 74.04 61.03 -149.06 170.66 
DOCKED: USER  keepresnum = 1 
DOCKED: USER  
DOCKED: REMARK  Name = 
DOCKED: REMARK  10 active torsions:
DOCKED: REMARK  status: ('A' for Active; 'I' for Inactive)
DOCKED: REMARK    1  A    between atoms: C_1  and  N_2
DOCKED: REMARK    2  A    between atoms: N_2  and  C_3
DOCKED: REMARK    3  A    between atoms: N_2  and  C_22
DOCKED: REMARK    4  A    between atoms: C_6  and  C_9
DOCKED: REMARK    5  A    between atoms: C_9  and  C_10
DOCKED: REMARK    6  A    between atoms: C_10  and  C_11
DOCKED: REMARK    7  A    between atoms: C_10  and  C_20
DOCKED: REMARK    8  A    between atoms: C_12  and  C_13
DOCKED: REMARK    9  A    between atoms: C_12  and  C_19
DOCKED: REMARK   10  A    between atoms: C_14  and  C_15
DOCKED: REMARK                            x       y       z     vdW  Elec       q    Type
DOCKED: REMARK                         _______ _______ _______ _____ _____    ______ ____
DOCKED: USER                              x       y       z     vdW  Elec       q    Type
DOCKED: USER                           _______ _______ _______ _____ _____    ______ ____
DOCKED: ROOT
DOCKED: ATOM      1  C   UNL     1      37.801  15.453 122.190 -0.32 -0.00    +0.000 C 
DOCKED: ATOM      2  C   UNL     1      39.220  15.985 121.976 -0.27 -0.00    +0.000 C 
DOCKED: ENDROOT
DOCKED: BRANCH   1   3
DOCKED: ATOM      3  C   UNL     1      37.831  13.950 122.387 -0.48 -0.00    +0.000 C 
DOCKED: ATOM      4  C   UNL     1      36.919  13.244 123.087 -0.59 -0.00    +0.000 C 
DOCKED: ATOM      5  C   UNL     1      35.733  13.908 123.751 -0.55 -0.00    +0.000 C 
DOCKED: BRANCH   4   6
DOCKED: ATOM      6  C   UNL     1      37.084  11.769 123.151 -0.65 -0.00    +0.000 C 
DOCKED: ATOM      7  C   UNL     1      36.721  10.948 122.154 -0.63 -0.00    +0.000 C 
DOCKED: BRANCH   7   8
DOCKED: ATOM      8  C   UNL     1      36.884   9.481 122.206 -0.66 -0.00    +0.000 C 
DOCKED: ATOM      9  N   UNL     1      37.025   8.767 123.440 -0.63 -0.00    +0.000 N 
DOCKED: ATOM     10  O   UNL     1      37.067   7.415 123.441 -2.47 -0.00    +0.000 OA
DOCKED: ATOM     11  O   UNL     1      36.924   8.843 121.120 -2.66 -0.00    +0.000 OA
DOCKED: ATOM     12  H   UNL     1      37.092   9.262 124.290 -0.54 -0.00    +0.000 HD
DOCKED: ENDBRANCH   7   8
DOCKED: ENDBRANCH   4   6
DOCKED: ENDBRANCH   1   3
DOCKED: BRANCH   1  13
DOCKED: ATOM     13  C   UNL     1      36.930  15.822 121.005 -0.22 -0.00    +0.000 C 
DOCKED: ATOM     14  O   UNL     1      35.975  16.633 121.175 -0.25 -0.00    +0.000 OA
DOCKED: BRANCH  13  18
DOCKED: ATOM     15  C   UNL     1      37.552  14.074 117.101 -0.32 -0.00    +0.000 A 
DOCKED: ATOM     16  C   UNL     1      37.314  13.270 118.232 -0.36 -0.00    +0.000 A 
DOCKED: ATOM     17  C   UNL     1      37.115  13.843 119.491 -0.34 -0.00    +0.000 A 
DOCKED: ATOM     18  C   UNL     1      37.138  15.236 119.655 -0.21 -0.00    +0.000 A 
DOCKED: ATOM     19  C   UNL     1      37.388  16.045 118.533 -0.14 -0.00    +0.000 A 
DOCKED: ATOM     20  C   UNL     1      37.588  15.472 117.274 -0.16 -0.00    +0.000 A 
DOCKED: ATOM     21  CM  UNL     1      37.349  14.656 118.381 +0.00 -0.00    +0.000 AC
DOCKED: BRANCH  15  22
DOCKED: ATOM     22  C   UNL     1      36.797  13.711 114.706 -0.36 -0.00    +0.000 C 
DOCKED: ATOM     23  N   UNL     1      37.758  13.479 115.792 -0.41 -0.00    +0.000 N 
DOCKED: ATOM     24  C   UNL     1      38.931  12.635 115.532 -0.59 -0.00    +0.000 C 
DOCKED: ENDBRANCH  15  22
DOCKED: ENDBRANCH  13  18
DOCKED: ENDBRANCH   1  13
DOCKED: TORSDOF 6DOCKED: TER
DOCKED: ENDMDL
________________________________________________________________________________


	BEGINNING GENETIC ALGORITHM DOCKING 17 of 100
Run: 17 Seed: 997190511 2064120008 [ Run 17 of 100 GA/GALS ]
Beginning LAMARCKIAN GENETIC ALGORITHM (LGA), with a maximum of 2500000 energy evaluations.

Final-Value: -14.406


	FINAL GENETIC ALGORITHM DOCKED STATE
	_______________________________________________


Detailed state:  trans 38.716 15.008 121.295 quatxyzw 0.138877 0.128088 -0.509727 0.839336 center -0.963 -0.416 0.212 ntor 6 126.7382 167.1807 -172.4425 25.1727 20.1850 -65.4083
State:	 38.716  15.008 121.295   0.255  0.236 -0.938 65.860    126.74  167.18 -172.44   25.17   20.19  -65.41

DOCKED: MODEL       17
DOCKED: USER    Run = 17
DOCKED: USER    DPF = ligand_dock.biased.dpf
DOCKED: USER  
DOCKED: USER    Estimated Free Energy of Binding    =  -11.36 kcal/mol  [=(1)+(2)+(3)-(4)]
DOCKED: USER    Estimated Inhibition Constant, Ki   =    4.73 nM (nanomolar)  [Temperature = 298.15 K]
DOCKED: USER    
DOCKED: USER    (1) Final Intermolecular Energy     =  -13.15 kcal/mol
DOCKED: USER        vdW + Hbond + desolv Energy     =  -13.15 kcal/mol
DOCKED: USER        Electrostatic Energy            =   +0.00 kcal/mol
DOCKED: USER    (2) Final Total Internal Energy     =   -1.26 kcal/mol
DOCKED: USER    (3) Torsional Free Energy           =   +1.79 kcal/mol
DOCKED: USER    (4) Unbound System's Energy  [=(2)] =   -1.26 kcal/mol
DOCKED: USER    
DOCKED: USER    
DOCKED: USER    NEWDPF move ligand.dum.pdbqt
DOCKED: USER    NEWDPF about -0.963000 -0.416000 0.212000
DOCKED: USER    NEWDPF tran0 38.715567 15.007678 121.295025
DOCKED: USER    NEWDPF quaternion0 0.138877 0.128088 -0.509727 0.839336
DOCKED: USER    NEWDPF axisangle0 0.255470 0.235623 -0.937666 65.859846
DOCKED: USER    NEWDPF quat0 0.255470 0.235623 -0.937666 65.859846
DOCKED: USER    NEWDPF dihe0 126.74 167.18 -172.44 25.17 20.19 -65.41 
DOCKED: USER  keepresnum = 1 
DOCKED: USER  
DOCKED: REMARK  Name = 
DOCKED: REMARK  10 active torsions:
DOCKED: REMARK  status: ('A' for Active; 'I' for Inactive)
DOCKED: REMARK    1  A    between atoms: C_1  and  N_2
DOCKED: REMARK    2  A    between atoms: N_2  and  C_3
DOCKED: REMARK    3  A    between atoms: N_2  and  C_22
DOCKED: REMARK    4  A    between atoms: C_6  and  C_9
DOCKED: REMARK    5  A    between atoms: C_9  and  C_10
DOCKED: REMARK    6  A    between atoms: C_10  and  C_11
DOCKED: REMARK    7  A    between atoms: C_10  and  C_20
DOCKED: REMARK    8  A    between atoms: C_12  and  C_13
DOCKED: REMARK    9  A    between atoms: C_12  and  C_19
DOCKED: REMARK   10  A    between atoms: C_14  and  C_15
DOCKED: REMARK                            x       y       z     vdW  Elec       q    Type
DOCKED: REMARK                         _______ _______ _______ _____ _____    ______ ____
DOCKED: USER                              x       y       z     vdW  Elec       q    Type
DOCKED: USER                           _______ _______ _______ _____ _____    ______ ____
DOCKED: ROOT
DOCKED: ATOM      1  C   UNL     1      37.441  15.579 122.076 -0.30 -0.00    +0.000 C 
DOCKED: ATOM      2  C   UNL     1      36.228  16.046 122.885 -0.35 -0.00    +0.000 C 
DOCKED: ENDROOT
DOCKED: BRANCH   1   3
DOCKED: ATOM      3  C   UNL     1      37.463  14.065 121.998 -0.44 -0.00    +0.000 C 
DOCKED: ATOM      4  C   UNL     1      37.355  13.348 120.860 -0.45 -0.00    +0.000 C 
DOCKED: ATOM      5  C   UNL     1      37.209  14.012 119.509 -0.36 -0.00    +0.000 C 
DOCKED: BRANCH   4   6
DOCKED: ATOM      6  C   UNL     1      37.429  11.868 120.963 -0.51 -0.00    +0.000 C 
DOCKED: ATOM      7  C   UNL     1      36.949  11.183 122.012 -0.57 -0.00    +0.000 C 
DOCKED: BRANCH   7   8
DOCKED: ATOM      8  C   UNL     1      37.015   9.711 122.123 -0.60 -0.00    +0.000 C 
DOCKED: ATOM      9  N   UNL     1      37.114   9.040 123.385 -0.58 -0.00    +0.000 N 
DOCKED: ATOM     10  O   UNL     1      37.066   7.689 123.440 -2.67 -0.00    +0.000 OA
DOCKED: ATOM     11  O   UNL     1      37.006   9.029 121.063 -2.70 -0.00    +0.000 OA
DOCKED: ATOM     12  H   UNL     1      37.217   9.563 124.213 -0.61 -0.00    +0.000 HD
DOCKED: ENDBRANCH   7   8
DOCKED: ENDBRANCH   4   6
DOCKED: ENDBRANCH   1   3
DOCKED: BRANCH   1  13
DOCKED: ATOM     13  C   UNL     1      38.715  16.104 122.708 -0.29 -0.00    +0.000 C 
DOCKED: ATOM     14  O   UNL     1      38.655  16.644 123.848 -0.30 -0.00    +0.000 OA
DOCKED: BRANCH  13  18
DOCKED: ATOM     15  C   UNL     1      42.561  15.907 120.744 -0.21 -0.00    +0.000 A 
DOCKED: ATOM     16  C   UNL     1      42.407  15.522 122.091 -0.38 -0.00    +0.000 A 
DOCKED: ATOM     17  C   UNL     1      41.161  15.590 122.718 -0.43 -0.00    +0.000 A 
DOCKED: ATOM     18  C   UNL     1      40.029  16.035 122.017 -0.26 -0.00    +0.000 A 
DOCKED: ATOM     19  C   UNL     1      40.177  16.432 120.677 -0.15 -0.00    +0.000 A 
DOCKED: ATOM     20  C   UNL     1      41.424  16.366 120.049 -0.15 -0.00    +0.000 A 
DOCKED: ATOM     21  CM  UNL     1      41.293  15.975 121.383 +0.00 -0.00    +0.000 AC
DOCKED: BRANCH  15  22
DOCKED: ATOM     22  C   UNL     1      45.091  16.070 120.852 -0.28 +0.00    +0.000 C 
DOCKED: ATOM     23  N   UNL     1      43.856  15.836 120.091 -0.25 -0.00    +0.000 N 
DOCKED: ATOM     24  C   UNL     1      43.954  15.530 118.659 -0.31 -0.00    +0.000 C 
DOCKED: ENDBRANCH  15  22
DOCKED: ENDBRANCH  13  18
DOCKED: ENDBRANCH   1  13
DOCKED: TORSDOF 6DOCKED: TER
DOCKED: ENDMDL
________________________________________________________________________________


	BEGINNING GENETIC ALGORITHM DOCKING 18 of 100
Run: 18 Seed: 1855658491 1742209277 [ Run 18 of 100 GA/GALS ]
Beginning LAMARCKIAN GENETIC ALGORITHM (LGA), with a maximum of 2500000 energy evaluations.

Final-Value: -14.402


	FINAL GENETIC ALGORITHM DOCKED STATE
	_______________________________________________


Detailed state:  trans 38.393 15.157 121.490 quatxyzw 0.088706 0.088855 -0.530912 0.838074 center -0.963 -0.416 0.212 ntor 6 -41.9342 163.6063 -176.9968 39.9277 23.8037 -70.4178
State:	 38.393  15.157 121.490   0.163  0.163 -0.973 66.125    -41.93  163.61 -177.00   39.93   23.80  -70.42

DOCKED: MODEL       18
DOCKED: USER    Run = 18
DOCKED: USER    DPF = ligand_dock.biased.dpf
DOCKED: USER  
DOCKED: USER    Estimated Free Energy of Binding    =  -11.27 kcal/mol  [=(1)+(2)+(3)-(4)]
DOCKED: USER    Estimated Inhibition Constant, Ki   =    5.44 nM (nanomolar)  [Temperature = 298.15 K]
DOCKED: USER    
DOCKED: USER    (1) Final Intermolecular Energy     =  -13.06 kcal/mol
DOCKED: USER        vdW + Hbond + desolv Energy     =  -13.06 kcal/mol
DOCKED: USER        Electrostatic Energy            =   +0.00 kcal/mol
DOCKED: USER    (2) Final Total Internal Energy     =   -1.34 kcal/mol
DOCKED: USER    (3) Torsional Free Energy           =   +1.79 kcal/mol
DOCKED: USER    (4) Unbound System's Energy  [=(2)] =   -1.34 kcal/mol
DOCKED: USER    
DOCKED: USER    
DOCKED: USER    NEWDPF move ligand.dum.pdbqt
DOCKED: USER    NEWDPF about -0.963000 -0.416000 0.212000
DOCKED: USER    NEWDPF tran0 38.393393 15.157261 121.489718
DOCKED: USER    NEWDPF quaternion0 0.088706 0.088855 -0.530912 0.838074
DOCKED: USER    NEWDPF axisangle0 0.162598 0.162870 -0.973157 66.125394
DOCKED: USER    NEWDPF quat0 0.162598 0.162870 -0.973157 66.125394
DOCKED: USER    NEWDPF dihe0 -41.93 163.61 -177.00 39.93 23.80 -70.42 
DOCKED: USER  keepresnum = 1 
DOCKED: USER  
DOCKED: REMARK  Name = 
DOCKED: REMARK  10 active torsions:
DOCKED: REMARK  status: ('A' for Active; 'I' for Inactive)
DOCKED: REMARK    1  A    between atoms: C_1  and  N_2
DOCKED: REMARK    2  A    between atoms: N_2  and  C_3
DOCKED: REMARK    3  A    between atoms: N_2  and  C_22
DOCKED: REMARK    4  A    between atoms: C_6  and  C_9
DOCKED: REMARK    5  A    between atoms: C_9  and  C_10
DOCKED: REMARK    6  A    between atoms: C_10  and  C_11
DOCKED: REMARK    7  A    between atoms: C_10  and  C_20
DOCKED: REMARK    8  A    between atoms: C_12  and  C_13
DOCKED: REMARK    9  A    between atoms: C_12  and  C_19
DOCKED: REMARK   10  A    between atoms: C_14  and  C_15
DOCKED: REMARK                            x       y       z     vdW  Elec       q    Type
DOCKED: REMARK                         _______ _______ _______ _____ _____    ______ ____
DOCKED: USER                              x       y       z     vdW  Elec       q    Type
DOCKED: USER                           _______ _______ _______ _____ _____    ______ ____
DOCKED: ROOT
DOCKED: ATOM      1  C   UNL     1      37.204  15.647 122.442 -0.33 -0.00    +0.000 C 
DOCKED: ATOM      2  C   UNL     1      36.085  16.035 123.411 -0.40 -0.00    +0.000 C 
DOCKED: ENDROOT
DOCKED: BRANCH   1   3
DOCKED: ATOM      3  C   UNL     1      37.272  14.139 122.301 -0.45 -0.00    +0.000 C 
DOCKED: ATOM      4  C   UNL     1      37.333  13.475 121.127 -0.44 -0.00    +0.000 C 
DOCKED: ATOM      5  C   UNL     1      37.354  14.200 119.800 -0.34 -0.00    +0.000 C 
DOCKED: BRANCH   4   6
DOCKED: ATOM      6  C   UNL     1      37.427  11.993 121.173 -0.50 -0.00    +0.000 C 
DOCKED: ATOM      7  C   UNL     1      36.903  11.258 122.165 -0.59 -0.00    +0.000 C 
DOCKED: BRANCH   7   8
DOCKED: ATOM      8  C   UNL     1      36.988   9.784 122.219 -0.61 -0.00    +0.000 C 
DOCKED: ATOM      9  N   UNL     1      37.106   9.066 123.453 -0.56 -0.00    +0.000 N 
DOCKED: ATOM     10  O   UNL     1      37.075   7.713 123.457 -2.70 -0.00    +0.000 OA
DOCKED: ATOM     11  O   UNL     1      36.980   9.143 121.134 -2.70 -0.00    +0.000 OA
DOCKED: ATOM     12  H   UNL     1      37.208   9.558 124.301 -0.58 -0.00    +0.000 HD
DOCKED: ENDBRANCH   7   8
DOCKED: ENDBRANCH   4   6
DOCKED: ENDBRANCH   1   3
DOCKED: BRANCH   1  13
DOCKED: ATOM     13  C   UNL     1      38.526  16.201 122.936 -0.29 -0.00    +0.000 C 
DOCKED: ATOM     14  O   UNL     1      38.567  16.782 124.057 -0.29 -0.00    +0.000 OA
DOCKED: BRANCH  13  18
DOCKED: ATOM     15  C   UNL     1      42.179  15.946 120.637 -0.19 -0.00    +0.000 A 
DOCKED: ATOM     16  C   UNL     1      42.134  15.540 121.985 -0.39 -0.00    +0.000 A 
DOCKED: ATOM     17  C   UNL     1      40.950  15.627 122.721 -0.40 -0.00    +0.000 A 
DOCKED: ATOM     18  C   UNL     1      39.772  16.113 122.131 -0.25 -0.00    +0.000 A 
DOCKED: ATOM     19  C   UNL     1      39.813  16.532 120.790 -0.14 -0.00    +0.000 A 
DOCKED: ATOM     20  C   UNL     1      40.998  16.447 120.053 -0.14 -0.00    +0.000 A 
DOCKED: ATOM     21  CM  UNL     1      40.974  16.034 121.386 +0.00 -0.00    +0.000 AC
DOCKED: BRANCH  15  22
DOCKED: ATOM     22  C   UNL     1      43.374  15.823 118.403 -0.26 -0.00    +0.000 C 
DOCKED: ATOM     23  N   UNL     1      43.409  15.856 119.871 -0.23 -0.00    +0.000 N 
DOCKED: ATOM     24  C   UNL     1      44.709  15.797 120.550 -0.28 +0.00    +0.000 C 
DOCKED: ENDBRANCH  15  22
DOCKED: ENDBRANCH  13  18
DOCKED: ENDBRANCH   1  13
DOCKED: TORSDOF 6DOCKED: TER
DOCKED: ENDMDL
________________________________________________________________________________


	BEGINNING GENETIC ALGORITHM DOCKING 19 of 100
Run: 19 Seed: 320226034 1285095993 [ Run 19 of 100 GA/GALS ]
Beginning LAMARCKIAN GENETIC ALGORITHM (LGA), with a maximum of 2500000 energy evaluations.

Final-Value: -14.436


	FINAL GENETIC ALGORITHM DOCKED STATE
	_______________________________________________


Detailed state:  trans 36.958 15.006 123.890 quatxyzw 0.517185 0.849920 0.099395 -0.016635 center -0.963 -0.416 0.212 ntor 6 -141.0578 45.6422 68.4237 102.9196 -174.6346 -20.4547
State:	 36.958  15.006 123.890   0.517  0.850  0.099 -178.094   -141.06   45.64   68.42  102.92 -174.63  -20.45

DOCKED: MODEL       19
DOCKED: USER    Run = 19
DOCKED: USER    DPF = ligand_dock.biased.dpf
DOCKED: USER  
DOCKED: USER    Estimated Free Energy of Binding    =  -11.80 kcal/mol  [=(1)+(2)+(3)-(4)]
DOCKED: USER    Estimated Inhibition Constant, Ki   =    2.22 nM (nanomolar)  [Temperature = 298.15 K]
DOCKED: USER    
DOCKED: USER    (1) Final Intermolecular Energy     =  -13.59 kcal/mol
DOCKED: USER        vdW + Hbond + desolv Energy     =  -13.59 kcal/mol
DOCKED: USER        Electrostatic Energy            =   +0.00 kcal/mol
DOCKED: USER    (2) Final Total Internal Energy     =   -0.84 kcal/mol
DOCKED: USER    (3) Torsional Free Energy           =   +1.79 kcal/mol
DOCKED: USER    (4) Unbound System's Energy  [=(2)] =   -0.84 kcal/mol
DOCKED: USER    
DOCKED: USER    
DOCKED: USER    NEWDPF move ligand.dum.pdbqt
DOCKED: USER    NEWDPF about -0.963000 -0.416000 0.212000
DOCKED: USER    NEWDPF tran0 36.958489 15.005516 123.889768
DOCKED: USER    NEWDPF quaternion0 0.517185 0.849920 0.099395 -0.016635
DOCKED: USER    NEWDPF axisangle0 0.517257 0.850037 0.099409 -178.093714
DOCKED: USER    NEWDPF quat0 0.517257 0.850037 0.099409 -178.093714
DOCKED: USER    NEWDPF dihe0 -141.06 45.64 68.42 102.92 -174.63 -20.45 
DOCKED: USER  keepresnum = 1 
DOCKED: USER  
DOCKED: REMARK  Name = 
DOCKED: REMARK  10 active torsions:
DOCKED: REMARK  status: ('A' for Active; 'I' for Inactive)
DOCKED: REMARK    1  A    between atoms: C_1  and  N_2
DOCKED: REMARK    2  A    between atoms: N_2  and  C_3
DOCKED: REMARK    3  A    between atoms: N_2  and  C_22
DOCKED: REMARK    4  A    between atoms: C_6  and  C_9
DOCKED: REMARK    5  A    between atoms: C_9  and  C_10
DOCKED: REMARK    6  A    between atoms: C_10  and  C_11
DOCKED: REMARK    7  A    between atoms: C_10  and  C_20
DOCKED: REMARK    8  A    between atoms: C_12  and  C_13
DOCKED: REMARK    9  A    between atoms: C_12  and  C_19
DOCKED: REMARK   10  A    between atoms: C_14  and  C_15
DOCKED: REMARK                            x       y       z     vdW  Elec       q    Type
DOCKED: REMARK                         _______ _______ _______ _____ _____    ______ ____
DOCKED: USER                              x       y       z     vdW  Elec       q    Type
DOCKED: USER                           _______ _______ _______ _____ _____    ______ ____
DOCKED: ROOT
DOCKED: ATOM      1  C   UNL     1      38.011  15.641 122.865 -0.34 -0.00    +0.000 C 
DOCKED: ATOM      2  C   UNL     1      38.997  16.173 121.822 -0.23 -0.00    +0.000 C 
DOCKED: ENDROOT
DOCKED: BRANCH   1   3
DOCKED: ATOM      3  C   UNL     1      38.027  14.125 122.873 -0.48 -0.00    +0.000 C 
DOCKED: ATOM      4  C   UNL     1      37.095  13.346 123.459 -0.57 -0.00    +0.000 C 
DOCKED: ATOM      5  C   UNL     1      35.899  13.932 124.176 -0.46 -0.00    +0.000 C 
DOCKED: BRANCH   4   6
DOCKED: ATOM      6  C   UNL     1      37.249  11.872 123.342 -0.58 -0.00    +0.000 C 
DOCKED: ATOM      7  C   UNL     1      36.804  11.172 122.288 -0.62 -0.00    +0.000 C 
DOCKED: BRANCH   7   8
DOCKED: ATOM      8  C   UNL     1      36.955   9.708 122.159 -0.62 -0.00    +0.000 C 
DOCKED: ATOM      9  N   UNL     1      37.031   8.841 123.297 -0.65 -0.00    +0.000 N 
DOCKED: ATOM     10  O   UNL     1      37.064   7.499 123.126 -2.42 -0.00    +0.000 OA
DOCKED: ATOM     11  O   UNL     1      37.043   9.214 121.003 -2.73 -0.00    +0.000 OA
DOCKED: ATOM     12  H   UNL     1      37.059   9.223 124.205 -0.58 -0.00    +0.000 HD
DOCKED: ENDBRANCH   7   8
DOCKED: ENDBRANCH   4   6
DOCKED: ENDBRANCH   1   3
DOCKED: BRANCH   1  13
DOCKED: ATOM     13  C   UNL     1      36.618  16.162 122.569 -0.31 -0.00    +0.000 C 
DOCKED: ATOM     14  O   UNL     1      36.119  15.960 121.426 -0.23 -0.00    +0.000 OA
DOCKED: BRANCH  13  18
DOCKED: ATOM     15  C   UNL     1      34.371  18.408 125.501 -0.30 -0.00    +0.000 A 
DOCKED: ATOM     16  C   UNL     1      35.777  18.476 125.448 -0.20 -0.00    +0.000 A 
DOCKED: ATOM     17  C   UNL     1      36.496  17.746 124.498 -0.21 -0.00    +0.000 A 
DOCKED: ATOM     18  C   UNL     1      35.832  16.933 123.566 -0.30 -0.00    +0.000 A 
DOCKED: ATOM     19  C   UNL     1      34.430  16.850 123.622 -0.42 -0.00    +0.000 A 
DOCKED: ATOM     20  C   UNL     1      33.710  17.579 124.573 -0.26 -0.00    +0.000 A 
DOCKED: ATOM     21  CM  UNL     1      35.103  17.665 124.535 -0.39 -0.00    +0.000 AC
DOCKED: BRANCH  15  22
DOCKED: ATOM     22  C   UNL     1      33.721  20.631 126.535 -0.18 -0.00    +0.000 C 
DOCKED: ATOM     23  N   UNL     1      33.624  19.166 126.488 -0.24 -0.00    +0.000 N 
DOCKED: ATOM     24  C   UNL     1      32.758  18.482 127.456 -0.27 -0.00    +0.000 C 
DOCKED: ENDBRANCH  15  22
DOCKED: ENDBRANCH  13  18
DOCKED: ENDBRANCH   1  13
DOCKED: TORSDOF 6DOCKED: TER
DOCKED: ENDMDL
________________________________________________________________________________


	BEGINNING GENETIC ALGORITHM DOCKING 20 of 100
Run: 20 Seed: 73120288 1053964892 [ Run 20 of 100 GA/GALS ]
Beginning LAMARCKIAN GENETIC ALGORITHM (LGA), with a maximum of 2500000 energy evaluations.

Final-Value: -14.422


	FINAL GENETIC ALGORITHM DOCKED STATE
	_______________________________________________


Detailed state:  trans 39.135 14.816 121.632 quatxyzw 0.271110 0.297013 -0.432846 0.806800 center -0.963 -0.416 0.212 ntor 6 -169.3042 177.3285 -179.6768 -5.8731 107.2808 -46.4957
State:	 39.135  14.816 121.632   0.459  0.503 -0.733 72.431   -169.30  177.33 -179.68   -5.87  107.28  -46.50

DOCKED: MODEL       20
DOCKED: USER    Run = 20
DOCKED: USER    DPF = ligand_dock.biased.dpf
DOCKED: USER  
DOCKED: USER    Estimated Free Energy of Binding    =  -11.50 kcal/mol  [=(1)+(2)+(3)-(4)]
DOCKED: USER    Estimated Inhibition Constant, Ki   =    3.71 nM (nanomolar)  [Temperature = 298.15 K]
DOCKED: USER    
DOCKED: USER    (1) Final Intermolecular Energy     =  -13.29 kcal/mol
DOCKED: USER        vdW + Hbond + desolv Energy     =  -13.29 kcal/mol
DOCKED: USER        Electrostatic Energy            =   +0.00 kcal/mol
DOCKED: USER    (2) Final Total Internal Energy     =   -1.13 kcal/mol
DOCKED: USER    (3) Torsional Free Energy           =   +1.79 kcal/mol
DOCKED: USER    (4) Unbound System's Energy  [=(2)] =   -1.13 kcal/mol
DOCKED: USER    
DOCKED: USER    
DOCKED: USER    NEWDPF move ligand.dum.pdbqt
DOCKED: USER    NEWDPF about -0.963000 -0.416000 0.212000
DOCKED: USER    NEWDPF tran0 39.135114 14.815509 121.631803
DOCKED: USER    NEWDPF quaternion0 0.271110 0.297013 -0.432846 0.806800
DOCKED: USER    NEWDPF axisangle0 0.458867 0.502710 -0.732614 72.431026
DOCKED: USER    NEWDPF quat0 0.458867 0.502710 -0.732614 72.431026
DOCKED: USER    NEWDPF dihe0 -169.30 177.33 -179.68 -5.87 107.28 -46.50 
DOCKED: USER  keepresnum = 1 
DOCKED: USER  
DOCKED: REMARK  Name = 
DOCKED: REMARK  10 active torsions:
DOCKED: REMARK  status: ('A' for Active; 'I' for Inactive)
DOCKED: REMARK    1  A    between atoms: C_1  and  N_2
DOCKED: REMARK    2  A    between atoms: N_2  and  C_3
DOCKED: REMARK    3  A    between atoms: N_2  and  C_22
DOCKED: REMARK    4  A    between atoms: C_6  and  C_9
DOCKED: REMARK    5  A    between atoms: C_9  and  C_10
DOCKED: REMARK    6  A    between atoms: C_10  and  C_11
DOCKED: REMARK    7  A    between atoms: C_10  and  C_20
DOCKED: REMARK    8  A    between atoms: C_12  and  C_13
DOCKED: REMARK    9  A    between atoms: C_12  and  C_19
DOCKED: REMARK   10  A    between atoms: C_14  and  C_15
DOCKED: REMARK                            x       y       z     vdW  Elec       q    Type
DOCKED: REMARK                         _______ _______ _______ _____ _____    ______ ____
DOCKED: USER                              x       y       z     vdW  Elec       q    Type
DOCKED: USER                           _______ _______ _______ _____ _____    ______ ____
DOCKED: ROOT
DOCKED: ATOM      1  C   UNL     1      37.705  15.520 121.764 -0.28 -0.00    +0.000 C 
DOCKED: ATOM      2  C   UNL     1      36.308  16.118 121.952 -0.25 -0.00    +0.000 C 
DOCKED: ENDROOT
DOCKED: BRANCH   1   3
DOCKED: ATOM      3  C   UNL     1      37.623  14.007 121.734 -0.43 -0.00    +0.000 C 
DOCKED: ATOM      4  C   UNL     1      37.366  13.269 120.633 -0.46 -0.00    +0.000 C 
DOCKED: ATOM      5  C   UNL     1      37.143  13.906 119.280 -0.38 -0.00    +0.000 C 
DOCKED: BRANCH   4   6
DOCKED: ATOM      6  C   UNL     1      37.355  11.790 120.777 -0.51 -0.00    +0.000 C 
DOCKED: ATOM      7  C   UNL     1      37.063  11.170 121.930 -0.54 -0.00    +0.000 C 
DOCKED: BRANCH   7   8
DOCKED: ATOM      8  C   UNL     1      37.045   9.700 122.083 -0.60 -0.00    +0.000 C 
DOCKED: ATOM      9  N   UNL     1      37.155   9.060 123.360 -0.57 -0.00    +0.000 N 
DOCKED: ATOM     10  O   UNL     1      37.029   7.716 123.458 -2.68 -0.00    +0.000 OA
DOCKED: ATOM     11  O   UNL     1      36.955   8.991 121.046 -2.68 -0.00    +0.000 OA
DOCKED: ATOM     12  H   UNL     1      37.322   9.599 124.168 -0.60 -0.00    +0.000 HD
DOCKED: ENDBRANCH   7   8
DOCKED: ENDBRANCH   4   6
DOCKED: ENDBRANCH   1   3
DOCKED: BRANCH   1  13
DOCKED: ATOM     13  C   UNL     1      38.618  15.987 122.880 -0.30 -0.00    +0.000 C 
DOCKED: ATOM     14  O   UNL     1      38.118  16.259 124.008 -0.24 -0.00    +0.000 OA
DOCKED: BRANCH  13  18
DOCKED: ATOM     15  C   UNL     1      42.876  16.465 122.305 -0.36 -0.00    +0.000 A 
DOCKED: ATOM     16  C   UNL     1      42.202  15.315 121.850 -0.34 -0.00    +0.000 A 
DOCKED: ATOM     17  C   UNL     1      40.826  15.168 122.042 -0.39 -0.00    +0.000 A 
DOCKED: ATOM     18  C   UNL     1      40.080  16.169 122.684 -0.29 -0.00    +0.000 A 
DOCKED: ATOM     19  C   UNL     1      40.748  17.314 123.151 -0.25 -0.00    +0.000 A 
DOCKED: ATOM     20  C   UNL     1      42.125  17.461 122.961 -0.29 -0.00    +0.000 A 
DOCKED: ATOM     21  CM  UNL     1      41.476  16.315 122.499 +0.00 -0.00    +0.000 AC
DOCKED: BRANCH  15  22
DOCKED: ATOM     22  C   UNL     1      44.965  16.031 120.932 -0.26 +0.00    +0.000 C 
DOCKED: ATOM     23  N   UNL     1      44.306  16.619 122.106 -0.31 -0.00    +0.000 N 
DOCKED: ATOM     24  C   UNL     1      45.118  17.366 123.075 -0.29 -0.00    +0.000 C 
DOCKED: ENDBRANCH  15  22
DOCKED: ENDBRANCH  13  18
DOCKED: ENDBRANCH   1  13
DOCKED: TORSDOF 6DOCKED: TER
DOCKED: ENDMDL
________________________________________________________________________________


	BEGINNING GENETIC ALGORITHM DOCKING 21 of 100
Run: 21 Seed: 1997246384 883994879 [ Run 21 of 100 GA/GALS ]
Beginning LAMARCKIAN GENETIC ALGORITHM (LGA), with a maximum of 2500000 energy evaluations.

Final-Value: -13.660


	FINAL GENETIC ALGORITHM DOCKED STATE
	_______________________________________________


Detailed state:  trans 37.111 15.155 121.660 quatxyzw 0.501403 0.749795 0.297528 -0.312858 center -0.963 -0.416 0.212 ntor 6 -171.4126 157.3866 -59.6084 64.0260 -100.8620 -162.8617
State:	 37.111  15.155 121.660   0.528  0.789  0.313 -143.537   -171.41  157.39  -59.61   64.03 -100.86 -162.86

DOCKED: MODEL       21
DOCKED: USER    Run = 21
DOCKED: USER    DPF = ligand_dock.biased.dpf
DOCKED: USER  
DOCKED: USER    Estimated Free Energy of Binding    =  -10.47 kcal/mol  [=(1)+(2)+(3)-(4)]
DOCKED: USER    Estimated Inhibition Constant, Ki   =   21.04 nM (nanomolar)  [Temperature = 298.15 K]
DOCKED: USER    
DOCKED: USER    (1) Final Intermolecular Energy     =  -12.26 kcal/mol
DOCKED: USER        vdW + Hbond + desolv Energy     =  -12.26 kcal/mol
DOCKED: USER        Electrostatic Energy            =   +0.00 kcal/mol
DOCKED: USER    (2) Final Total Internal Energy     =   -1.40 kcal/mol
DOCKED: USER    (3) Torsional Free Energy           =   +1.79 kcal/mol
DOCKED: USER    (4) Unbound System's Energy  [=(2)] =   -1.40 kcal/mol
DOCKED: USER    
DOCKED: USER    
DOCKED: USER    NEWDPF move ligand.dum.pdbqt
DOCKED: USER    NEWDPF about -0.963000 -0.416000 0.212000
DOCKED: USER    NEWDPF tran0 37.110698 15.155167 121.660334
DOCKED: USER    NEWDPF quaternion0 0.501403 0.749795 0.297528 -0.312858
DOCKED: USER    NEWDPF axisangle0 0.527904 0.789424 0.313254 -143.536904
DOCKED: USER    NEWDPF quat0 0.527904 0.789424 0.313254 -143.536904
DOCKED: USER    NEWDPF dihe0 -171.41 157.39 -59.61 64.03 -100.86 -162.86 
DOCKED: USER  keepresnum = 1 
DOCKED: USER  
DOCKED: REMARK  Name = 
DOCKED: REMARK  10 active torsions:
DOCKED: REMARK  status: ('A' for Active; 'I' for Inactive)
DOCKED: REMARK    1  A    between atoms: C_1  and  N_2
DOCKED: REMARK    2  A    between atoms: N_2  and  C_3
DOCKED: REMARK    3  A    between atoms: N_2  and  C_22
DOCKED: REMARK    4  A    between atoms: C_6  and  C_9
DOCKED: REMARK    5  A    between atoms: C_9  and  C_10
DOCKED: REMARK    6  A    between atoms: C_10  and  C_11
DOCKED: REMARK    7  A    between atoms: C_10  and  C_20
DOCKED: REMARK    8  A    between atoms: C_12  and  C_13
DOCKED: REMARK    9  A    between atoms: C_12  and  C_19
DOCKED: REMARK   10  A    between atoms: C_14  and  C_15
DOCKED: REMARK                            x       y       z     vdW  Elec       q    Type
DOCKED: REMARK                         _______ _______ _______ _____ _____    ______ ____
DOCKED: USER                              x       y       z     vdW  Elec       q    Type
DOCKED: USER                           _______ _______ _______ _____ _____    ______ ____
DOCKED: ROOT
DOCKED: ATOM      1  C   UNL     1      38.636  15.640 121.655 -0.27 -0.00    +0.000 C 
DOCKED: ATOM      2  C   UNL     1      40.114  16.030 121.582 -0.26 -0.00    +0.000 C 
DOCKED: ENDROOT
DOCKED: BRANCH   1   3
DOCKED: ATOM      3  C   UNL     1      38.488  14.136 121.531 -0.41 -0.00    +0.000 C 
DOCKED: ATOM      4  C   UNL     1      37.444  13.422 122.002 -0.49 -0.00    +0.000 C 
DOCKED: ATOM      5  C   UNL     1      36.279  14.079 122.708 -0.38 -0.00    +0.000 C 
DOCKED: BRANCH   4   6
DOCKED: ATOM      6  C   UNL     1      37.445  11.955 121.764 -0.44 -0.00    +0.000 C 
DOCKED: ATOM      7  C   UNL     1      36.918  11.074 122.628 -0.62 -0.00    +0.000 C 
DOCKED: BRANCH   7   8
DOCKED: ATOM      8  C   UNL     1      36.910   9.614 122.401 -0.64 -0.00    +0.000 C 
DOCKED: ATOM      9  N   UNL     1      37.164   8.672 123.450 -0.63 -0.00    +0.000 N 
DOCKED: ATOM     10  O   UNL     1      37.043   7.345 123.214 -2.35 -0.00    +0.000 OA
DOCKED: ATOM     11  O   UNL     1      36.695   9.191 121.234 -2.61 -0.00    +0.000 OA
DOCKED: ATOM     12  H   UNL     1      37.427   8.991 124.344 -0.61 -0.00    +0.000 HD
DOCKED: ENDBRANCH   7   8
DOCKED: ENDBRANCH   4   6
DOCKED: ENDBRANCH   1   3
DOCKED: BRANCH   1  13
DOCKED: ATOM     13  C   UNL     1      37.862  16.348 120.560 -0.16 -0.00    +0.000 C 
DOCKED: ATOM     14  O   UNL     1      37.403  17.503 120.783 -0.11 -0.00    +0.000 OA
DOCKED: BRANCH  13  18
DOCKED: ATOM     15  C   UNL     1      37.047  14.480 116.747 -0.28 -0.00    +0.000 A 
DOCKED: ATOM     16  C   UNL     1      36.041  14.619 117.723 -0.29 -0.00    +0.000 A 
DOCKED: ATOM     17  C   UNL     1      36.313  15.223 118.953 -0.15 -0.00    +0.000 A 
DOCKED: ATOM     18  C   UNL     1      37.596  15.714 119.242 -0.17 -0.00    +0.000 A 
DOCKED: ATOM     19  C   UNL     1      38.608  15.567 118.278 -0.15 -0.00    +0.000 A 
DOCKED: ATOM     20  C   UNL     1      38.337  14.962 117.048 -0.20 -0.00    +0.000 A 
DOCKED: ATOM     21  CM  UNL     1      37.323  15.094 117.999 +0.00 -0.00    +0.000 AC
DOCKED: BRANCH  15  22
DOCKED: ATOM     22  C   UNL     1      35.419  13.920 114.884 -0.27 -0.00    +0.000 C 
DOCKED: ATOM     23  N   UNL     1      36.765  13.853 115.468 -0.32 -0.00    +0.000 N 
DOCKED: ATOM     24  C   UNL     1      37.820  13.141 114.737 -0.45 -0.00    +0.000 C 
DOCKED: ENDBRANCH  15  22
DOCKED: ENDBRANCH  13  18
DOCKED: ENDBRANCH   1  13
DOCKED: TORSDOF 6DOCKED: TER
DOCKED: ENDMDL
________________________________________________________________________________


	BEGINNING GENETIC ALGORITHM DOCKING 22 of 100
Run: 22 Seed: 1766182 1380725469 [ Run 22 of 100 GA/GALS ]
Beginning LAMARCKIAN GENETIC ALGORITHM (LGA), with a maximum of 2500000 energy evaluations.

Final-Value: -13.742


	FINAL GENETIC ALGORITHM DOCKED STATE
	_______________________________________________


Detailed state:  trans 36.504 14.429 118.559 quatxyzw 0.341609 0.738531 0.261974 -0.518889 center -0.963 -0.416 0.212 ntor 6 -18.2963 170.2609 -22.7484 -2.6484 177.6081 -79.8593
State:	 36.504  14.429 118.559   0.400  0.864  0.306 -117.485    -18.30  170.26  -22.75   -2.65  177.61  -79.86

DOCKED: MODEL       22
DOCKED: USER    Run = 22
DOCKED: USER    DPF = ligand_dock.biased.dpf
DOCKED: USER  
DOCKED: USER    Estimated Free Energy of Binding    =  -10.82 kcal/mol  [=(1)+(2)+(3)-(4)]
DOCKED: USER    Estimated Inhibition Constant, Ki   =   11.78 nM (nanomolar)  [Temperature = 298.15 K]
DOCKED: USER    
DOCKED: USER    (1) Final Intermolecular Energy     =  -12.61 kcal/mol
DOCKED: USER        vdW + Hbond + desolv Energy     =  -12.61 kcal/mol
DOCKED: USER        Electrostatic Energy            =   +0.00 kcal/mol
DOCKED: USER    (2) Final Total Internal Energy     =   -1.14 kcal/mol
DOCKED: USER    (3) Torsional Free Energy           =   +1.79 kcal/mol
DOCKED: USER    (4) Unbound System's Energy  [=(2)] =   -1.14 kcal/mol
DOCKED: USER    
DOCKED: USER    
DOCKED: USER    NEWDPF move ligand.dum.pdbqt
DOCKED: USER    NEWDPF about -0.963000 -0.416000 0.212000
DOCKED: USER    NEWDPF tran0 36.503848 14.428672 118.559199
DOCKED: USER    NEWDPF quaternion0 0.341609 0.738531 0.261974 -0.518889
DOCKED: USER    NEWDPF axisangle0 0.399617 0.863938 0.306459 -117.484545
DOCKED: USER    NEWDPF quat0 0.399617 0.863938 0.306459 -117.484545
DOCKED: USER    NEWDPF dihe0 -18.30 170.26 -22.75 -2.65 177.61 -79.86 
DOCKED: USER  keepresnum = 1 
DOCKED: USER  
DOCKED: REMARK  Name = 
DOCKED: REMARK  10 active torsions:
DOCKED: REMARK  status: ('A' for Active; 'I' for Inactive)
DOCKED: REMARK    1  A    between atoms: C_1  and  N_2
DOCKED: REMARK    2  A    between atoms: N_2  and  C_3
DOCKED: REMARK    3  A    between atoms: N_2  and  C_22
DOCKED: REMARK    4  A    between atoms: C_6  and  C_9
DOCKED: REMARK    5  A    between atoms: C_9  and  C_10
DOCKED: REMARK    6  A    between atoms: C_10  and  C_11
DOCKED: REMARK    7  A    between atoms: C_10  and  C_20
DOCKED: REMARK    8  A    between atoms: C_12  and  C_13
DOCKED: REMARK    9  A    between atoms: C_12  and  C_19
DOCKED: REMARK   10  A    between atoms: C_14  and  C_15
DOCKED: REMARK                            x       y       z     vdW  Elec       q    Type
DOCKED: REMARK                         _______ _______ _______ _____ _____    ______ ____
DOCKED: USER                              x       y       z     vdW  Elec       q    Type
DOCKED: USER                           _______ _______ _______ _____ _____    ______ ____
DOCKED: ROOT
DOCKED: ATOM      1  C   UNL     1      37.911  15.104 118.912 -0.23 -0.00    +0.000 C 
DOCKED: ATOM      2  C   UNL     1      39.302  15.662 119.224 -0.16 -0.00    +0.000 C 
DOCKED: ENDROOT
DOCKED: BRANCH   1   3
DOCKED: ATOM      3  C   UNL     1      37.842  13.637 119.290 -0.33 -0.00    +0.000 C 
DOCKED: ATOM      4  C   UNL     1      37.486  13.168 120.504 -0.47 -0.00    +0.000 C 
DOCKED: ATOM      5  C   UNL     1      37.096  14.094 121.634 -0.38 -0.00    +0.000 C 
DOCKED: BRANCH   4   6
DOCKED: ATOM      6  C   UNL     1      37.441  11.695 120.693 -0.50 -0.00    +0.000 C 
DOCKED: ATOM      7  C   UNL     1      37.029  11.116 121.831 -0.54 -0.00    +0.000 C 
DOCKED: BRANCH   7   8
DOCKED: ATOM      8  C   UNL     1      36.977   9.653 122.028 -0.62 -0.00    +0.000 C 
DOCKED: ATOM      9  N   UNL     1      37.101   9.047 123.320 -0.60 -0.00    +0.000 N 
DOCKED: ATOM     10  O   UNL     1      36.943   7.710 123.461 -2.62 -0.00    +0.000 OA
DOCKED: ATOM     11  O   UNL     1      36.843   8.916 121.014 -2.65 -0.00    +0.000 OA
DOCKED: ATOM     12  H   UNL     1      37.302   9.604 124.107 -0.57 -0.00    +0.000 HD
DOCKED: ENDBRANCH   7   8
DOCKED: ENDBRANCH   4   6
DOCKED: ENDBRANCH   1   3
DOCKED: BRANCH   1  13
DOCKED: ATOM     13  C   UNL     1      37.598  15.295 117.441 -0.20 -0.00    +0.000 C 
DOCKED: ATOM     14  O   UNL     1      38.419  15.924 116.716 -0.14 -0.00    +0.000 OA
DOCKED: BRANCH  13  18
DOCKED: ATOM     15  C   UNL     1      33.921  13.829 115.703 -0.27 -0.00    +0.000 A 
DOCKED: ATOM     16  C   UNL     1      34.018  14.107 117.081 -0.27 -0.00    +0.000 A 
DOCKED: ATOM     17  C   UNL     1      35.211  14.580 117.634 -0.20 -0.00    +0.000 A 
DOCKED: ATOM     18  C   UNL     1      36.339  14.797 116.828 -0.25 -0.00    +0.000 A 
DOCKED: ATOM     19  C   UNL     1      36.253  14.510 115.455 -0.24 -0.00    +0.000 A 
DOCKED: ATOM     20  C   UNL     1      35.061  14.036 114.900 -0.24 -0.00    +0.000 A 
DOCKED: ATOM     21  CM  UNL     1      35.134  14.310 116.267 +0.00 -0.00    +0.000 AC
DOCKED: BRANCH  15  22
DOCKED: ATOM     22  C   UNL     1      32.603  13.004 113.698 -0.36 -0.00    +0.000 C 
DOCKED: ATOM     23  N   UNL     1      32.682  13.338 115.127 -0.37 -0.00    +0.000 N 
DOCKED: ATOM     24  C   UNL     1      31.486  13.168 115.961 -0.40 -0.00    +0.000 C 
DOCKED: ENDBRANCH  15  22
DOCKED: ENDBRANCH  13  18
DOCKED: ENDBRANCH   1  13
DOCKED: TORSDOF 6DOCKED: TER
DOCKED: ENDMDL
________________________________________________________________________________


	BEGINNING GENETIC ALGORITHM DOCKING 23 of 100
Run: 23 Seed: 105735756 989454620 [ Run 23 of 100 GA/GALS ]
Beginning LAMARCKIAN GENETIC ALGORITHM (LGA), with a maximum of 2500000 energy evaluations.

Final-Value: -14.410


	FINAL GENETIC ALGORITHM DOCKED STATE
	_______________________________________________


Detailed state:  trans 36.524 15.006 121.653 quatxyzw -0.384918 -0.747208 -0.365090 0.400284 center -0.963 -0.416 0.212 ntor 6 52.5608 112.4401 -1.8753 43.0097 -126.6282 -160.8396
State:	 36.524  15.006 121.653  -0.420 -0.815 -0.398 132.808     52.56  112.44   -1.88   43.01 -126.63 -160.84

DOCKED: MODEL       23
DOCKED: USER    Run = 23
DOCKED: USER    DPF = ligand_dock.biased.dpf
DOCKED: USER  
DOCKED: USER    Estimated Free Energy of Binding    =  -11.29 kcal/mol  [=(1)+(2)+(3)-(4)]
DOCKED: USER    Estimated Inhibition Constant, Ki   =    5.28 nM (nanomolar)  [Temperature = 298.15 K]
DOCKED: USER    
DOCKED: USER    (1) Final Intermolecular Energy     =  -13.08 kcal/mol
DOCKED: USER        vdW + Hbond + desolv Energy     =  -13.08 kcal/mol
DOCKED: USER        Electrostatic Energy            =   +0.00 kcal/mol
DOCKED: USER    (2) Final Total Internal Energy     =   -1.33 kcal/mol
DOCKED: USER    (3) Torsional Free Energy           =   +1.79 kcal/mol
DOCKED: USER    (4) Unbound System's Energy  [=(2)] =   -1.33 kcal/mol
DOCKED: USER    
DOCKED: USER    
DOCKED: USER    NEWDPF move ligand.dum.pdbqt
DOCKED: USER    NEWDPF about -0.963000 -0.416000 0.212000
DOCKED: USER    NEWDPF tran0 36.524019 15.005786 121.652975
DOCKED: USER    NEWDPF quaternion0 -0.384918 -0.747208 -0.365090 0.400284
DOCKED: USER    NEWDPF axisangle0 -0.420037 -0.815381 -0.398400 132.808156
DOCKED: USER    NEWDPF quat0 -0.420037 -0.815381 -0.398400 132.808156
DOCKED: USER    NEWDPF dihe0 52.56 112.44 -1.88 43.01 -126.63 -160.84 
DOCKED: USER  keepresnum = 1 
DOCKED: USER  
DOCKED: REMARK  Name = 
DOCKED: REMARK  10 active torsions:
DOCKED: REMARK  status: ('A' for Active; 'I' for Inactive)
DOCKED: REMARK    1  A    between atoms: C_1  and  N_2
DOCKED: REMARK    2  A    between atoms: N_2  and  C_3
DOCKED: REMARK    3  A    between atoms: N_2  and  C_22
DOCKED: REMARK    4  A    between atoms: C_6  and  C_9
DOCKED: REMARK    5  A    between atoms: C_9  and  C_10
DOCKED: REMARK    6  A    between atoms: C_10  and  C_11
DOCKED: REMARK    7  A    between atoms: C_10  and  C_20
DOCKED: REMARK    8  A    between atoms: C_12  and  C_13
DOCKED: REMARK    9  A    between atoms: C_12  and  C_19
DOCKED: REMARK   10  A    between atoms: C_14  and  C_15
DOCKED: REMARK                            x       y       z     vdW  Elec       q    Type
DOCKED: REMARK                         _______ _______ _______ _____ _____    ______ ____
DOCKED: USER                              x       y       z     vdW  Elec       q    Type
DOCKED: USER                           _______ _______ _______ _____ _____    ______ ____
DOCKED: ROOT
DOCKED: ATOM      1  C   UNL     1      37.901  15.739 122.009 -0.28 -0.00    +0.000 C 
DOCKED: ATOM      2  C   UNL     1      39.266  16.370 122.295 -0.25 -0.00    +0.000 C 
DOCKED: ENDROOT
DOCKED: BRANCH   1   3
DOCKED: ATOM      3  C   UNL     1      38.023  14.229 121.970 -0.44 -0.00    +0.000 C 
DOCKED: ATOM      4  C   UNL     1      37.176  13.370 122.574 -0.54 -0.00    +0.000 C 
DOCKED: ATOM      5  C   UNL     1      35.978  13.851 123.362 -0.53 -0.00    +0.000 C 
DOCKED: BRANCH   4   6
DOCKED: ATOM      6  C   UNL     1      37.427  11.915 122.406 -0.44 -0.00    +0.000 C 
DOCKED: ATOM      7  C   UNL     1      36.463  10.989 122.518 -0.67 -0.00    +0.000 C 
DOCKED: BRANCH   7   8
DOCKED: ATOM      8  C   UNL     1      36.700   9.540 122.350 -0.71 -0.00    +0.000 C 
DOCKED: ATOM      9  N   UNL     1      36.957   8.670 123.458 -0.64 -0.00    +0.000 N 
DOCKED: ATOM     10  O   UNL     1      37.065   7.335 123.262 -2.37 -0.00    +0.000 OA
DOCKED: ATOM     11  O   UNL     1      36.698   9.065 121.183 -2.62 -0.00    +0.000 OA
DOCKED: ATOM     12  H   UNL     1      37.056   9.044 124.364 -0.51 -0.00    +0.000 HD
DOCKED: ENDBRANCH   7   8
DOCKED: ENDBRANCH   4   6
DOCKED: ENDBRANCH   1   3
DOCKED: BRANCH   1  13
DOCKED: ATOM     13  C   UNL     1      37.355  16.268 120.697 -0.19 -0.00    +0.000 C 
DOCKED: ATOM     14  O   UNL     1      36.715  17.357 120.695 -0.16 -0.00    +0.000 OA
DOCKED: BRANCH  13  18
DOCKED: ATOM     15  C   UNL     1      37.804  14.084 116.994 -0.31 -0.00    +0.000 A 
DOCKED: ATOM     16  C   UNL     1      36.814  13.735 117.933 -0.37 -0.00    +0.000 A 
DOCKED: ATOM     17  C   UNL     1      36.676  14.445 119.127 -0.24 -0.00    +0.000 A 
DOCKED: ATOM     18  C   UNL     1      37.517  15.532 119.417 -0.18 -0.00    +0.000 A 
DOCKED: ATOM     19  C   UNL     1      38.516  15.877 118.490 -0.13 -0.00    +0.000 A 
DOCKED: ATOM     20  C   UNL     1      38.655  15.166 117.295 -0.17 -0.00    +0.000 A 
DOCKED: ATOM     21  CM  UNL     1      37.664  14.806 118.210 +0.00 -0.00    +0.000 AC
DOCKED: BRANCH  15  22
DOCKED: ATOM     22  C   UNL     1      39.078  12.429 115.553 -0.55 -0.00    +0.000 C 
DOCKED: ATOM     23  N   UNL     1      37.948  13.346 115.751 -0.44 -0.00    +0.000 N 
DOCKED: ATOM     24  C   UNL     1      36.966  13.505 114.672 -0.37 -0.00    +0.000 C 
DOCKED: ENDBRANCH  15  22
DOCKED: ENDBRANCH  13  18
DOCKED: ENDBRANCH   1  13
DOCKED: TORSDOF 6DOCKED: TER
DOCKED: ENDMDL
________________________________________________________________________________


	BEGINNING GENETIC ALGORITHM DOCKING 24 of 100
Run: 24 Seed: 2061492131 1805362647 [ Run 24 of 100 GA/GALS ]
Beginning LAMARCKIAN GENETIC ALGORITHM (LGA), with a maximum of 2500000 energy evaluations.

Final-Value: -14.616


	FINAL GENETIC ALGORITHM DOCKED STATE
	_______________________________________________


Detailed state:  trans 38.660 15.011 121.637 quatxyzw -0.179383 -0.200096 0.501062 -0.822630 center -0.963 -0.416 0.212 ntor 6 -127.9584 149.2080 -168.5401 22.3865 -110.2999 -64.8771
State:	 38.660  15.011 121.637  -0.315 -0.352  0.881 -69.302   -127.96  149.21 -168.54   22.39 -110.30  -64.88

DOCKED: MODEL       24
DOCKED: USER    Run = 24
DOCKED: USER    DPF = ligand_dock.biased.dpf
DOCKED: USER  
DOCKED: USER    Estimated Free Energy of Binding    =  -11.57 kcal/mol  [=(1)+(2)+(3)-(4)]
DOCKED: USER    Estimated Inhibition Constant, Ki   =    3.31 nM (nanomolar)  [Temperature = 298.15 K]
DOCKED: USER    
DOCKED: USER    (1) Final Intermolecular Energy     =  -13.36 kcal/mol
DOCKED: USER        vdW + Hbond + desolv Energy     =  -13.36 kcal/mol
DOCKED: USER        Electrostatic Energy            =   +0.00 kcal/mol
DOCKED: USER    (2) Final Total Internal Energy     =   -1.26 kcal/mol
DOCKED: USER    (3) Torsional Free Energy           =   +1.79 kcal/mol
DOCKED: USER    (4) Unbound System's Energy  [=(2)] =   -1.26 kcal/mol
DOCKED: USER    
DOCKED: USER    
DOCKED: USER    NEWDPF move ligand.dum.pdbqt
DOCKED: USER    NEWDPF about -0.963000 -0.416000 0.212000
DOCKED: USER    NEWDPF tran0 38.659686 15.010714 121.636836
DOCKED: USER    NEWDPF quaternion0 -0.179383 -0.200096 0.501062 -0.822630
DOCKED: USER    NEWDPF axisangle0 -0.315495 -0.351924 0.881256 -69.302062
DOCKED: USER    NEWDPF quat0 -0.315495 -0.351924 0.881256 -69.302062
DOCKED: USER    NEWDPF dihe0 -127.96 149.21 -168.54 22.39 -110.30 -64.88 
DOCKED: USER  keepresnum = 1 
DOCKED: USER  
DOCKED: REMARK  Name = 
DOCKED: REMARK  10 active torsions:
DOCKED: REMARK  status: ('A' for Active; 'I' for Inactive)
DOCKED: REMARK    1  A    between atoms: C_1  and  N_2
DOCKED: REMARK    2  A    between atoms: N_2  and  C_3
DOCKED: REMARK    3  A    between atoms: N_2  and  C_22
DOCKED: REMARK    4  A    between atoms: C_6  and  C_9
DOCKED: REMARK    5  A    between atoms: C_9  and  C_10
DOCKED: REMARK    6  A    between atoms: C_10  and  C_11
DOCKED: REMARK    7  A    between atoms: C_10  and  C_20
DOCKED: REMARK    8  A    between atoms: C_12  and  C_13
DOCKED: REMARK    9  A    between atoms: C_12  and  C_19
DOCKED: REMARK   10  A    between atoms: C_14  and  C_15
DOCKED: REMARK                            x       y       z     vdW  Elec       q    Type
DOCKED: REMARK                         _______ _______ _______ _____ _____    ______ ____
DOCKED: USER                              x       y       z     vdW  Elec       q    Type
DOCKED: USER                           _______ _______ _______ _____ _____    ______ ____
DOCKED: ROOT
DOCKED: ATOM      1  C   UNL     1      37.265  15.564 122.193 -0.31 -0.00    +0.000 C 
DOCKED: ATOM      2  C   UNL     1      35.928  16.013 122.788 -0.35 -0.00    +0.000 C 
DOCKED: ENDROOT
DOCKED: BRANCH   1   3
DOCKED: ATOM      3  C   UNL     1      37.318  14.051 122.117 -0.44 -0.00    +0.000 C 
DOCKED: ATOM      4  C   UNL     1      37.358  13.335 120.973 -0.45 -0.00    +0.000 C 
DOCKED: ATOM      5  C   UNL     1      37.367  14.001 119.615 -0.37 -0.00    +0.000 C 
DOCKED: BRANCH   4   6
DOCKED: ATOM      6  C   UNL     1      37.441  11.856 121.083 -0.50 -0.00    +0.000 C 
DOCKED: ATOM      7  C   UNL     1      36.787  11.154 122.021 -0.60 -0.00    +0.000 C 
DOCKED: BRANCH   7   8
DOCKED: ATOM      8  C   UNL     1      36.860   9.683 122.138 -0.64 -0.00    +0.000 C 
DOCKED: ATOM      9  N   UNL     1      37.112   9.023 123.384 -0.59 -0.00    +0.000 N 
DOCKED: ATOM     10  O   UNL     1      37.066   7.673 123.458 -2.67 -0.00    +0.000 OA
DOCKED: ATOM     11  O   UNL     1      36.718   8.992 121.094 -2.62 -0.00    +0.000 OA
DOCKED: ATOM     12  H   UNL     1      37.319   9.553 124.188 -0.61 -0.00    +0.000 HD
DOCKED: ENDBRANCH   7   8
DOCKED: ENDBRANCH   4   6
DOCKED: ENDBRANCH   1   3
DOCKED: BRANCH   1  13
DOCKED: ATOM     13  C   UNL     1      38.407  16.101 123.032 -0.30 -0.00    +0.000 C 
DOCKED: ATOM     14  O   UNL     1      38.151  16.627 124.151 -0.26 -0.00    +0.000 OA
DOCKED: BRANCH  13  18
DOCKED: ATOM     15  C   UNL     1      42.502  16.022 121.646 -0.31 -0.00    +0.000 A 
DOCKED: ATOM     16  C   UNL     1      41.697  17.167 121.485 -0.16 -0.00    +0.000 A 
DOCKED: ATOM     17  C   UNL     1      40.375  17.184 121.934 -0.15 -0.00    +0.000 A 
DOCKED: ATOM     18  C   UNL     1      39.819  16.061 122.567 -0.28 -0.00    +0.000 A 
DOCKED: ATOM     19  C   UNL     1      40.611  14.911 122.720 -0.41 -0.00    +0.000 A 
DOCKED: ATOM     20  C   UNL     1      41.934  14.893 122.269 -0.42 -0.00    +0.000 A 
DOCKED: ATOM     21  CM  UNL     1      41.156  16.040 122.103 +0.00 -0.00    +0.000 AC
DOCKED: BRANCH  15  22
DOCKED: ATOM     22  C   UNL     1      44.917  16.761 121.888 -0.29 -0.00    +0.000 C 
DOCKED: ATOM     23  N   UNL     1      43.877  16.004 121.179 -0.29 -0.00    +0.000 N 
DOCKED: ATOM     24  C   UNL     1      44.251  15.229 119.990 -0.33 -0.00    +0.000 C 
DOCKED: ENDBRANCH  15  22
DOCKED: ENDBRANCH  13  18
DOCKED: ENDBRANCH   1  13
DOCKED: TORSDOF 6DOCKED: TER
DOCKED: ENDMDL
________________________________________________________________________________


	BEGINNING GENETIC ALGORITHM DOCKING 25 of 100
Run: 25 Seed: 258599247 233125483 [ Run 25 of 100 GA/GALS ]
Beginning LAMARCKIAN GENETIC ALGORITHM (LGA), with a maximum of 2500000 energy evaluations.

Final-Value: -14.440


	FINAL GENETIC ALGORITHM DOCKED STATE
	_______________________________________________


Detailed state:  trans 36.616 14.872 121.029 quatxyzw 0.193820 0.528676 0.434081 -0.703214 center -0.963 -0.416 0.212 ntor 6 -42.0492 -2.0980 108.9413 -5.0867 43.9187 -77.2020
State:	 36.616  14.872 121.029   0.273  0.744  0.611 -90.629    -42.05   -2.10  108.94   -5.09   43.92  -77.20

DOCKED: MODEL       25
DOCKED: USER    Run = 25
DOCKED: USER    DPF = ligand_dock.biased.dpf
DOCKED: USER  
DOCKED: USER    Estimated Free Energy of Binding    =  -11.36 kcal/mol  [=(1)+(2)+(3)-(4)]
DOCKED: USER    Estimated Inhibition Constant, Ki   =    4.71 nM (nanomolar)  [Temperature = 298.15 K]
DOCKED: USER    
DOCKED: USER    (1) Final Intermolecular Energy     =  -13.15 kcal/mol
DOCKED: USER        vdW + Hbond + desolv Energy     =  -13.15 kcal/mol
DOCKED: USER        Electrostatic Energy            =   +0.00 kcal/mol
DOCKED: USER    (2) Final Total Internal Energy     =   -1.29 kcal/mol
DOCKED: USER    (3) Torsional Free Energy           =   +1.79 kcal/mol
DOCKED: USER    (4) Unbound System's Energy  [=(2)] =   -1.29 kcal/mol
DOCKED: USER    
DOCKED: USER    
DOCKED: USER    NEWDPF move ligand.dum.pdbqt
DOCKED: USER    NEWDPF about -0.963000 -0.416000 0.212000
DOCKED: USER    NEWDPF tran0 36.616203 14.872192 121.028503
DOCKED: USER    NEWDPF quaternion0 0.193820 0.528676 0.434081 -0.703214
DOCKED: USER    NEWDPF axisangle0 0.272610 0.743589 0.610541 -90.629189
DOCKED: USER    NEWDPF quat0 0.272610 0.743589 0.610541 -90.629189
DOCKED: USER    NEWDPF dihe0 -42.05 -2.10 108.94 -5.09 43.92 -77.20 
DOCKED: USER  keepresnum = 1 
DOCKED: USER  
DOCKED: REMARK  Name = 
DOCKED: REMARK  10 active torsions:
DOCKED: REMARK  status: ('A' for Active; 'I' for Inactive)
DOCKED: REMARK    1  A    between atoms: C_1  and  N_2
DOCKED: REMARK    2  A    between atoms: N_2  and  C_3
DOCKED: REMARK    3  A    between atoms: N_2  and  C_22
DOCKED: REMARK    4  A    between atoms: C_6  and  C_9
DOCKED: REMARK    5  A    between atoms: C_9  and  C_10
DOCKED: REMARK    6  A    between atoms: C_10  and  C_11
DOCKED: REMARK    7  A    between atoms: C_10  and  C_20
DOCKED: REMARK    8  A    between atoms: C_12  and  C_13
DOCKED: REMARK    9  A    between atoms: C_12  and  C_19
DOCKED: REMARK   10  A    between atoms: C_14  and  C_15
DOCKED: REMARK                            x       y       z     vdW  Elec       q    Type
DOCKED: REMARK                         _______ _______ _______ _____ _____    ______ ____
DOCKED: USER                              x       y       z     vdW  Elec       q    Type
DOCKED: USER                           _______ _______ _______ _____ _____    ______ ____
DOCKED: ROOT
DOCKED: ATOM      1  C   UNL     1      37.334  15.655 122.226 -0.31 -0.00    +0.000 C 
DOCKED: ATOM      2  C   UNL     1      38.085  16.327 123.378 -0.28 -0.00    +0.000 C 
DOCKED: ENDROOT
DOCKED: BRANCH   1   3
DOCKED: ATOM      3  C   UNL     1      37.300  14.154 122.431 -0.46 -0.00    +0.000 C 
DOCKED: ATOM      4  C   UNL     1      36.370  13.493 123.153 -0.57 -0.00    +0.000 C 
DOCKED: ATOM      5  C   UNL     1      35.228  14.214 123.834 -0.49 -0.00    +0.000 C 
DOCKED: BRANCH   4   6
DOCKED: ATOM      6  C   UNL     1      36.470  12.013 123.223 -0.68 -0.00    +0.000 C 
DOCKED: ATOM      7  C   UNL     1      36.719  11.244 122.152 -0.63 -0.00    +0.000 C 
DOCKED: BRANCH   7   8
DOCKED: ATOM      8  C   UNL     1      36.824   9.772 122.212 -0.65 -0.00    +0.000 C 
DOCKED: ATOM      9  N   UNL     1      37.078   9.069 123.433 -0.58 -0.00    +0.000 N 
DOCKED: ATOM     10  O   UNL     1      37.061   7.716 123.454 -2.70 -0.00    +0.000 OA
DOCKED: ATOM     11  O   UNL     1      36.708   9.119 121.140 -2.62 -0.00    +0.000 OA
DOCKED: ATOM     12  H   UNL     1      37.265   9.571 124.260 -0.60 -0.00    +0.000 HD
DOCKED: ENDBRANCH   7   8
DOCKED: ENDBRANCH   4   6
DOCKED: ENDBRANCH   1   3
DOCKED: BRANCH   1  13
DOCKED: ATOM     13  C   UNL     1      37.997  16.003 120.907 -0.20 -0.00    +0.000 C 
DOCKED: ATOM     14  O   UNL     1      38.996  16.775 120.909 -0.13 -0.00    +0.000 OA
DOCKED: BRANCH  13  18
DOCKED: ATOM     15  C   UNL     1      36.570  14.505 117.111 -0.29 -0.00    +0.000 A 
DOCKED: ATOM     16  C   UNL     1      37.783  14.053 117.666 -0.29 -0.00    +0.000 A 
DOCKED: ATOM     17  C   UNL     1      38.237  14.543 118.892 -0.17 -0.00    +0.000 A 
DOCKED: ATOM     18  C   UNL     1      37.490  15.492 119.607 -0.19 -0.00    +0.000 A 
DOCKED: ATOM     19  C   UNL     1      36.284  15.957 119.053 -0.14 -0.00    +0.000 A 
DOCKED: ATOM     20  C   UNL     1      35.830  15.468 117.826 -0.19 -0.00    +0.000 A 
DOCKED: ATOM     21  CM  UNL     1      37.033  15.003 118.359 +0.00 -0.00    +0.000 AC
DOCKED: BRANCH  15  22
DOCKED: ATOM     22  C   UNL     1      34.674  14.082 115.479 -0.30 -0.00    +0.000 C 
DOCKED: ATOM     23  N   UNL     1      36.097  13.996 115.836 -0.30 -0.00    +0.000 N 
DOCKED: ATOM     24  C   UNL     1      37.031  13.387 114.882 -0.37 -0.00    +0.000 C 
DOCKED: ENDBRANCH  15  22
DOCKED: ENDBRANCH  13  18
DOCKED: ENDBRANCH   1  13
DOCKED: TORSDOF 6DOCKED: TER
DOCKED: ENDMDL
________________________________________________________________________________


	BEGINNING GENETIC ALGORITHM DOCKING 26 of 100
Run: 26 Seed: 857617320 125998204 [ Run 26 of 100 GA/GALS ]
Beginning LAMARCKIAN GENETIC ALGORITHM (LGA), with a maximum of 2500000 energy evaluations.

Final-Value: -14.886


	FINAL GENETIC ALGORITHM DOCKED STATE
	_______________________________________________


Detailed state:  trans 36.974 14.950 122.995 quatxyzw -0.543428 -0.834543 -0.063905 -0.064348 center -0.963 -0.416 0.212 ntor 6 179.8593 174.2850 -162.7834 -146.3990 79.4902 -43.0376
State:	 36.974  14.950 122.995  -0.545 -0.836 -0.064 -172.621    179.86  174.28 -162.78 -146.40   79.49  -43.04

DOCKED: MODEL       26
DOCKED: USER    Run = 26
DOCKED: USER    DPF = ligand_dock.biased.dpf
DOCKED: USER  
DOCKED: USER    Estimated Free Energy of Binding    =  -12.10 kcal/mol  [=(1)+(2)+(3)-(4)]
DOCKED: USER    Estimated Inhibition Constant, Ki   =    1.34 nM (nanomolar)  [Temperature = 298.15 K]
DOCKED: USER    
DOCKED: USER    (1) Final Intermolecular Energy     =  -13.89 kcal/mol
DOCKED: USER        vdW + Hbond + desolv Energy     =  -13.89 kcal/mol
DOCKED: USER        Electrostatic Energy            =   +0.00 kcal/mol
DOCKED: USER    (2) Final Total Internal Energy     =   -0.99 kcal/mol
DOCKED: USER    (3) Torsional Free Energy           =   +1.79 kcal/mol
DOCKED: USER    (4) Unbound System's Energy  [=(2)] =   -0.99 kcal/mol
DOCKED: USER    
DOCKED: USER    
DOCKED: USER    NEWDPF move ligand.dum.pdbqt
DOCKED: USER    NEWDPF about -0.963000 -0.416000 0.212000
DOCKED: USER    NEWDPF tran0 36.973951 14.950081 122.995039
DOCKED: USER    NEWDPF quaternion0 -0.543428 -0.834543 -0.063905 -0.064348
DOCKED: USER    NEWDPF axisangle0 -0.544556 -0.836276 -0.064037 -172.621148
DOCKED: USER    NEWDPF quat0 -0.544556 -0.836276 -0.064037 -172.621148
DOCKED: USER    NEWDPF dihe0 179.86 174.28 -162.78 -146.40 79.49 -43.04 
DOCKED: USER  keepresnum = 1 
DOCKED: USER  
DOCKED: REMARK  Name = 
DOCKED: REMARK  10 active torsions:
DOCKED: REMARK  status: ('A' for Active; 'I' for Inactive)
DOCKED: REMARK    1  A    between atoms: C_1  and  N_2
DOCKED: REMARK    2  A    between atoms: N_2  and  C_3
DOCKED: REMARK    3  A    between atoms: N_2  and  C_22
DOCKED: REMARK    4  A    between atoms: C_6  and  C_9
DOCKED: REMARK    5  A    between atoms: C_9  and  C_10
DOCKED: REMARK    6  A    between atoms: C_10  and  C_11
DOCKED: REMARK    7  A    between atoms: C_10  and  C_20
DOCKED: REMARK    8  A    between atoms: C_12  and  C_13
DOCKED: REMARK    9  A    between atoms: C_12  and  C_19
DOCKED: REMARK   10  A    between atoms: C_14  and  C_15
DOCKED: REMARK                            x       y       z     vdW  Elec       q    Type
DOCKED: REMARK                         _______ _______ _______ _____ _____    ______ ____
DOCKED: USER                              x       y       z     vdW  Elec       q    Type
DOCKED: USER                           _______ _______ _______ _____ _____    ______ ____
DOCKED: ROOT
DOCKED: ATOM      1  C   UNL     1      37.857  15.572 121.814 -0.28 -0.00    +0.000 C 
DOCKED: ATOM      2  C   UNL     1      38.666  16.093 120.624 -0.18 -0.00    +0.000 C 
DOCKED: ENDROOT
DOCKED: BRANCH   1   3
DOCKED: ATOM      3  C   UNL     1      37.802  14.057 121.783 -0.44 -0.00    +0.000 C 
DOCKED: ATOM      4  C   UNL     1      37.372  13.321 120.737 -0.45 -0.00    +0.000 C 
DOCKED: ATOM      5  C   UNL     1      36.901  13.961 119.450 -0.33 -0.00    +0.000 C 
DOCKED: BRANCH   4   6
DOCKED: ATOM      6  C   UNL     1      37.416  11.842 120.865 -0.52 -0.00    +0.000 C 
DOCKED: ATOM      7  C   UNL     1      37.022  11.191 121.971 -0.56 -0.00    +0.000 C 
DOCKED: BRANCH   7   8
DOCKED: ATOM      8  C   UNL     1      37.059   9.721 122.108 -0.59 -0.00    +0.000 C 
DOCKED: ATOM      9  N   UNL     1      37.114   9.070 123.382 -0.58 -0.00    +0.000 N 
DOCKED: ATOM     10  O   UNL     1      37.040   7.721 123.459 -2.68 -0.00    +0.000 OA
DOCKED: ATOM     11  O   UNL     1      37.066   9.022 121.060 -2.72 -0.00    +0.000 OA
DOCKED: ATOM     12  H   UNL     1      37.205   9.605 124.204 -0.60 -0.00    +0.000 HD
DOCKED: ENDBRANCH   7   8
DOCKED: ENDBRANCH   4   6
DOCKED: ENDBRANCH   1   3
DOCKED: BRANCH   1  13
DOCKED: ATOM     13  C   UNL     1      36.460  16.161 121.783 -0.24 -0.00    +0.000 C 
DOCKED: ATOM     14  O   UNL     1      35.923  16.408 120.667 -0.22 -0.00    +0.000 OA
DOCKED: BRANCH  13  18
DOCKED: ATOM     15  C   UNL     1      34.259  17.075 125.390 -0.39 -0.00    +0.000 A 
DOCKED: ATOM     16  C   UNL     1      34.438  15.745 124.960 -0.48 -0.00    +0.000 A 
DOCKED: ATOM     17  C   UNL     1      35.150  15.459 123.793 -0.48 -0.00    +0.000 A 
DOCKED: ATOM     18  C   UNL     1      35.712  16.490 123.025 -0.32 -0.00    +0.000 A 
DOCKED: ATOM     19  C   UNL     1      35.526  17.820 123.441 -0.27 -0.00    +0.000 A 
DOCKED: ATOM     20  C   UNL     1      34.813  18.107 124.608 -0.31 -0.00    +0.000 A 
DOCKED: ATOM     21  CM  UNL     1      34.983  16.782 124.203 -0.15 -0.00    +0.000 AC
DOCKED: BRANCH  15  22
DOCKED: ATOM     22  C   UNL     1      33.327  16.344 127.634 -0.44 -0.00    +0.000 C 
DOCKED: ATOM     23  N   UNL     1      33.519  17.373 126.604 -0.38 -0.00    +0.000 N 
DOCKED: ATOM     24  C   UNL     1      32.952  18.709 126.822 -0.29 -0.00    +0.000 C 
DOCKED: ENDBRANCH  15  22
DOCKED: ENDBRANCH  13  18
DOCKED: ENDBRANCH   1  13
DOCKED: TORSDOF 6DOCKED: TER
DOCKED: ENDMDL
________________________________________________________________________________


	BEGINNING GENETIC ALGORITHM DOCKING 27 of 100
Run: 27 Seed: 2137301231 1188672484 [ Run 27 of 100 GA/GALS ]
Beginning LAMARCKIAN GENETIC ALGORITHM (LGA), with a maximum of 2500000 energy evaluations.

Final-Value: -14.872


	FINAL GENETIC ALGORITHM DOCKED STATE
	_______________________________________________


Detailed state:  trans 36.858 14.935 123.102 quatxyzw 0.552183 0.827480 0.090982 0.045754 center -0.963 -0.416 0.212 ntor 6 166.2750 -180.0000 -173.8065 -144.2905 88.3379 -41.9342
State:	 36.858  14.935 123.102   0.553  0.828  0.091 174.755    166.28 -180.00 -173.81 -144.29   88.34  -41.93

DOCKED: MODEL       27
DOCKED: USER    Run = 27
DOCKED: USER    DPF = ligand_dock.biased.dpf
DOCKED: USER  
DOCKED: USER    Estimated Free Energy of Binding    =  -12.12 kcal/mol  [=(1)+(2)+(3)-(4)]
DOCKED: USER    Estimated Inhibition Constant, Ki   =    1.32 nM (nanomolar)  [Temperature = 298.15 K]
DOCKED: USER    
DOCKED: USER    (1) Final Intermolecular Energy     =  -13.91 kcal/mol
DOCKED: USER        vdW + Hbond + desolv Energy     =  -13.91 kcal/mol
DOCKED: USER        Electrostatic Energy            =   +0.00 kcal/mol
DOCKED: USER    (2) Final Total Internal Energy     =   -0.97 kcal/mol
DOCKED: USER    (3) Torsional Free Energy           =   +1.79 kcal/mol
DOCKED: USER    (4) Unbound System's Energy  [=(2)] =   -0.97 kcal/mol
DOCKED: USER    
DOCKED: USER    
DOCKED: USER    NEWDPF move ligand.dum.pdbqt
DOCKED: USER    NEWDPF about -0.963000 -0.416000 0.212000
DOCKED: USER    NEWDPF tran0 36.857713 14.934779 123.101526
DOCKED: USER    NEWDPF quaternion0 0.552183 0.827480 0.090982 0.045754
DOCKED: USER    NEWDPF axisangle0 0.552762 0.828347 0.091077 174.755095
DOCKED: USER    NEWDPF quat0 0.552762 0.828347 0.091077 174.755095
DOCKED: USER    NEWDPF dihe0 166.28 -180.00 -173.81 -144.29 88.34 -41.93 
DOCKED: USER  keepresnum = 1 
DOCKED: USER  
DOCKED: REMARK  Name = 
DOCKED: REMARK  10 active torsions:
DOCKED: REMARK  status: ('A' for Active; 'I' for Inactive)
DOCKED: REMARK    1  A    between atoms: C_1  and  N_2
DOCKED: REMARK    2  A    between atoms: N_2  and  C_3
DOCKED: REMARK    3  A    between atoms: N_2  and  C_22
DOCKED: REMARK    4  A    between atoms: C_6  and  C_9
DOCKED: REMARK    5  A    between atoms: C_9  and  C_10
DOCKED: REMARK    6  A    between atoms: C_10  and  C_11
DOCKED: REMARK    7  A    between atoms: C_10  and  C_20
DOCKED: REMARK    8  A    between atoms: C_12  and  C_13
DOCKED: REMARK    9  A    between atoms: C_12  and  C_19
DOCKED: REMARK   10  A    between atoms: C_14  and  C_15
DOCKED: REMARK                            x       y       z     vdW  Elec       q    Type
DOCKED: REMARK                         _______ _______ _______ _____ _____    ______ ____
DOCKED: USER                              x       y       z     vdW  Elec       q    Type
DOCKED: USER                           _______ _______ _______ _____ _____    ______ ____
DOCKED: ROOT
DOCKED: ATOM      1  C   UNL     1      37.825  15.559 121.990 -0.29 -0.00    +0.000 C 
DOCKED: ATOM      2  C   UNL     1      38.717  16.085 120.862 -0.19 -0.00    +0.000 C 
DOCKED: ENDROOT
DOCKED: BRANCH   1   3
DOCKED: ATOM      3  C   UNL     1      37.731  14.048 121.917 -0.44 -0.00    +0.000 C 
DOCKED: ATOM      4  C   UNL     1      37.382  13.348 120.817 -0.45 -0.00    +0.000 C 
DOCKED: ATOM      5  C   UNL     1      37.054  14.030 119.508 -0.35 -0.00    +0.000 C 
DOCKED: BRANCH   4   6
DOCKED: ATOM      6  C   UNL     1      37.371  11.865 120.913 -0.52 -0.00    +0.000 C 
DOCKED: ATOM      7  C   UNL     1      37.057  11.207 122.039 -0.55 -0.00    +0.000 C 
DOCKED: BRANCH   7   8
DOCKED: ATOM      8  C   UNL     1      37.040   9.734 122.145 -0.59 -0.00    +0.000 C 
DOCKED: ATOM      9  N   UNL     1      37.068   9.054 123.405 -0.59 -0.00    +0.000 N 
DOCKED: ATOM     10  O   UNL     1      36.946   7.707 123.453 -2.62 -0.00    +0.000 OA
DOCKED: ATOM     11  O   UNL     1      37.026   9.057 121.082 -2.71 -0.00    +0.000 OA
DOCKED: ATOM     12  H   UNL     1      37.176   9.568 124.239 -0.59 -0.00    +0.000 HD
DOCKED: ENDBRANCH   7   8
DOCKED: ENDBRANCH   4   6
DOCKED: ENDBRANCH   1   3
DOCKED: BRANCH   1  13
DOCKED: ATOM     13  C   UNL     1      36.449  16.188 121.893 -0.25 -0.00    +0.000 C 
DOCKED: ATOM     14  O   UNL     1      35.977  16.458 120.753 -0.23 -0.00    +0.000 OA
DOCKED: BRANCH  13  18
DOCKED: ATOM     15  C   UNL     1      34.100  17.140 125.396 -0.39 -0.00    +0.000 A 
DOCKED: ATOM     16  C   UNL     1      34.416  15.807 125.068 -0.44 -0.00    +0.000 A 
DOCKED: ATOM     17  C   UNL     1      35.175  15.508 123.933 -0.49 -0.00    +0.000 A 
DOCKED: ATOM     18  C   UNL     1      35.649  16.532 123.098 -0.33 -0.00    +0.000 A 
DOCKED: ATOM     19  C   UNL     1      35.327  17.863 123.412 -0.28 -0.00    +0.000 A 
DOCKED: ATOM     20  C   UNL     1      34.567  18.163 124.546 -0.32 -0.00    +0.000 A 
DOCKED: ATOM     21  CM  UNL     1      34.872  16.835 124.242 -0.17 -0.00    +0.000 AC
DOCKED: BRANCH  15  22
DOCKED: ATOM     22  C   UNL     1      32.953  16.398 127.534 -0.44 -0.00    +0.000 C 
DOCKED: ATOM     23  N   UNL     1      33.312  17.451 126.575 -0.38 -0.00    +0.000 N 
DOCKED: ATOM     24  C   UNL     1      32.862  18.825 126.830 -0.29 -0.00    +0.000 C 
DOCKED: ENDBRANCH  15  22
DOCKED: ENDBRANCH  13  18
DOCKED: ENDBRANCH   1  13
DOCKED: TORSDOF 6DOCKED: TER
DOCKED: ENDMDL
________________________________________________________________________________


	BEGINNING GENETIC ALGORITHM DOCKING 28 of 100
Run: 28 Seed: 50202465 1673073436 [ Run 28 of 100 GA/GALS ]
Beginning LAMARCKIAN GENETIC ALGORITHM (LGA), with a maximum of 2500000 energy evaluations.

Final-Value: -14.480


	FINAL GENETIC ALGORITHM DOCKED STATE
	_______________________________________________


Detailed state:  trans 39.004 14.710 121.749 quatxyzw 0.348260 0.240539 -0.446338 0.788440 center -0.963 -0.416 0.212 ntor 6 -127.9318 -8.1255 136.8558 -140.0033 -107.3825 -46.1919
State:	 39.004  14.710 121.749   0.566  0.391 -0.726 75.920   -127.93   -8.13  136.86 -140.00 -107.38  -46.19

DOCKED: MODEL       28
DOCKED: USER    Run = 28
DOCKED: USER    DPF = ligand_dock.biased.dpf
DOCKED: USER  
DOCKED: USER    Estimated Free Energy of Binding    =  -11.76 kcal/mol  [=(1)+(2)+(3)-(4)]
DOCKED: USER    Estimated Inhibition Constant, Ki   =    2.38 nM (nanomolar)  [Temperature = 298.15 K]
DOCKED: USER    
DOCKED: USER    (1) Final Intermolecular Energy     =  -13.55 kcal/mol
DOCKED: USER        vdW + Hbond + desolv Energy     =  -13.55 kcal/mol
DOCKED: USER        Electrostatic Energy            =   +0.00 kcal/mol
DOCKED: USER    (2) Final Total Internal Energy     =   -0.93 kcal/mol
DOCKED: USER    (3) Torsional Free Energy           =   +1.79 kcal/mol
DOCKED: USER    (4) Unbound System's Energy  [=(2)] =   -0.93 kcal/mol
DOCKED: USER    
DOCKED: USER    
DOCKED: USER    NEWDPF move ligand.dum.pdbqt
DOCKED: USER    NEWDPF about -0.963000 -0.416000 0.212000
DOCKED: USER    NEWDPF tran0 39.003755 14.709835 121.749174
DOCKED: USER    NEWDPF quaternion0 0.348260 0.240539 -0.446338 0.788440
DOCKED: USER    NEWDPF axisangle0 0.566174 0.391049 -0.725622 75.920007
DOCKED: USER    NEWDPF quat0 0.566174 0.391049 -0.725622 75.920007
DOCKED: USER    NEWDPF dihe0 -127.93 -8.13 136.86 -140.00 -107.38 -46.19 
DOCKED: USER  keepresnum = 1 
DOCKED: USER  
DOCKED: REMARK  Name = 
DOCKED: REMARK  10 active torsions:
DOCKED: REMARK  status: ('A' for Active; 'I' for Inactive)
DOCKED: REMARK    1  A    between atoms: C_1  and  N_2
DOCKED: REMARK    2  A    between atoms: N_2  and  C_3
DOCKED: REMARK    3  A    between atoms: N_2  and  C_22
DOCKED: REMARK    4  A    between atoms: C_6  and  C_9
DOCKED: REMARK    5  A    between atoms: C_9  and  C_10
DOCKED: REMARK    6  A    between atoms: C_10  and  C_11
DOCKED: REMARK    7  A    between atoms: C_10  and  C_20
DOCKED: REMARK    8  A    between atoms: C_12  and  C_13
DOCKED: REMARK    9  A    between atoms: C_12  and  C_19
DOCKED: REMARK   10  A    between atoms: C_14  and  C_15
DOCKED: REMARK                            x       y       z     vdW  Elec       q    Type
DOCKED: REMARK                         _______ _______ _______ _____ _____    ______ ____
DOCKED: USER                              x       y       z     vdW  Elec       q    Type
DOCKED: USER                           _______ _______ _______ _____ _____    ______ ____
DOCKED: ROOT
DOCKED: ATOM      1  C   UNL     1      37.604  15.484 121.769 -0.29 -0.00    +0.000 C 
DOCKED: ATOM      2  C   UNL     1      36.235  16.163 121.863 -0.23 -0.00    +0.000 C 
DOCKED: ENDROOT
DOCKED: BRANCH   1   3
DOCKED: ATOM      3  C   UNL     1      37.466  13.997 122.029 -0.45 -0.00    +0.000 C 
DOCKED: ATOM      4  C   UNL     1      36.790  13.454 123.064 -0.57 -0.00    +0.000 C 
DOCKED: ATOM      5  C   UNL     1      36.073  14.307 124.086 -0.47 -0.00    +0.000 C 
DOCKED: BRANCH   4   6
DOCKED: ATOM      6  C   UNL     1      36.729  11.972 123.150 -0.68 -0.00    +0.000 C 
DOCKED: ATOM      7  C   UNL     1      37.016  11.167 122.116 -0.56 -0.00    +0.000 C 
DOCKED: BRANCH   7   8
DOCKED: ATOM      8  C   UNL     1      36.961   9.692 122.191 -0.62 -0.00    +0.000 C 
DOCKED: ATOM      9  N   UNL     1      37.130   8.979 123.422 -0.58 -0.00    +0.000 N 
DOCKED: ATOM     10  O   UNL     1      36.967   7.636 123.456 -2.58 -0.00    +0.000 OA
DOCKED: ATOM     11  O   UNL     1      36.784   9.045 121.125 -2.64 -0.00    +0.000 OA
DOCKED: ATOM     12  H   UNL     1      37.364   9.468 124.245 -0.62 -0.00    +0.000 HD
DOCKED: ENDBRANCH   7   8
DOCKED: ENDBRANCH   4   6
DOCKED: ENDBRANCH   1   3
DOCKED: BRANCH   1  13
DOCKED: ATOM     13  C   UNL     1      38.561  16.117 122.760 -0.29 -0.00    +0.000 C 
DOCKED: ATOM     14  O   UNL     1      38.099  16.613 123.826 -0.32 -0.00    +0.000 OA
DOCKED: BRANCH  13  18
DOCKED: ATOM     15  C   UNL     1      42.804  16.411 121.983 -0.33 -0.00    +0.000 A 
DOCKED: ATOM     16  C   UNL     1      41.941  17.501 121.754 -0.16 -0.00    +0.000 A 
DOCKED: ATOM     17  C   UNL     1      40.571  17.397 122.007 -0.14 -0.00    +0.000 A 
DOCKED: ATOM     18  C   UNL     1      40.022  16.205 122.504 -0.27 -0.00    +0.000 A 
DOCKED: ATOM     19  C   UNL     1      40.874  15.109 122.723 -0.43 -0.00    +0.000 A 
DOCKED: ATOM     20  C   UNL     1      42.245  15.211 122.470 -0.42 -0.00    +0.000 A 
DOCKED: ATOM     21  CM  UNL     1      41.409  16.306 122.240 +0.00 -0.00    +0.000 AC
DOCKED: BRANCH  15  22
DOCKED: ATOM     22  C   UNL     1      45.093  17.310 122.606 -0.33 -0.00    +0.000 C 
DOCKED: ATOM     23  N   UNL     1      44.228  16.518 121.722 -0.28 -0.00    +0.000 N 
DOCKED: ATOM     24  C   UNL     1      44.828  15.836 120.569 -0.28 +0.00    +0.000 C 
DOCKED: ENDBRANCH  15  22
DOCKED: ENDBRANCH  13  18
DOCKED: ENDBRANCH   1  13
DOCKED: TORSDOF 6DOCKED: TER
DOCKED: ENDMDL
________________________________________________________________________________


	BEGINNING GENETIC ALGORITHM DOCKING 29 of 100
Run: 29 Seed: 37647930 275908735 [ Run 29 of 100 GA/GALS ]
Beginning LAMARCKIAN GENETIC ALGORITHM (LGA), with a maximum of 2500000 energy evaluations.

Final-Value: -15.108


	FINAL GENETIC ALGORITHM DOCKED STATE
	_______________________________________________


Detailed state:  trans 36.161 15.016 121.993 quatxyzw -0.392126 -0.804548 -0.244868 0.372800 center -0.963 -0.416 0.212 ntor 6 98.6447 39.2607 81.6850 48.4365 36.4235 176.2324
State:	 36.161  15.016 121.993  -0.423 -0.867 -0.264 136.223     98.64   39.26   81.68   48.44   36.42  176.23

DOCKED: MODEL       29
DOCKED: USER    Run = 29
DOCKED: USER    DPF = ligand_dock.biased.dpf
DOCKED: USER  
DOCKED: USER    Estimated Free Energy of Binding    =  -11.98 kcal/mol  [=(1)+(2)+(3)-(4)]
DOCKED: USER    Estimated Inhibition Constant, Ki   =    1.66 nM (nanomolar)  [Temperature = 298.15 K]
DOCKED: USER    
DOCKED: USER    (1) Final Intermolecular Energy     =  -13.77 kcal/mol
DOCKED: USER        vdW + Hbond + desolv Energy     =  -13.77 kcal/mol
DOCKED: USER        Electrostatic Energy            =   +0.00 kcal/mol
DOCKED: USER    (2) Final Total Internal Energy     =   -1.34 kcal/mol
DOCKED: USER    (3) Torsional Free Energy           =   +1.79 kcal/mol
DOCKED: USER    (4) Unbound System's Energy  [=(2)] =   -1.34 kcal/mol
DOCKED: USER    
DOCKED: USER    
DOCKED: USER    NEWDPF move ligand.dum.pdbqt
DOCKED: USER    NEWDPF about -0.963000 -0.416000 0.212000
DOCKED: USER    NEWDPF tran0 36.161366 15.015654 121.992532
DOCKED: USER    NEWDPF quaternion0 -0.392126 -0.804548 -0.244868 0.372800
DOCKED: USER    NEWDPF axisangle0 -0.422590 -0.867052 -0.263891 136.223203
DOCKED: USER    NEWDPF quat0 -0.422590 -0.867052 -0.263891 136.223203
DOCKED: USER    NEWDPF dihe0 98.64 39.26 81.68 48.44 36.42 176.23 
DOCKED: USER  keepresnum = 1 
DOCKED: USER  
DOCKED: REMARK  Name = 
DOCKED: REMARK  10 active torsions:
DOCKED: REMARK  status: ('A' for Active; 'I' for Inactive)
DOCKED: REMARK    1  A    between atoms: C_1  and  N_2
DOCKED: REMARK    2  A    between atoms: N_2  and  C_3
DOCKED: REMARK    3  A    between atoms: N_2  and  C_22
DOCKED: REMARK    4  A    between atoms: C_6  and  C_9
DOCKED: REMARK    5  A    between atoms: C_9  and  C_10
DOCKED: REMARK    6  A    between atoms: C_10  and  C_11
DOCKED: REMARK    7  A    between atoms: C_10  and  C_20
DOCKED: REMARK    8  A    between atoms: C_12  and  C_13
DOCKED: REMARK    9  A    between atoms: C_12  and  C_19
DOCKED: REMARK   10  A    between atoms: C_14  and  C_15
DOCKED: REMARK                            x       y       z     vdW  Elec       q    Type
DOCKED: REMARK                         _______ _______ _______ _____ _____    ______ ____
DOCKED: USER                              x       y       z     vdW  Elec       q    Type
DOCKED: USER                           _______ _______ _______ _____ _____    ______ ____
DOCKED: ROOT
DOCKED: ATOM      1  C   UNL     1      37.598  15.719 121.945 -0.28 -0.00    +0.000 C 
DOCKED: ATOM      2  C   UNL     1      39.008  16.308 121.852 -0.22 -0.00    +0.000 C 
DOCKED: ENDROOT
DOCKED: BRANCH   1   3
DOCKED: ATOM      3  C   UNL     1      37.674  14.223 122.182 -0.44 -0.00    +0.000 C 
DOCKED: ATOM      4  C   UNL     1      36.864  13.531 123.010 -0.56 -0.00    +0.000 C 
DOCKED: ATOM      5  C   UNL     1      35.759  14.204 123.794 -0.56 -0.00    +0.000 C 
DOCKED: BRANCH   4   6
DOCKED: ATOM      6  C   UNL     1      37.057  12.060 123.100 -0.66 -0.00    +0.000 C 
DOCKED: ATOM      7  C   UNL     1      36.719  11.217 122.112 -0.62 -0.00    +0.000 C 
DOCKED: BRANCH   7   8
DOCKED: ATOM      8  C   UNL     1      36.910   9.754 122.189 -0.63 -0.00    +0.000 C 
DOCKED: ATOM      9  N   UNL     1      37.036   9.061 123.436 -0.58 -0.00    +0.000 N 
DOCKED: ATOM     10  O   UNL     1      37.104   7.709 123.457 -2.69 -0.00    +0.000 OA
DOCKED: ATOM     11  O   UNL     1      36.987   9.103 121.113 -2.70 -0.00    +0.000 OA
DOCKED: ATOM     12  H   UNL     1      37.073   9.568 124.279 -0.56 -0.00    +0.000 HD
DOCKED: ENDBRANCH   7   8
DOCKED: ENDBRANCH   4   6
DOCKED: ENDBRANCH   1   3
DOCKED: BRANCH   1  13
DOCKED: ATOM     13  C   UNL     1      36.829  16.023 120.674 -0.20 -0.00    +0.000 C 
DOCKED: ATOM     14  O   UNL     1      35.897  16.874 120.711 -0.23 -0.00    +0.000 OA
DOCKED: BRANCH  13  18
DOCKED: ATOM     15  C   UNL     1      37.645  14.044 116.918 -0.32 -0.00    +0.000 A 
DOCKED: ATOM     16  C   UNL     1      37.820  15.434 117.065 -0.16 -0.00    +0.000 A 
DOCKED: ATOM     17  C   UNL     1      37.553  16.065 118.282 -0.13 -0.00    +0.000 A 
DOCKED: ATOM     18  C   UNL     1      37.112  15.327 119.392 -0.20 -0.00    +0.000 A 
DOCKED: ATOM     19  C   UNL     1      36.923  13.942 119.248 -0.31 -0.00    +0.000 A 
DOCKED: ATOM     20  C   UNL     1      37.189  13.309 118.031 -0.36 -0.00    +0.000 A 
DOCKED: ATOM     21  CM  UNL     1      37.373  14.687 118.156 +0.00 -0.00    +0.000 AC
DOCKED: BRANCH  15  22
DOCKED: ATOM     22  C   UNL     1      37.181  13.755 114.440 -0.37 -0.00    +0.000 C 
DOCKED: ATOM     23  N   UNL     1      37.923  13.386 115.653 -0.43 -0.00    +0.000 N 
DOCKED: ATOM     24  C   UNL     1      38.950  12.341 115.565 -0.56 -0.00    +0.000 C 
DOCKED: ENDBRANCH  15  22
DOCKED: ENDBRANCH  13  18
DOCKED: ENDBRANCH   1  13
DOCKED: TORSDOF 6DOCKED: TER
DOCKED: ENDMDL
________________________________________________________________________________


	BEGINNING GENETIC ALGORITHM DOCKING 30 of 100
Run: 30 Seed: 1577795439 1190450444 [ Run 30 of 100 GA/GALS ]
Beginning LAMARCKIAN GENETIC ALGORITHM (LGA), with a maximum of 2500000 energy evaluations.

Final-Value: -14.516


	FINAL GENETIC ALGORITHM DOCKED STATE
	_______________________________________________


Detailed state:  trans 36.874 15.155 122.699 quatxyzw 0.435055 0.771461 0.296050 -0.357673 center -0.963 -0.416 0.212 ntor 6 -175.7140 63.5596 23.7339 73.4801 63.1191 -177.8993
State:	 36.874  15.155 122.699   0.466  0.826  0.317 -138.085   -175.71   63.56   23.73   73.48   63.12 -177.90

DOCKED: MODEL       30
DOCKED: USER    Run = 30
DOCKED: USER    DPF = ligand_dock.biased.dpf
DOCKED: USER  
DOCKED: USER    Estimated Free Energy of Binding    =  -11.27 kcal/mol  [=(1)+(2)+(3)-(4)]
DOCKED: USER    Estimated Inhibition Constant, Ki   =    5.49 nM (nanomolar)  [Temperature = 298.15 K]
DOCKED: USER    
DOCKED: USER    (1) Final Intermolecular Energy     =  -13.06 kcal/mol
DOCKED: USER        vdW + Hbond + desolv Energy     =  -13.06 kcal/mol
DOCKED: USER        Electrostatic Energy            =   +0.00 kcal/mol
DOCKED: USER    (2) Final Total Internal Energy     =   -1.46 kcal/mol
DOCKED: USER    (3) Torsional Free Energy           =   +1.79 kcal/mol
DOCKED: USER    (4) Unbound System's Energy  [=(2)] =   -1.46 kcal/mol
DOCKED: USER    
DOCKED: USER    
DOCKED: USER    NEWDPF move ligand.dum.pdbqt
DOCKED: USER    NEWDPF about -0.963000 -0.416000 0.212000
DOCKED: USER    NEWDPF tran0 36.873834 15.154710 122.698573
DOCKED: USER    NEWDPF quaternion0 0.435055 0.771461 0.296050 -0.357673
DOCKED: USER    NEWDPF axisangle0 0.465874 0.826110 0.317022 -138.085336
DOCKED: USER    NEWDPF quat0 0.465874 0.826110 0.317022 -138.085336
DOCKED: USER    NEWDPF dihe0 -175.71 63.56 23.73 73.48 63.12 -177.90 
DOCKED: USER  keepresnum = 1 
DOCKED: USER  
DOCKED: REMARK  Name = 
DOCKED: REMARK  10 active torsions:
DOCKED: REMARK  status: ('A' for Active; 'I' for Inactive)
DOCKED: REMARK    1  A    between atoms: C_1  and  N_2
DOCKED: REMARK    2  A    between atoms: N_2  and  C_3
DOCKED: REMARK    3  A    between atoms: N_2  and  C_22
DOCKED: REMARK    4  A    between atoms: C_6  and  C_9
DOCKED: REMARK    5  A    between atoms: C_9  and  C_10
DOCKED: REMARK    6  A    between atoms: C_10  and  C_11
DOCKED: REMARK    7  A    between atoms: C_10  and  C_20
DOCKED: REMARK    8  A    between atoms: C_12  and  C_13
DOCKED: REMARK    9  A    between atoms: C_12  and  C_19
DOCKED: REMARK   10  A    between atoms: C_14  and  C_15
DOCKED: REMARK                            x       y       z     vdW  Elec       q    Type
DOCKED: REMARK                         _______ _______ _______ _____ _____    ______ ____
DOCKED: USER                              x       y       z     vdW  Elec       q    Type
DOCKED: USER                           _______ _______ _______ _____ _____    ______ ____
DOCKED: ROOT
DOCKED: ATOM      1  C   UNL     1      38.343  15.784 122.774 -0.32 -0.00    +0.000 C 
DOCKED: ATOM      2  C   UNL     1      39.781  16.308 122.789 -0.29 -0.00    +0.000 C 
DOCKED: ENDROOT
DOCKED: BRANCH   1   3
DOCKED: ATOM      3  C   UNL     1      38.342  14.268 122.798 -0.46 -0.00    +0.000 C 
DOCKED: ATOM      4  C   UNL     1      37.267  13.501 123.076 -0.56 -0.00    +0.000 C 
DOCKED: ATOM      5  C   UNL     1      35.915  14.103 123.387 -0.52 -0.00    +0.000 C 
DOCKED: BRANCH   4   6
DOCKED: ATOM      6  C   UNL     1      37.435  12.025 123.022 -0.50 -0.00    +0.000 C 
DOCKED: ATOM      7  C   UNL     1      36.608  11.219 122.340 -0.65 -0.00    +0.000 C 
DOCKED: BRANCH   7   8
DOCKED: ATOM      8  C   UNL     1      36.768   9.752 122.277 -0.67 -0.00    +0.000 C 
DOCKED: ATOM      9  N   UNL     1      37.033   8.958 123.440 -0.60 -0.00    +0.000 N 
DOCKED: ATOM     10  O   UNL     1      37.067   7.608 123.347 -2.57 -0.00    +0.000 OA
DOCKED: ATOM     11  O   UNL     1      36.691   9.188 121.153 -2.62 -0.00    +0.000 OA
DOCKED: ATOM     12  H   UNL     1      37.190   9.395 124.309 -0.57 -0.00    +0.000 HD
DOCKED: ENDBRANCH   7   8
DOCKED: ENDBRANCH   4   6
DOCKED: ENDBRANCH   1   3
DOCKED: BRANCH   1  13
DOCKED: ATOM     13  C   UNL     1      37.619  16.303 121.548 -0.20 -0.00    +0.000 C 
DOCKED: ATOM     14  O   UNL     1      36.809  17.264 121.675 -0.17 -0.00    +0.000 OA
DOCKED: BRANCH  13  18
DOCKED: ATOM     15  C   UNL     1      38.177  14.584 117.620 -0.21 -0.00    +0.000 A 
DOCKED: ATOM     16  C   UNL     1      38.982  15.647 118.074 -0.14 -0.00    +0.000 A 
DOCKED: ATOM     17  C   UNL     1      38.794  16.198 119.344 -0.12 -0.00    +0.000 A 
DOCKED: ATOM     18  C   UNL     1      37.803  15.697 120.203 -0.18 -0.00    +0.000 A 
DOCKED: ATOM     19  C   UNL     1      36.988  14.644 119.753 -0.22 -0.00    +0.000 A 
DOCKED: ATOM     20  C   UNL     1      37.175  14.094 118.482 -0.33 -0.00    +0.000 A 
DOCKED: ATOM     21  CM  UNL     1      37.987  15.145 118.913 +0.00 -0.00    +0.000 AC
DOCKED: BRANCH  15  22
DOCKED: ATOM     22  C   UNL     1      39.675  14.106 115.629 -0.41 -0.00    +0.000 C 
DOCKED: ATOM     23  N   UNL     1      38.372  14.011 116.300 -0.34 -0.00    +0.000 N 
DOCKED: ATOM     24  C   UNL     1      37.270  13.326 115.614 -0.40 -0.00    +0.000 C 
DOCKED: ENDBRANCH  15  22
DOCKED: ENDBRANCH  13  18
DOCKED: ENDBRANCH   1  13
DOCKED: TORSDOF 6DOCKED: TER
DOCKED: ENDMDL
________________________________________________________________________________


	BEGINNING GENETIC ALGORITHM DOCKING 31 of 100
Run: 31 Seed: 1305808143 1844690706 [ Run 31 of 100 GA/GALS ]
Beginning LAMARCKIAN GENETIC ALGORITHM (LGA), with a maximum of 2500000 energy evaluations.

Final-Value: -14.209


	FINAL GENETIC ALGORITHM DOCKED STATE
	_______________________________________________


Detailed state:  trans 36.657 15.160 123.289 quatxyzw -0.601818 -0.797725 -0.034759 -0.015557 center -0.963 -0.416 0.212 ntor 6 -126.0881 -35.0272 160.2236 88.5372 4.9394 -34.9818
State:	 36.657  15.160 123.289  -0.602 -0.798 -0.035 -178.217   -126.09  -35.03  160.22   88.54    4.94  -34.98

DOCKED: MODEL       31
DOCKED: USER    Run = 31
DOCKED: USER    DPF = ligand_dock.biased.dpf
DOCKED: USER  
DOCKED: USER    Estimated Free Energy of Binding    =  -11.38 kcal/mol  [=(1)+(2)+(3)-(4)]
DOCKED: USER    Estimated Inhibition Constant, Ki   =    4.58 nM (nanomolar)  [Temperature = 298.15 K]
DOCKED: USER    
DOCKED: USER    (1) Final Intermolecular Energy     =  -13.17 kcal/mol
DOCKED: USER        vdW + Hbond + desolv Energy     =  -13.17 kcal/mol
DOCKED: USER        Electrostatic Energy            =   +0.00 kcal/mol
DOCKED: USER    (2) Final Total Internal Energy     =   -1.04 kcal/mol
DOCKED: USER    (3) Torsional Free Energy           =   +1.79 kcal/mol
DOCKED: USER    (4) Unbound System's Energy  [=(2)] =   -1.04 kcal/mol
DOCKED: USER    
DOCKED: USER    
DOCKED: USER    NEWDPF move ligand.dum.pdbqt
DOCKED: USER    NEWDPF about -0.963000 -0.416000 0.212000
DOCKED: USER    NEWDPF tran0 36.657282 15.159650 123.289021
DOCKED: USER    NEWDPF quaternion0 -0.601818 -0.797725 -0.034759 -0.015557
DOCKED: USER    NEWDPF axisangle0 -0.601891 -0.797821 -0.034763 -178.217181
DOCKED: USER    NEWDPF quat0 -0.601891 -0.797821 -0.034763 -178.217181
DOCKED: USER    NEWDPF dihe0 -126.09 -35.03 160.22 88.54 4.94 -34.98 
DOCKED: USER  keepresnum = 1 
DOCKED: USER  
DOCKED: REMARK  Name = 
DOCKED: REMARK  10 active torsions:
DOCKED: REMARK  status: ('A' for Active; 'I' for Inactive)
DOCKED: REMARK    1  A    between atoms: C_1  and  N_2
DOCKED: REMARK    2  A    between atoms: N_2  and  C_3
DOCKED: REMARK    3  A    between atoms: N_2  and  C_22
DOCKED: REMARK    4  A    between atoms: C_6  and  C_9
DOCKED: REMARK    5  A    between atoms: C_9  and  C_10
DOCKED: REMARK    6  A    between atoms: C_10  and  C_11
DOCKED: REMARK    7  A    between atoms: C_10  and  C_20
DOCKED: REMARK    8  A    between atoms: C_12  and  C_13
DOCKED: REMARK    9  A    between atoms: C_12  and  C_19
DOCKED: REMARK   10  A    between atoms: C_14  and  C_15
DOCKED: REMARK                            x       y       z     vdW  Elec       q    Type
DOCKED: REMARK                         _______ _______ _______ _____ _____    ______ ____
DOCKED: USER                              x       y       z     vdW  Elec       q    Type
DOCKED: USER                           _______ _______ _______ _____ _____    ______ ____
DOCKED: ROOT
DOCKED: ATOM      1  C   UNL     1      37.654  15.525 122.092 -0.31 -0.00    +0.000 C 
DOCKED: ATOM      2  C   UNL     1      38.564  15.799 120.892 -0.22 -0.00    +0.000 C 
DOCKED: ENDROOT
DOCKED: BRANCH   1   3
DOCKED: ATOM      3  C   UNL     1      37.387  14.037 122.212 -0.46 -0.00    +0.000 C 
DOCKED: ATOM      4  C   UNL     1      36.617  13.465 123.162 -0.58 -0.00    +0.000 C 
DOCKED: ATOM      5  C   UNL     1      35.917  14.285 124.222 -0.47 -0.00    +0.000 C 
DOCKED: BRANCH   4   6
DOCKED: ATOM      6  C   UNL     1      36.436  11.991 123.113 -0.68 -0.00    +0.000 C 
DOCKED: ATOM      7  C   UNL     1      37.101  11.201 122.257 -0.52 -0.00    +0.000 C 
DOCKED: BRANCH   7   8
DOCKED: ATOM      8  C   UNL     1      36.930   9.734 122.201 -0.62 -0.00    +0.000 C 
DOCKED: ATOM      9  N   UNL     1      37.053   8.903 123.361 -0.62 -0.00    +0.000 N 
DOCKED: ATOM     10  O   UNL     1      36.785   7.579 123.278 -2.37 -0.00    +0.000 OA
DOCKED: ATOM     11  O   UNL     1      36.692   9.201 121.085 -2.61 +0.00    +0.000 OA
DOCKED: ATOM     12  H   UNL     1      37.333   9.295 124.220 -0.62 -0.00    +0.000 HD
DOCKED: ENDBRANCH   7   8
DOCKED: ENDBRANCH   4   6
DOCKED: ENDBRANCH   1   3
DOCKED: BRANCH   1  13
DOCKED: ATOM     13  C   UNL     1      36.356  16.293 121.939 -0.26 -0.00    +0.000 C 
DOCKED: ATOM     14  O   UNL     1      35.814  16.360 120.800 -0.19 -0.00    +0.000 OA
DOCKED: BRANCH  13  18
DOCKED: ATOM     15  C   UNL     1      34.454  18.364 125.223 -0.30 -0.00    +0.000 A 
DOCKED: ATOM     16  C   UNL     1      33.697  17.801 124.177 -0.24 -0.00    +0.000 A 
DOCKED: ATOM     17  C   UNL     1      34.320  17.135 123.119 -0.37 -0.00    +0.000 A 
DOCKED: ATOM     18  C   UNL     1      35.717  17.002 123.078 -0.29 -0.00    +0.000 A 
DOCKED: ATOM     19  C   UNL     1      36.479  17.572 124.112 -0.23 -0.00    +0.000 A 
DOCKED: ATOM     20  C   UNL     1      35.857  18.240 125.170 -0.22 -0.00    +0.000 A 
DOCKED: ATOM     21  CM  UNL     1      35.087  17.685 124.146 -0.27 -0.00    +0.000 AC
DOCKED: BRANCH  15  22
DOCKED: ATOM     22  C   UNL     1      33.100  18.303 127.368 -0.28 -0.00    +0.000 C 
DOCKED: ATOM     23  N   UNL     1      33.808  19.056 126.324 -0.25 -0.00    +0.000 N 
DOCKED: ATOM     24  C   UNL     1      33.851  20.521 126.412 -0.18 -0.00    +0.000 C 
DOCKED: ENDBRANCH  15  22
DOCKED: ENDBRANCH  13  18
DOCKED: ENDBRANCH   1  13
DOCKED: TORSDOF 6DOCKED: TER
DOCKED: ENDMDL
________________________________________________________________________________


	BEGINNING GENETIC ALGORITHM DOCKING 32 of 100
Run: 32 Seed: 841975719 1845361661 [ Run 32 of 100 GA/GALS ]
Beginning LAMARCKIAN GENETIC ALGORITHM (LGA), with a maximum of 2500000 energy evaluations.

Final-Value: -14.985


	FINAL GENETIC ALGORITHM DOCKED STATE
	_______________________________________________


Detailed state:  trans 36.693 15.125 122.270 quatxyzw -0.429604 -0.792459 -0.242464 0.358693 center -0.963 -0.416 0.212 ntor 6 51.7206 45.5227 60.7763 64.3262 57.7316 -177.9437
State:	 36.693  15.125 122.270  -0.460 -0.849 -0.260 137.960     51.72   45.52   60.78   64.33   57.73 -177.94

DOCKED: MODEL       32
DOCKED: USER    Run = 32
DOCKED: USER    DPF = ligand_dock.biased.dpf
DOCKED: USER  
DOCKED: USER    Estimated Free Energy of Binding    =  -11.70 kcal/mol  [=(1)+(2)+(3)-(4)]
DOCKED: USER    Estimated Inhibition Constant, Ki   =    2.65 nM (nanomolar)  [Temperature = 298.15 K]
DOCKED: USER    
DOCKED: USER    (1) Final Intermolecular Energy     =  -13.49 kcal/mol
DOCKED: USER        vdW + Hbond + desolv Energy     =  -13.49 kcal/mol
DOCKED: USER        Electrostatic Energy            =   +0.00 kcal/mol
DOCKED: USER    (2) Final Total Internal Energy     =   -1.49 kcal/mol
DOCKED: USER    (3) Torsional Free Energy           =   +1.79 kcal/mol
DOCKED: USER    (4) Unbound System's Energy  [=(2)] =   -1.49 kcal/mol
DOCKED: USER    
DOCKED: USER    
DOCKED: USER    NEWDPF move ligand.dum.pdbqt
DOCKED: USER    NEWDPF about -0.963000 -0.416000 0.212000
DOCKED: USER    NEWDPF tran0 36.693038 15.125011 122.270190
DOCKED: USER    NEWDPF quaternion0 -0.429604 -0.792459 -0.242464 0.358693
DOCKED: USER    NEWDPF axisangle0 -0.460230 -0.848952 -0.259749 137.960040
DOCKED: USER    NEWDPF quat0 -0.460230 -0.848952 -0.259749 137.960040
DOCKED: USER    NEWDPF dihe0 51.72 45.52 60.78 64.33 57.73 -177.94 
DOCKED: USER  keepresnum = 1 
DOCKED: USER  
DOCKED: REMARK  Name = 
DOCKED: REMARK  10 active torsions:
DOCKED: REMARK  status: ('A' for Active; 'I' for Inactive)
DOCKED: REMARK    1  A    between atoms: C_1  and  N_2
DOCKED: REMARK    2  A    between atoms: N_2  and  C_3
DOCKED: REMARK    3  A    between atoms: N_2  and  C_22
DOCKED: REMARK    4  A    between atoms: C_6  and  C_9
DOCKED: REMARK    5  A    between atoms: C_9  and  C_10
DOCKED: REMARK    6  A    between atoms: C_10  and  C_11
DOCKED: REMARK    7  A    between atoms: C_10  and  C_20
DOCKED: REMARK    8  A    between atoms: C_12  and  C_13
DOCKED: REMARK    9  A    between atoms: C_12  and  C_19
DOCKED: REMARK   10  A    between atoms: C_14  and  C_15
DOCKED: REMARK                            x       y       z     vdW  Elec       q    Type
DOCKED: REMARK                         _______ _______ _______ _____ _____    ______ ____
DOCKED: USER                              x       y       z     vdW  Elec       q    Type
DOCKED: USER                           _______ _______ _______ _____ _____    ______ ____
DOCKED: ROOT
DOCKED: ATOM      1  C   UNL     1      38.170  15.736 122.200 -0.29 -0.00    +0.000 C 
DOCKED: ATOM      2  C   UNL     1      39.612  16.238 122.081 -0.26 -0.00    +0.000 C 
DOCKED: ENDROOT
DOCKED: BRANCH   1   3
DOCKED: ATOM      3  C   UNL     1      38.156  14.230 122.375 -0.46 -0.00    +0.000 C 
DOCKED: ATOM      4  C   UNL     1      37.157  13.529 122.951 -0.55 -0.00    +0.000 C 
DOCKED: ATOM      5  C   UNL     1      35.911  14.203 123.482 -0.54 -0.00    +0.000 C 
DOCKED: BRANCH   4   6
DOCKED: ATOM      6  C   UNL     1      37.293  12.051 123.011 -0.56 -0.00    +0.000 C 
DOCKED: ATOM      7  C   UNL     1      36.800  11.232 122.069 -0.60 -0.00    +0.000 C 
DOCKED: BRANCH   7   8
DOCKED: ATOM      8  C   UNL     1      36.932   9.762 122.117 -0.62 -0.00    +0.000 C 
DOCKED: ATOM      9  N   UNL     1      37.046   9.041 123.350 -0.61 -0.00    +0.000 N 
DOCKED: ATOM     10  O   UNL     1      37.059   7.688 123.346 -2.62 -0.00    +0.000 OA
DOCKED: ATOM     11  O   UNL     1      36.969   9.128 121.029 -2.70 -0.00    +0.000 OA
DOCKED: ATOM     12  H   UNL     1      37.114   9.531 124.202 -0.59 -0.00    +0.000 HD
DOCKED: ENDBRANCH   7   8
DOCKED: ENDBRANCH   4   6
DOCKED: ENDBRANCH   1   3
DOCKED: BRANCH   1  13
DOCKED: ATOM     13  C   UNL     1      37.382  16.142 120.970 -0.20 -0.00    +0.000 C 
DOCKED: ATOM     14  O   UNL     1      36.589  17.122 121.046 -0.19 -0.00    +0.000 OA
DOCKED: BRANCH  13  18
DOCKED: ATOM     15  C   UNL     1      37.695  14.036 117.207 -0.31 -0.00    +0.000 A 
DOCKED: ATOM     16  C   UNL     1      38.455  15.194 117.463 -0.17 -0.00    +0.000 A 
DOCKED: ATOM     17  C   UNL     1      38.347  15.869 118.681 -0.14 -0.00    +0.000 A 
DOCKED: ATOM     18  C   UNL     1      37.484  15.403 119.685 -0.20 -0.00    +0.000 A 
DOCKED: ATOM     19  C   UNL     1      36.713  14.255 119.432 -0.21 -0.00    +0.000 A 
DOCKED: ATOM     20  C   UNL     1      36.819  13.580 118.214 -0.37 -0.00    +0.000 A 
DOCKED: ATOM     21  CM  UNL     1      37.586  14.723 118.447 +0.00 -0.00    +0.000 AC
DOCKED: BRANCH  15  22
DOCKED: ATOM     22  C   UNL     1      36.721  13.394 114.954 -0.32 -0.00    +0.000 C 
DOCKED: ATOM     23  N   UNL     1      37.807  13.333 115.942 -0.43 -0.00    +0.000 N 
DOCKED: ATOM     24  C   UNL     1      39.008  12.550 115.627 -0.55 -0.00    +0.000 C 
DOCKED: ENDBRANCH  15  22
DOCKED: ENDBRANCH  13  18
DOCKED: ENDBRANCH   1  13
DOCKED: TORSDOF 6DOCKED: TER
DOCKED: ENDMDL
________________________________________________________________________________


	BEGINNING GENETIC ALGORITHM DOCKING 33 of 100
Run: 33 Seed: 1567573168 1076795011 [ Run 33 of 100 GA/GALS ]
Beginning LAMARCKIAN GENETIC ALGORITHM (LGA), with a maximum of 2500000 energy evaluations.

Final-Value: -14.948


	FINAL GENETIC ALGORITHM DOCKED STATE
	_______________________________________________


Detailed state:  trans 36.014 14.934 121.978 quatxyzw 0.474702 0.743245 0.237631 -0.407156 center -0.963 -0.416 0.212 ntor 6 61.0759 -41.5178 156.4657 40.8631 -134.0955 172.4886
State:	 36.014  14.934 121.978   0.520  0.814  0.260 -131.947     61.08  -41.52  156.47   40.86 -134.10  172.49

DOCKED: MODEL       33
DOCKED: USER    Run = 33
DOCKED: USER    DPF = ligand_dock.biased.dpf
DOCKED: USER  
DOCKED: USER    Estimated Free Energy of Binding    =  -11.82 kcal/mol  [=(1)+(2)+(3)-(4)]
DOCKED: USER    Estimated Inhibition Constant, Ki   =    2.17 nM (nanomolar)  [Temperature = 298.15 K]
DOCKED: USER    
DOCKED: USER    (1) Final Intermolecular Energy     =  -13.61 kcal/mol
DOCKED: USER        vdW + Hbond + desolv Energy     =  -13.61 kcal/mol
DOCKED: USER        Electrostatic Energy            =   +0.00 kcal/mol
DOCKED: USER    (2) Final Total Internal Energy     =   -1.34 kcal/mol
DOCKED: USER    (3) Torsional Free Energy           =   +1.79 kcal/mol
DOCKED: USER    (4) Unbound System's Energy  [=(2)] =   -1.34 kcal/mol
DOCKED: USER    
DOCKED: USER    
DOCKED: USER    NEWDPF move ligand.dum.pdbqt
DOCKED: USER    NEWDPF about -0.963000 -0.416000 0.212000
DOCKED: USER    NEWDPF tran0 36.013986 14.933690 121.978349
DOCKED: USER    NEWDPF quaternion0 0.474702 0.743245 0.237631 -0.407156
DOCKED: USER    NEWDPF axisangle0 0.519732 0.813750 0.260173 -131.947411
DOCKED: USER    NEWDPF quat0 0.519732 0.813750 0.260173 -131.947411
DOCKED: USER    NEWDPF dihe0 61.08 -41.52 156.47 40.86 -134.10 172.49 
DOCKED: USER  keepresnum = 1 
DOCKED: USER  
DOCKED: REMARK  Name = 
DOCKED: REMARK  10 active torsions:
DOCKED: REMARK  status: ('A' for Active; 'I' for Inactive)
DOCKED: REMARK    1  A    between atoms: C_1  and  N_2
DOCKED: REMARK    2  A    between atoms: N_2  and  C_3
DOCKED: REMARK    3  A    between atoms: N_2  and  C_22
DOCKED: REMARK    4  A    between atoms: C_6  and  C_9
DOCKED: REMARK    5  A    between atoms: C_9  and  C_10
DOCKED: REMARK    6  A    between atoms: C_10  and  C_11
DOCKED: REMARK    7  A    between atoms: C_10  and  C_20
DOCKED: REMARK    8  A    between atoms: C_12  and  C_13
DOCKED: REMARK    9  A    between atoms: C_12  and  C_19
DOCKED: REMARK   10  A    between atoms: C_14  and  C_15
DOCKED: REMARK                            x       y       z     vdW  Elec       q    Type
DOCKED: REMARK                         _______ _______ _______ _____ _____    ______ ____
DOCKED: USER                              x       y       z     vdW  Elec       q    Type
DOCKED: USER                           _______ _______ _______ _____ _____    ______ ____
DOCKED: ROOT
DOCKED: ATOM      1  C   UNL     1      37.563  15.331 122.042 -0.32 -0.00    +0.000 C 
DOCKED: ATOM      2  C   UNL     1      39.065  15.625 122.054 -0.31 -0.00    +0.000 C 
DOCKED: ENDROOT
DOCKED: BRANCH   1   3
DOCKED: ATOM      3  C   UNL     1      37.323  13.842 122.196 -0.47 -0.00    +0.000 C 
DOCKED: ATOM      4  C   UNL     1      36.438  13.287 123.051 -0.58 -0.00    +0.000 C 
DOCKED: ATOM      5  C   UNL     1      35.566  14.128 123.956 -0.53 -0.00    +0.000 C 
DOCKED: BRANCH   4   6
DOCKED: ATOM      6  C   UNL     1      36.308  11.807 123.048 -0.69 -0.00    +0.000 C 
DOCKED: ATOM      7  C   UNL     1      37.066  11.007 122.283 -0.56 -0.00    +0.000 C 
DOCKED: BRANCH   7   8
DOCKED: ATOM      8  C   UNL     1      36.947   9.534 122.275 -0.64 -0.00    +0.000 C 
DOCKED: ATOM      9  N   UNL     1      37.135   8.742 123.454 -0.62 -0.00    +0.000 N 
DOCKED: ATOM     10  O   UNL     1      36.913   7.408 123.417 -2.38 -0.00    +0.000 OA
DOCKED: ATOM     11  O   UNL     1      36.695   8.960 121.183 -2.62 -0.00    +0.000 OA
DOCKED: ATOM     12  H   UNL     1      37.426   9.170 124.293 -0.63 -0.00    +0.000 HD
DOCKED: ENDBRANCH   7   8
DOCKED: ENDBRANCH   4   6
DOCKED: ENDBRANCH   1   3
DOCKED: BRANCH   1  13
DOCKED: ATOM     13  C   UNL     1      36.948  15.845 120.755 -0.21 -0.00    +0.000 C 
DOCKED: ATOM     14  O   UNL     1      36.148  16.821 120.805 -0.22 -0.00    +0.000 OA
DOCKED: BRANCH  13  18
DOCKED: ATOM     15  C   UNL     1      37.751  13.969 116.943 -0.33 -0.00    +0.000 A 
DOCKED: ATOM     16  C   UNL     1      36.941  13.342 117.911 -0.36 -0.00    +0.000 A 
DOCKED: ATOM     17  C   UNL     1      36.688  13.955 119.140 -0.29 -0.00    +0.000 A 
DOCKED: ATOM     18  C   UNL     1      37.227  15.216 119.438 -0.21 -0.00    +0.000 A 
DOCKED: ATOM     19  C   UNL     1      38.046  15.842 118.483 -0.14 -0.00    +0.000 A 
DOCKED: ATOM     20  C   UNL     1      38.301  15.229 117.253 -0.18 -0.00    +0.000 A 
DOCKED: ATOM     21  CM  UNL     1      37.492  14.592 118.195 +0.00 -0.00    +0.000 AC
DOCKED: BRANCH  15  22
DOCKED: ATOM     22  C   UNL     1      39.263  12.594 115.442 -0.52 -0.00    +0.000 C 
DOCKED: ATOM     23  N   UNL     1      38.014  13.333 115.665 -0.44 -0.00    +0.000 N 
DOCKED: ATOM     24  C   UNL     1      37.036  13.419 114.573 -0.38 -0.00    +0.000 C 
DOCKED: ENDBRANCH  15  22
DOCKED: ENDBRANCH  13  18
DOCKED: ENDBRANCH   1  13
DOCKED: TORSDOF 6DOCKED: TER
DOCKED: ENDMDL
________________________________________________________________________________


	BEGINNING GENETIC ALGORITHM DOCKING 34 of 100
Run: 34 Seed: 955805737 177224569 [ Run 34 of 100 GA/GALS ]
Beginning LAMARCKIAN GENETIC ALGORITHM (LGA), with a maximum of 2500000 energy evaluations.

Final-Value: -14.985


	FINAL GENETIC ALGORITHM DOCKED STATE
	_______________________________________________


Detailed state:  trans 36.565 14.844 122.317 quatxyzw 0.488984 0.769694 0.203732 -0.356314 center -0.963 -0.416 0.212 ntor 6 -102.5967 8.0938 114.6177 58.1207 -130.5653 168.9528
State:	 36.565  14.844 122.317   0.523  0.824  0.218 -138.252   -102.60    8.09  114.62   58.12 -130.57  168.95

DOCKED: MODEL       34
DOCKED: USER    Run = 34
DOCKED: USER    DPF = ligand_dock.biased.dpf
DOCKED: USER  
DOCKED: USER    Estimated Free Energy of Binding    =  -11.77 kcal/mol  [=(1)+(2)+(3)-(4)]
DOCKED: USER    Estimated Inhibition Constant, Ki   =    2.37 nM (nanomolar)  [Temperature = 298.15 K]
DOCKED: USER    
DOCKED: USER    (1) Final Intermolecular Energy     =  -13.56 kcal/mol
DOCKED: USER        vdW + Hbond + desolv Energy     =  -13.56 kcal/mol
DOCKED: USER        Electrostatic Energy            =   +0.00 kcal/mol
DOCKED: USER    (2) Final Total Internal Energy     =   -1.43 kcal/mol
DOCKED: USER    (3) Torsional Free Energy           =   +1.79 kcal/mol
DOCKED: USER    (4) Unbound System's Energy  [=(2)] =   -1.43 kcal/mol
DOCKED: USER    
DOCKED: USER    
DOCKED: USER    NEWDPF move ligand.dum.pdbqt
DOCKED: USER    NEWDPF about -0.963000 -0.416000 0.212000
DOCKED: USER    NEWDPF tran0 36.564773 14.844141 122.317405
DOCKED: USER    NEWDPF quaternion0 0.488984 0.769694 0.203732 -0.356314
DOCKED: USER    NEWDPF axisangle0 0.523332 0.823760 0.218043 -138.252001
DOCKED: USER    NEWDPF quat0 0.523332 0.823760 0.218043 -138.252001
DOCKED: USER    NEWDPF dihe0 -102.60 8.09 114.62 58.12 -130.57 168.95 
DOCKED: USER  keepresnum = 1 
DOCKED: USER  
DOCKED: REMARK  Name = 
DOCKED: REMARK  10 active torsions:
DOCKED: REMARK  status: ('A' for Active; 'I' for Inactive)
DOCKED: REMARK    1  A    between atoms: C_1  and  N_2
DOCKED: REMARK    2  A    between atoms: N_2  and  C_3
DOCKED: REMARK    3  A    between atoms: N_2  and  C_22
DOCKED: REMARK    4  A    between atoms: C_6  and  C_9
DOCKED: REMARK    5  A    between atoms: C_9  and  C_10
DOCKED: REMARK    6  A    between atoms: C_10  and  C_11
DOCKED: REMARK    7  A    between atoms: C_10  and  C_20
DOCKED: REMARK    8  A    between atoms: C_12  and  C_13
DOCKED: REMARK    9  A    between atoms: C_12  and  C_19
DOCKED: REMARK   10  A    between atoms: C_14  and  C_15
DOCKED: REMARK                            x       y       z     vdW  Elec       q    Type
DOCKED: REMARK                         _______ _______ _______ _____ _____    ______ ____
DOCKED: USER                              x       y       z     vdW  Elec       q    Type
DOCKED: USER                           _______ _______ _______ _____ _____    ______ ____
DOCKED: ROOT
DOCKED: ATOM      1  C   UNL     1      38.108  15.242 122.169 -0.35 -0.00    +0.000 C 
DOCKED: ATOM      2  C   UNL     1      39.597  15.537 121.976 -0.34 -0.00    +0.000 C 
DOCKED: ENDROOT
DOCKED: BRANCH   1   3
DOCKED: ATOM      3  C   UNL     1      37.892  13.754 122.359 -0.49 -0.00    +0.000 C 
DOCKED: ATOM      4  C   UNL     1      36.900  13.204 123.090 -0.59 -0.00    +0.000 C 
DOCKED: ATOM      5  C   UNL     1      35.869  14.051 123.802 -0.56 -0.00    +0.000 C 
DOCKED: BRANCH   4   6
DOCKED: ATOM      6  C   UNL     1      36.816  11.721 123.142 -0.68 -0.00    +0.000 C 
DOCKED: ATOM      7  C   UNL     1      37.058  10.938 122.081 -0.54 -0.00    +0.000 C 
DOCKED: BRANCH   7   8
DOCKED: ATOM      8  C   UNL     1      36.981   9.463 122.122 -0.64 -0.00    +0.000 C 
DOCKED: ATOM      9  N   UNL     1      36.836   8.736 123.347 -0.64 -0.00    +0.000 N 
DOCKED: ATOM     10  O   UNL     1      36.665   7.393 123.324 -2.21 -0.00    +0.000 OA
DOCKED: ATOM     11  O   UNL     1      37.072   8.828 121.038 -2.68 -0.00    +0.000 OA
DOCKED: ATOM     12  H   UNL     1      36.859   9.214 124.209 -0.53 -0.00    +0.000 HD
DOCKED: ENDBRANCH   7   8
DOCKED: ENDBRANCH   4   6
DOCKED: ENDBRANCH   1   3
DOCKED: BRANCH   1  13
DOCKED: ATOM     13  C   UNL     1      37.323  15.752 120.976 -0.23 -0.00    +0.000 C 
DOCKED: ATOM     14  O   UNL     1      36.487  16.683 121.145 -0.21 -0.00    +0.000 OA
DOCKED: BRANCH  13  18
DOCKED: ATOM     15  C   UNL     1      37.768  14.007 117.045 -0.32 -0.00    +0.000 A 
DOCKED: ATOM     16  C   UNL     1      37.045  13.349 118.060 -0.37 -0.00    +0.000 A 
DOCKED: ATOM     17  C   UNL     1      36.907  13.919 119.327 -0.31 -0.00    +0.000 A 
DOCKED: ATOM     18  C   UNL     1      37.479  15.168 119.618 -0.21 -0.00    +0.000 A 
DOCKED: ATOM     19  C   UNL     1      38.213  15.824 118.615 -0.14 -0.00    +0.000 A 
DOCKED: ATOM     20  C   UNL     1      38.352  15.254 117.347 -0.17 -0.00    +0.000 A 
DOCKED: ATOM     21  CM  UNL     1      37.628  14.587 118.336 +0.00 -0.00    +0.000 AC
DOCKED: BRANCH  15  22
DOCKED: ATOM     22  C   UNL     1      37.033  13.826 114.624 -0.36 -0.00    +0.000 C 
DOCKED: ATOM     23  N   UNL     1      37.912  13.415 115.727 -0.43 -0.00    +0.000 N 
DOCKED: ATOM     24  C   UNL     1      38.938  12.397 115.474 -0.58 -0.00    +0.000 C 
DOCKED: ENDBRANCH  15  22
DOCKED: ENDBRANCH  13  18
DOCKED: ENDBRANCH   1  13
DOCKED: TORSDOF 6DOCKED: TER
DOCKED: ENDMDL
________________________________________________________________________________


	BEGINNING GENETIC ALGORITHM DOCKING 35 of 100
Run: 35 Seed: 1103496079 1251777848 [ Run 35 of 100 GA/GALS ]
Beginning LAMARCKIAN GENETIC ALGORITHM (LGA), with a maximum of 2500000 energy evaluations.

Final-Value: -15.104


	FINAL GENETIC ALGORITHM DOCKED STATE
	_______________________________________________


Detailed state:  trans 35.966 14.919 121.590 quatxyzw -0.367779 -0.798969 -0.254477 0.402030 center -0.963 -0.416 0.212 ntor 6 -117.2362 37.1362 97.8136 31.7193 66.5721 177.4028
State:	 35.966  14.919 121.590  -0.402 -0.873 -0.278 132.590   -117.24   37.14   97.81   31.72   66.57  177.40

DOCKED: MODEL       35
DOCKED: USER    Run = 35
DOCKED: USER    DPF = ligand_dock.biased.dpf
DOCKED: USER  
DOCKED: USER    Estimated Free Energy of Binding    =  -11.93 kcal/mol  [=(1)+(2)+(3)-(4)]
DOCKED: USER    Estimated Inhibition Constant, Ki   =    1.79 nM (nanomolar)  [Temperature = 298.15 K]
DOCKED: USER    
DOCKED: USER    (1) Final Intermolecular Energy     =  -13.72 kcal/mol
DOCKED: USER        vdW + Hbond + desolv Energy     =  -13.72 kcal/mol
DOCKED: USER        Electrostatic Energy            =   +0.00 kcal/mol
DOCKED: USER    (2) Final Total Internal Energy     =   -1.38 kcal/mol
DOCKED: USER    (3) Torsional Free Energy           =   +1.79 kcal/mol
DOCKED: USER    (4) Unbound System's Energy  [=(2)] =   -1.38 kcal/mol
DOCKED: USER    
DOCKED: USER    
DOCKED: USER    NEWDPF move ligand.dum.pdbqt
DOCKED: USER    NEWDPF about -0.963000 -0.416000 0.212000
DOCKED: USER    NEWDPF tran0 35.966178 14.919050 121.590140
DOCKED: USER    NEWDPF quaternion0 -0.367779 -0.798969 -0.254477 0.402030
DOCKED: USER    NEWDPF axisangle0 -0.401670 -0.872593 -0.277926 132.589678
DOCKED: USER    NEWDPF quat0 -0.401670 -0.872593 -0.277926 132.589678
DOCKED: USER    NEWDPF dihe0 -117.24 37.14 97.81 31.72 66.57 177.40 
DOCKED: USER  keepresnum = 1 
DOCKED: USER  
DOCKED: REMARK  Name = 
DOCKED: REMARK  10 active torsions:
DOCKED: REMARK  status: ('A' for Active; 'I' for Inactive)
DOCKED: REMARK    1  A    between atoms: C_1  and  N_2
DOCKED: REMARK    2  A    between atoms: N_2  and  C_3
DOCKED: REMARK    3  A    between atoms: N_2  and  C_22
DOCKED: REMARK    4  A    between atoms: C_6  and  C_9
DOCKED: REMARK    5  A    between atoms: C_9  and  C_10
DOCKED: REMARK    6  A    between atoms: C_10  and  C_11
DOCKED: REMARK    7  A    between atoms: C_10  and  C_20
DOCKED: REMARK    8  A    between atoms: C_12  and  C_13
DOCKED: REMARK    9  A    between atoms: C_12  and  C_19
DOCKED: REMARK   10  A    between atoms: C_14  and  C_15
DOCKED: REMARK                            x       y       z     vdW  Elec       q    Type
DOCKED: REMARK                         _______ _______ _______ _____ _____    ______ ____
DOCKED: USER                              x       y       z     vdW  Elec       q    Type
DOCKED: USER                           _______ _______ _______ _____ _____    ______ ____
DOCKED: ROOT
DOCKED: ATOM      1  C   UNL     1      37.383  15.662 121.627 -0.26 -0.00    +0.000 C 
DOCKED: ATOM      2  C   UNL     1      38.780  16.289 121.619 -0.20 -0.00    +0.000 C 
DOCKED: ENDROOT
DOCKED: BRANCH   1   3
DOCKED: ATOM      3  C   UNL     1      37.482  14.174 121.905 -0.42 -0.00    +0.000 C 
DOCKED: ATOM      4  C   UNL     1      36.857  13.534 122.915 -0.55 -0.00    +0.000 C 
DOCKED: ATOM      5  C   UNL     1      35.958  14.265 123.888 -0.54 -0.00    +0.000 C 
DOCKED: BRANCH   4   6
DOCKED: ATOM      6  C   UNL     1      37.039  12.064 123.022 -0.65 -0.00    +0.000 C 
DOCKED: ATOM      7  C   UNL     1      36.760  11.217 122.019 -0.61 -0.00    +0.000 C 
DOCKED: BRANCH   7   8
DOCKED: ATOM      8  C   UNL     1      36.940   9.754 122.114 -0.62 -0.00    +0.000 C 
DOCKED: ATOM      9  N   UNL     1      37.031   9.071 123.369 -0.60 -0.00    +0.000 N 
DOCKED: ATOM     10  O   UNL     1      37.091   7.720 123.404 -2.67 -0.00    +0.000 OA
DOCKED: ATOM     11  O   UNL     1      37.041   9.093 121.046 -2.72 -0.00    +0.000 OA
DOCKED: ATOM     12  H   UNL     1      37.049   9.586 124.209 -0.58 -0.00    +0.000 HD
DOCKED: ENDBRANCH   7   8
DOCKED: ENDBRANCH   4   6
DOCKED: ENDBRANCH   1   3
DOCKED: BRANCH   1  13
DOCKED: ATOM     13  C   UNL     1      36.699  15.915 120.298 -0.19 -0.00    +0.000 C 
DOCKED: ATOM     14  O   UNL     1      35.758  16.757 120.245 -0.22 -0.00    +0.000 OA
DOCKED: BRANCH  13  18
DOCKED: ATOM     15  C   UNL     1      37.808  13.825 116.680 -0.35 -0.00    +0.000 A 
DOCKED: ATOM     16  C   UNL     1      38.470  15.004 117.075 -0.19 -0.00    +0.000 A 
DOCKED: ATOM     17  C   UNL     1      38.104  15.674 118.245 -0.15 -0.00    +0.000 A 
DOCKED: ATOM     18  C   UNL     1      37.073  15.182 119.061 -0.21 -0.00    +0.000 A 
DOCKED: ATOM     19  C   UNL     1      36.400  14.013 118.666 -0.29 -0.00    +0.000 A 
DOCKED: ATOM     20  C   UNL     1      36.764  13.343 117.495 -0.34 -0.00    +0.000 A 
DOCKED: ATOM     21  CM  UNL     1      37.436  14.507 117.870 +0.00 -0.00    +0.000 AC
DOCKED: BRANCH  15  22
DOCKED: ATOM     22  C   UNL     1      39.315  12.187 115.463 -0.49 -0.00    +0.000 C 
DOCKED: ATOM     23  N   UNL     1      38.187  13.128 115.464 -0.48 -0.00    +0.000 N 
DOCKED: ATOM     24  C   UNL     1      37.450  13.352 114.215 -0.40 -0.00    +0.000 C 
DOCKED: ENDBRANCH  15  22
DOCKED: ENDBRANCH  13  18
DOCKED: ENDBRANCH   1  13
DOCKED: TORSDOF 6DOCKED: TER
DOCKED: ENDMDL
________________________________________________________________________________


	BEGINNING GENETIC ALGORITHM DOCKING 36 of 100
Run: 36 Seed: 1686426321 33581764 [ Run 36 of 100 GA/GALS ]
Beginning LAMARCKIAN GENETIC ALGORITHM (LGA), with a maximum of 2500000 energy evaluations.

Final-Value: -15.258


	FINAL GENETIC ALGORITHM DOCKED STATE
	_______________________________________________


Detailed state:  trans 36.687 14.887 122.600 quatxyzw 0.494644 0.769553 0.201489 -0.350024 center -0.963 -0.416 0.212 ntor 6 71.8673 -8.8423 100.0931 71.4665 41.1882 171.0938
State:	 36.687  14.887 122.600   0.528  0.822  0.215 -139.022     71.87   -8.84  100.09   71.47   41.19  171.09

DOCKED: MODEL       36
DOCKED: USER    Run = 36
DOCKED: USER    DPF = ligand_dock.biased.dpf
DOCKED: USER  
DOCKED: USER    Estimated Free Energy of Binding    =  -12.03 kcal/mol  [=(1)+(2)+(3)-(4)]
DOCKED: USER    Estimated Inhibition Constant, Ki   =    1.51 nM (nanomolar)  [Temperature = 298.15 K]
DOCKED: USER    
DOCKED: USER    (1) Final Intermolecular Energy     =  -13.82 kcal/mol
DOCKED: USER        vdW + Hbond + desolv Energy     =  -13.82 kcal/mol
DOCKED: USER        Electrostatic Energy            =   +0.00 kcal/mol
DOCKED: USER    (2) Final Total Internal Energy     =   -1.43 kcal/mol
DOCKED: USER    (3) Torsional Free Energy           =   +1.79 kcal/mol
DOCKED: USER    (4) Unbound System's Energy  [=(2)] =   -1.43 kcal/mol
DOCKED: USER    
DOCKED: USER    
DOCKED: USER    NEWDPF move ligand.dum.pdbqt
DOCKED: USER    NEWDPF about -0.963000 -0.416000 0.212000
DOCKED: USER    NEWDPF tran0 36.686772 14.886915 122.599754
DOCKED: USER    NEWDPF quaternion0 0.494644 0.769553 0.201489 -0.350024
DOCKED: USER    NEWDPF axisangle0 0.528049 0.821522 0.215096 -139.022402
DOCKED: USER    NEWDPF quat0 0.528049 0.821522 0.215096 -139.022402
DOCKED: USER    NEWDPF dihe0 71.87 -8.84 100.09 71.47 41.19 171.09 
DOCKED: USER  keepresnum = 1 
DOCKED: USER  
DOCKED: REMARK  Name = 
DOCKED: REMARK  10 active torsions:
DOCKED: REMARK  status: ('A' for Active; 'I' for Inactive)
DOCKED: REMARK    1  A    between atoms: C_1  and  N_2
DOCKED: REMARK    2  A    between atoms: N_2  and  C_3
DOCKED: REMARK    3  A    between atoms: N_2  and  C_22
DOCKED: REMARK    4  A    between atoms: C_6  and  C_9
DOCKED: REMARK    5  A    between atoms: C_9  and  C_10
DOCKED: REMARK    6  A    between atoms: C_10  and  C_11
DOCKED: REMARK    7  A    between atoms: C_10  and  C_20
DOCKED: REMARK    8  A    between atoms: C_12  and  C_13
DOCKED: REMARK    9  A    between atoms: C_12  and  C_19
DOCKED: REMARK   10  A    between atoms: C_14  and  C_15
DOCKED: REMARK                            x       y       z     vdW  Elec       q    Type
DOCKED: REMARK                         _______ _______ _______ _____ _____    ______ ____
DOCKED: USER                              x       y       z     vdW  Elec       q    Type
DOCKED: USER                           _______ _______ _______ _____ _____    ______ ____
DOCKED: ROOT
DOCKED: ATOM      1  C   UNL     1      38.230  15.274 122.433 -0.36 -0.00    +0.000 C 
DOCKED: ATOM      2  C   UNL     1      39.720  15.558 122.220 -0.36 -0.00    +0.000 C 
DOCKED: ENDROOT
DOCKED: BRANCH   1   3
DOCKED: ATOM      3  C   UNL     1      38.006  13.786 122.615 -0.49 -0.00    +0.000 C 
DOCKED: ATOM      4  C   UNL     1      36.890  13.231 123.134 -0.59 -0.00    +0.000 C 
DOCKED: ATOM      5  C   UNL     1      35.716  14.072 123.586 -0.53 -0.00    +0.000 C 
DOCKED: BRANCH   4   6
DOCKED: ATOM      6  C   UNL     1      36.824  11.749 123.211 -0.68 -0.00    +0.000 C 
DOCKED: ATOM      7  C   UNL     1      37.032  10.952 122.152 -0.56 -0.00    +0.000 C 
DOCKED: BRANCH   7   8
DOCKED: ATOM      8  C   UNL     1      36.972   9.477 122.217 -0.64 -0.00    +0.000 C 
DOCKED: ATOM      9  N   UNL     1      37.235   8.751 123.423 -0.59 -0.00    +0.000 N 
DOCKED: ATOM     10  O   UNL     1      37.065   7.409 123.457 -2.47 -0.00    +0.000 OA
DOCKED: ATOM     11  O   UNL     1      36.702   8.842 121.163 -2.62 -0.00    +0.000 OA
DOCKED: ATOM     12  H   UNL     1      37.540   9.229 124.229 -0.64 -0.00    +0.000 HD
DOCKED: ENDBRANCH   7   8
DOCKED: ENDBRANCH   4   6
DOCKED: ENDBRANCH   1   3
DOCKED: BRANCH   1  13
DOCKED: ATOM     13  C   UNL     1      37.434  15.797 121.254 -0.23 -0.00    +0.000 C 
DOCKED: ATOM     14  O   UNL     1      36.638  16.762 121.432 -0.21 -0.00    +0.000 OA
DOCKED: BRANCH  13  18
DOCKED: ATOM     15  C   UNL     1      37.719  14.083 117.295 -0.31 -0.00    +0.000 A 
DOCKED: ATOM     16  C   UNL     1      38.192  15.382 117.565 -0.16 -0.00    +0.000 A 
DOCKED: ATOM     17  C   UNL     1      38.095  15.929 118.847 -0.14 -0.00    +0.000 A 
DOCKED: ATOM     18  C   UNL     1      37.531  15.192 119.900 -0.22 -0.00    +0.000 A 
DOCKED: ATOM     19  C   UNL     1      37.045  13.900 119.635 -0.32 -0.00    +0.000 A 
DOCKED: ATOM     20  C   UNL     1      37.141  13.353 118.353 -0.38 -0.00    +0.000 A 
DOCKED: ATOM     21  CM  UNL     1      37.620  14.640 118.599 +0.00 -0.00    +0.000 AC
DOCKED: BRANCH  15  22
DOCKED: ATOM     22  C   UNL     1      36.759  13.739 114.972 -0.35 -0.00    +0.000 C 
DOCKED: ATOM     23  N   UNL     1      37.820  13.514 115.963 -0.41 -0.00    +0.000 N 
DOCKED: ATOM     24  C   UNL     1      38.983  12.703 115.585 -0.58 -0.00    +0.000 C 
DOCKED: ENDBRANCH  15  22
DOCKED: ENDBRANCH  13  18
DOCKED: ENDBRANCH   1  13
DOCKED: TORSDOF 6DOCKED: TER
DOCKED: ENDMDL
________________________________________________________________________________


	BEGINNING GENETIC ALGORITHM DOCKING 37 of 100
Run: 37 Seed: 1809892924 1963772662 [ Run 37 of 100 GA/GALS ]
Beginning LAMARCKIAN GENETIC ALGORITHM (LGA), with a maximum of 2500000 energy evaluations.

Final-Value: -14.232


	FINAL GENETIC ALGORITHM DOCKED STATE
	_______________________________________________


Detailed state:  trans 38.781 14.650 121.664 quatxyzw 0.341399 0.256320 -0.395415 0.813261 center -0.963 -0.416 0.212 ntor 6 -123.3881 -58.5829 -173.6390 -144.2084 -113.1361 -39.5828
State:	 38.781  14.650 121.664   0.587  0.440 -0.680 71.168   -123.39  -58.58 -173.64 -144.21 -113.14  -39.58

DOCKED: MODEL       37
DOCKED: USER    Run = 37
DOCKED: USER    DPF = ligand_dock.biased.dpf
DOCKED: USER  
DOCKED: USER    Estimated Free Energy of Binding    =  -11.48 kcal/mol  [=(1)+(2)+(3)-(4)]
DOCKED: USER    Estimated Inhibition Constant, Ki   =    3.82 nM (nanomolar)  [Temperature = 298.15 K]
DOCKED: USER    
DOCKED: USER    (1) Final Intermolecular Energy     =  -13.27 kcal/mol
DOCKED: USER        vdW + Hbond + desolv Energy     =  -13.27 kcal/mol
DOCKED: USER        Electrostatic Energy            =   +0.00 kcal/mol
DOCKED: USER    (2) Final Total Internal Energy     =   -0.96 kcal/mol
DOCKED: USER    (3) Torsional Free Energy           =   +1.79 kcal/mol
DOCKED: USER    (4) Unbound System's Energy  [=(2)] =   -0.96 kcal/mol
DOCKED: USER    
DOCKED: USER    
DOCKED: USER    NEWDPF move ligand.dum.pdbqt
DOCKED: USER    NEWDPF about -0.963000 -0.416000 0.212000
DOCKED: USER    NEWDPF tran0 38.780955 14.649954 121.664018
DOCKED: USER    NEWDPF quaternion0 0.341399 0.256320 -0.395415 0.813261
DOCKED: USER    NEWDPF axisangle0 0.586699 0.440489 -0.679525 71.168357
DOCKED: USER    NEWDPF quat0 0.586699 0.440489 -0.679525 71.168357
DOCKED: USER    NEWDPF dihe0 -123.39 -58.58 -173.64 -144.21 -113.14 -39.58 
DOCKED: USER  keepresnum = 1 
DOCKED: USER  
DOCKED: REMARK  Name = 
DOCKED: REMARK  10 active torsions:
DOCKED: REMARK  status: ('A' for Active; 'I' for Inactive)
DOCKED: REMARK    1  A    between atoms: C_1  and  N_2
DOCKED: REMARK    2  A    between atoms: N_2  and  C_3
DOCKED: REMARK    3  A    between atoms: N_2  and  C_22
DOCKED: REMARK    4  A    between atoms: C_6  and  C_9
DOCKED: REMARK    5  A    between atoms: C_9  and  C_10
DOCKED: REMARK    6  A    between atoms: C_10  and  C_11
DOCKED: REMARK    7  A    between atoms: C_10  and  C_20
DOCKED: REMARK    8  A    between atoms: C_12  and  C_13
DOCKED: REMARK    9  A    between atoms: C_12  and  C_19
DOCKED: REMARK   10  A    between atoms: C_14  and  C_15
DOCKED: REMARK                            x       y       z     vdW  Elec       q    Type
DOCKED: REMARK                         _______ _______ _______ _____ _____    ______ ____
DOCKED: USER                              x       y       z     vdW  Elec       q    Type
DOCKED: USER                           _______ _______ _______ _____ _____    ______ ____
DOCKED: ROOT
DOCKED: ATOM      1  C   UNL     1      37.454  15.544 121.682 -0.27 -0.00    +0.000 C 
DOCKED: ATOM      2  C   UNL     1      36.146  16.335 121.768 -0.23 -0.00    +0.000 C 
DOCKED: ENDROOT
DOCKED: BRANCH   1   3
DOCKED: ATOM      3  C   UNL     1      37.176  14.061 121.834 -0.41 -0.00    +0.000 C 
DOCKED: ATOM      4  C   UNL     1      36.477  13.507 122.847 -0.52 -0.00    +0.000 C 
DOCKED: ATOM      5  C   UNL     1      35.874  14.343 123.953 -0.53 -0.00    +0.000 C 
DOCKED: BRANCH   4   6
DOCKED: ATOM      6  C   UNL     1      36.271  12.035 122.823 -0.65 -0.00    +0.000 C 
DOCKED: ATOM      7  C   UNL     1      37.172  11.179 122.318 -0.44 -0.00    +0.000 C 
DOCKED: BRANCH   7   8
DOCKED: ATOM      8  C   UNL     1      36.979   9.714 122.292 -0.62 -0.00    +0.000 C 
DOCKED: ATOM      9  N   UNL     1      37.131   8.899 123.460 -0.58 -0.00    +0.000 N 
DOCKED: ATOM     10  O   UNL     1      36.842   7.578 123.408 -2.45 -0.00    +0.000 OA
DOCKED: ATOM     11  O   UNL     1      36.694   9.167 121.193 -2.63 -0.00    +0.000 OA
DOCKED: ATOM     12  H   UNL     1      37.447   9.301 124.302 -0.64 -0.00    +0.000 HD
DOCKED: ENDBRANCH   7   8
DOCKED: ENDBRANCH   4   6
DOCKED: ENDBRANCH   1   3
DOCKED: BRANCH   1  13
DOCKED: ATOM     13  C   UNL     1      38.416  16.023 122.750 -0.30 -0.00    +0.000 C 
DOCKED: ATOM     14  O   UNL     1      37.959  16.370 123.876 -0.32 -0.00    +0.000 OA
DOCKED: BRANCH  13  18
DOCKED: ATOM     15  C   UNL     1      42.662  16.378 122.015 -0.33 -0.00    +0.000 A 
DOCKED: ATOM     16  C   UNL     1      41.793  17.470 121.825 -0.16 -0.00    +0.000 A 
DOCKED: ATOM     17  C   UNL     1      40.422  17.347 122.064 -0.15 -0.00    +0.000 A 
DOCKED: ATOM     18  C   UNL     1      39.878  16.131 122.508 -0.27 -0.00    +0.000 A 
DOCKED: ATOM     19  C   UNL     1      40.737  15.033 122.688 -0.43 -0.00    +0.000 A 
DOCKED: ATOM     20  C   UNL     1      42.109  15.156 122.448 -0.43 -0.00    +0.000 A 
DOCKED: ATOM     21  CM  UNL     1      41.267  16.253 122.258 +0.00 -0.00    +0.000 AC
DOCKED: BRANCH  15  22
DOCKED: ATOM     22  C   UNL     1      44.956  17.181 122.740 -0.33 -0.00    +0.000 C 
DOCKED: ATOM     23  N   UNL     1      44.087  16.505 121.767 -0.29 -0.00    +0.000 N 
DOCKED: ATOM     24  C   UNL     1      44.683  15.961 120.542 -0.29 +0.00    +0.000 C 
DOCKED: ENDBRANCH  15  22
DOCKED: ENDBRANCH  13  18
DOCKED: ENDBRANCH   1  13
DOCKED: TORSDOF 6DOCKED: TER
DOCKED: ENDMDL
________________________________________________________________________________


	BEGINNING GENETIC ALGORITHM DOCKING 38 of 100
Run: 38 Seed: 524817912 1230712007 [ Run 38 of 100 GA/GALS ]
Beginning LAMARCKIAN GENETIC ALGORITHM (LGA), with a maximum of 2500000 energy evaluations.

Final-Value: -14.345


	FINAL GENETIC ALGORITHM DOCKED STATE
	_______________________________________________


Detailed state:  trans 39.149 14.723 121.672 quatxyzw 0.344123 0.223660 -0.446108 0.795326 center -0.963 -0.416 0.212 ntor 6 -45.9203 -5.1691 132.9718 -138.9749 168.2633 -46.2691
State:	 39.149  14.723 121.672   0.568  0.369 -0.736 74.628    -45.92   -5.17  132.97 -138.97  168.26  -46.27

DOCKED: MODEL       38
DOCKED: USER    Run = 38
DOCKED: USER    DPF = ligand_dock.biased.dpf
DOCKED: USER  
DOCKED: USER    Estimated Free Energy of Binding    =  -11.66 kcal/mol  [=(1)+(2)+(3)-(4)]
DOCKED: USER    Estimated Inhibition Constant, Ki   =    2.83 nM (nanomolar)  [Temperature = 298.15 K]
DOCKED: USER    
DOCKED: USER    (1) Final Intermolecular Energy     =  -13.45 kcal/mol
DOCKED: USER        vdW + Hbond + desolv Energy     =  -13.45 kcal/mol
DOCKED: USER        Electrostatic Energy            =   +0.00 kcal/mol
DOCKED: USER    (2) Final Total Internal Energy     =   -0.89 kcal/mol
DOCKED: USER    (3) Torsional Free Energy           =   +1.79 kcal/mol
DOCKED: USER    (4) Unbound System's Energy  [=(2)] =   -0.89 kcal/mol
DOCKED: USER    
DOCKED: USER    
DOCKED: USER    NEWDPF move ligand.dum.pdbqt
DOCKED: USER    NEWDPF about -0.963000 -0.416000 0.212000
DOCKED: USER    NEWDPF tran0 39.148830 14.723223 121.672365
DOCKED: USER    NEWDPF quaternion0 0.344123 0.223660 -0.446108 0.795326
DOCKED: USER    NEWDPF axisangle0 0.567689 0.368965 -0.735931 74.627947
DOCKED: USER    NEWDPF quat0 0.567689 0.368965 -0.735931 74.627947
DOCKED: USER    NEWDPF dihe0 -45.92 -5.17 132.97 -138.97 168.26 -46.27 
DOCKED: USER  keepresnum = 1 
DOCKED: USER  
DOCKED: REMARK  Name = 
DOCKED: REMARK  10 active torsions:
DOCKED: REMARK  status: ('A' for Active; 'I' for Inactive)
DOCKED: REMARK    1  A    between atoms: C_1  and  N_2
DOCKED: REMARK    2  A    between atoms: N_2  and  C_3
DOCKED: REMARK    3  A    between atoms: N_2  and  C_22
DOCKED: REMARK    4  A    between atoms: C_6  and  C_9
DOCKED: REMARK    5  A    between atoms: C_9  and  C_10
DOCKED: REMARK    6  A    between atoms: C_10  and  C_11
DOCKED: REMARK    7  A    between atoms: C_10  and  C_20
DOCKED: REMARK    8  A    between atoms: C_12  and  C_13
DOCKED: REMARK    9  A    between atoms: C_12  and  C_19
DOCKED: REMARK   10  A    between atoms: C_14  and  C_15
DOCKED: REMARK                            x       y       z     vdW  Elec       q    Type
DOCKED: REMARK                         _______ _______ _______ _____ _____    ______ ____
DOCKED: USER                              x       y       z     vdW  Elec       q    Type
DOCKED: USER                           _______ _______ _______ _____ _____    ______ ____
DOCKED: ROOT
DOCKED: ATOM      1  C   UNL     1      37.763  15.521 121.736 -0.28 -0.00    +0.000 C 
DOCKED: ATOM      2  C   UNL     1      36.409  16.222 121.873 -0.25 -0.00    +0.000 C 
DOCKED: ENDROOT
DOCKED: BRANCH   1   3
DOCKED: ATOM      3  C   UNL     1      37.610  14.037 122.007 -0.45 -0.00    +0.000 C 
DOCKED: ATOM      4  C   UNL     1      36.944  13.508 123.055 -0.56 -0.00    +0.000 C 
DOCKED: ATOM      5  C   UNL     1      36.254  14.376 124.083 -0.42 -0.00    +0.000 C 
DOCKED: BRANCH   4   6
DOCKED: ATOM      6  C   UNL     1      36.864  12.027 123.150 -0.67 -0.00    +0.000 C 
DOCKED: ATOM      7  C   UNL     1      37.050  11.216 122.097 -0.56 -0.00    +0.000 C 
DOCKED: BRANCH   7   8
DOCKED: ATOM      8  C   UNL     1      36.977   9.743 122.181 -0.61 -0.00    +0.000 C 
DOCKED: ATOM      9  N   UNL     1      37.174   9.033 123.409 -0.55 -0.00    +0.000 N 
DOCKED: ATOM     10  O   UNL     1      36.994   7.692 123.454 -2.64 -0.00    +0.000 OA
DOCKED: ATOM     11  O   UNL     1      36.756   9.093 121.124 -2.63 -0.00    +0.000 OA
DOCKED: ATOM     12  H   UNL     1      37.442   9.521 124.222 -0.64 -0.00    +0.000 HD
DOCKED: ENDBRANCH   7   8
DOCKED: ENDBRANCH   4   6
DOCKED: ENDBRANCH   1   3
DOCKED: BRANCH   1  13
DOCKED: ATOM     13  C   UNL     1      38.763  16.141 122.692 -0.29 -0.00    +0.000 C 
DOCKED: ATOM     14  O   UNL     1      38.345  16.649 123.770 -0.31 -0.00    +0.000 OA
DOCKED: BRANCH  13  18
DOCKED: ATOM     15  C   UNL     1      42.983  16.289 121.767 -0.31 -0.00    +0.000 A 
DOCKED: ATOM     16  C   UNL     1      42.027  15.997 120.775 -0.21 -0.00    +0.000 A 
DOCKED: ATOM     17  C   UNL     1      40.666  15.950 121.082 -0.22 -0.00    +0.000 A 
DOCKED: ATOM     18  C   UNL     1      40.216  16.202 122.388 -0.28 -0.00    +0.000 A 
DOCKED: ATOM     19  C   UNL     1      41.165  16.482 123.386 -0.28 -0.00    +0.000 A 
DOCKED: ATOM     20  C   UNL     1      42.528  16.528 123.080 -0.39 -0.00    +0.000 A 
DOCKED: ATOM     21  CM  UNL     1      41.597  16.241 122.079 +0.00 -0.00    +0.000 AC
DOCKED: BRANCH  15  22
DOCKED: ATOM     22  C   UNL     1      45.320  17.146 122.260 -0.32 -0.00    +0.000 C 
DOCKED: ATOM     23  N   UNL     1      44.399  16.339 121.449 -0.27 -0.00    +0.000 N 
DOCKED: ATOM     24  C   UNL     1      44.934  15.584 120.310 -0.32 +0.00    +0.000 C 
DOCKED: ENDBRANCH  15  22
DOCKED: ENDBRANCH  13  18
DOCKED: ENDBRANCH   1  13
DOCKED: TORSDOF 6DOCKED: TER
DOCKED: ENDMDL
________________________________________________________________________________


	BEGINNING GENETIC ALGORITHM DOCKING 39 of 100
Run: 39 Seed: 1344301890 2016647228 [ Run 39 of 100 GA/GALS ]
Beginning LAMARCKIAN GENETIC ALGORITHM (LGA), with a maximum of 2500000 energy evaluations.

Final-Value: -14.511


	FINAL GENETIC ALGORITHM DOCKED STATE
	_______________________________________________


Detailed state:  trans 35.710 14.870 121.605 quatxyzw -0.300870 -0.752828 -0.381900 0.443710 center -0.963 -0.416 0.212 ntor 6 -22.2987 69.2589 68.9688 20.0547 51.4659 -174.7502
State:	 35.710  14.870 121.605  -0.336 -0.840 -0.426 127.318    -22.30   69.26   68.97   20.05   51.47 -174.75

DOCKED: MODEL       39
DOCKED: USER    Run = 39
DOCKED: USER    DPF = ligand_dock.biased.dpf
DOCKED: USER  
DOCKED: USER    Estimated Free Energy of Binding    =  -11.42 kcal/mol  [=(1)+(2)+(3)-(4)]
DOCKED: USER    Estimated Inhibition Constant, Ki   =    4.23 nM (nanomolar)  [Temperature = 298.15 K]
DOCKED: USER    
DOCKED: USER    (1) Final Intermolecular Energy     =  -13.21 kcal/mol
DOCKED: USER        vdW + Hbond + desolv Energy     =  -13.21 kcal/mol
DOCKED: USER        Electrostatic Energy            =   +0.00 kcal/mol
DOCKED: USER    (2) Final Total Internal Energy     =   -1.30 kcal/mol
DOCKED: USER    (3) Torsional Free Energy           =   +1.79 kcal/mol
DOCKED: USER    (4) Unbound System's Energy  [=(2)] =   -1.30 kcal/mol
DOCKED: USER    
DOCKED: USER    
DOCKED: USER    NEWDPF move ligand.dum.pdbqt
DOCKED: USER    NEWDPF about -0.963000 -0.416000 0.212000
DOCKED: USER    NEWDPF tran0 35.710167 14.869804 121.604726
DOCKED: USER    NEWDPF quaternion0 -0.300870 -0.752828 -0.381900 0.443710
DOCKED: USER    NEWDPF axisangle0 -0.335729 -0.840051 -0.426147 127.318269
DOCKED: USER    NEWDPF quat0 -0.335729 -0.840051 -0.426147 127.318269
DOCKED: USER    NEWDPF dihe0 -22.30 69.26 68.97 20.05 51.47 -174.75 
DOCKED: USER  keepresnum = 1 
DOCKED: USER  
DOCKED: REMARK  Name = 
DOCKED: REMARK  10 active torsions:
DOCKED: REMARK  status: ('A' for Active; 'I' for Inactive)
DOCKED: REMARK    1  A    between atoms: C_1  and  N_2
DOCKED: REMARK    2  A    between atoms: N_2  and  C_3
DOCKED: REMARK    3  A    between atoms: N_2  and  C_22
DOCKED: REMARK    4  A    between atoms: C_6  and  C_9
DOCKED: REMARK    5  A    between atoms: C_9  and  C_10
DOCKED: REMARK    6  A    between atoms: C_10  and  C_11
DOCKED: REMARK    7  A    between atoms: C_10  and  C_20
DOCKED: REMARK    8  A    between atoms: C_12  and  C_13
DOCKED: REMARK    9  A    between atoms: C_12  and  C_19
DOCKED: REMARK   10  A    between atoms: C_14  and  C_15
DOCKED: REMARK                            x       y       z     vdW  Elec       q    Type
DOCKED: REMARK                         _______ _______ _______ _____ _____    ______ ____
DOCKED: USER                              x       y       z     vdW  Elec       q    Type
DOCKED: USER                           _______ _______ _______ _____ _____    ______ ____
DOCKED: ROOT
DOCKED: ATOM      1  C   UNL     1      36.939  15.783 122.071 -0.28 -0.00    +0.000 C 
DOCKED: ATOM      2  C   UNL     1      38.177  16.587 122.476 -0.23 -0.00    +0.000 C 
DOCKED: ENDROOT
DOCKED: BRANCH   1   3
DOCKED: ATOM      3  C   UNL     1      37.225  14.298 122.179 -0.42 -0.00    +0.000 C 
DOCKED: ATOM      4  C   UNL     1      36.664  13.467 123.084 -0.57 -0.00    +0.000 C 
DOCKED: ATOM      5  C   UNL     1      35.655  13.956 124.099 -0.46 -0.00    +0.000 C 
DOCKED: BRANCH   4   6
DOCKED: ATOM      6  C   UNL     1      37.034  12.029 123.028 -0.65 -0.00    +0.000 C 
DOCKED: ATOM      7  C   UNL     1      36.431  11.150 122.213 -0.64 -0.00    +0.000 C 
DOCKED: BRANCH   7   8
DOCKED: ATOM      8  C   UNL     1      36.793   9.719 122.147 -0.66 -0.00    +0.000 C 
DOCKED: ATOM      9  N   UNL     1      36.871   8.893 123.314 -0.63 -0.00    +0.000 N 
DOCKED: ATOM     10  O   UNL     1      37.105   7.565 123.191 -2.46 -0.00    +0.000 OA
DOCKED: ATOM     11  O   UNL     1      37.064   9.222 121.022 -2.73 -0.00    +0.000 OA
DOCKED: ATOM     12  H   UNL     1      36.755   9.291 124.208 -0.50 -0.00    +0.000 HD
DOCKED: ENDBRANCH   7   8
DOCKED: ENDBRANCH   4   6
DOCKED: ENDBRANCH   1   3
DOCKED: BRANCH   1  13
DOCKED: ATOM     13  C   UNL     1      36.527  16.149 120.659 -0.17 -0.00    +0.000 C 
DOCKED: ATOM     14  O   UNL     1      35.585  16.972 120.489 -0.23 -0.00    +0.000 OA
DOCKED: BRANCH  13  18
DOCKED: ATOM     15  C   UNL     1      38.413  14.440 117.164 -0.19 -0.00    +0.000 A 
DOCKED: ATOM     16  C   UNL     1      38.732  15.739 117.605 -0.14 -0.00    +0.000 A 
DOCKED: ATOM     17  C   UNL     1      38.117  16.284 118.734 -0.11 -0.00    +0.000 A 
DOCKED: ATOM     18  C   UNL     1      37.172  15.545 119.464 -0.18 -0.00    +0.000 A 
DOCKED: ATOM     19  C   UNL     1      36.840  14.252 119.022 -0.29 -0.00    +0.000 A 
DOCKED: ATOM     20  C   UNL     1      37.454  13.707 117.892 -0.35 -0.00    +0.000 A 
DOCKED: ATOM     21  CM  UNL     1      37.788  14.995 118.313 +0.00 -0.00    +0.000 AC
DOCKED: BRANCH  15  22
DOCKED: ATOM     22  C   UNL     1      38.743  12.502 115.560 -0.55 -0.00    +0.000 C 
DOCKED: ATOM     23  N   UNL     1      39.053  13.872 115.990 -0.39 -0.00    +0.000 N 
DOCKED: ATOM     24  C   UNL     1      40.019  14.657 115.214 -0.35 -0.00    +0.000 C 
DOCKED: ENDBRANCH  15  22
DOCKED: ENDBRANCH  13  18
DOCKED: ENDBRANCH   1  13
DOCKED: TORSDOF 6DOCKED: TER
DOCKED: ENDMDL
________________________________________________________________________________


	BEGINNING GENETIC ALGORITHM DOCKING 40 of 100
Run: 40 Seed: 440762447 1522344202 [ Run 40 of 100 GA/GALS ]
Beginning LAMARCKIAN GENETIC ALGORITHM (LGA), with a maximum of 2500000 energy evaluations.

Final-Value: -14.305


	FINAL GENETIC ALGORITHM DOCKED STATE
	_______________________________________________


Detailed state:  trans 38.721 15.055 121.655 quatxyzw 0.182647 0.219239 -0.485963 0.826084 center -0.963 -0.416 0.212 ntor 6 -26.2089 -180.0000 -177.0614 7.4813 -30.6313 -61.7350
State:	 38.721  15.055 121.655   0.324  0.389 -0.862 68.603    -26.21 -180.00 -177.06    7.48  -30.63  -61.73

DOCKED: MODEL       40
DOCKED: USER    Run = 40
DOCKED: USER    DPF = ligand_dock.biased.dpf
DOCKED: USER  
DOCKED: USER    Estimated Free Energy of Binding    =  -11.33 kcal/mol  [=(1)+(2)+(3)-(4)]
DOCKED: USER    Estimated Inhibition Constant, Ki   =    5.00 nM (nanomolar)  [Temperature = 298.15 K]
DOCKED: USER    
DOCKED: USER    (1) Final Intermolecular Energy     =  -13.11 kcal/mol
DOCKED: USER        vdW + Hbond + desolv Energy     =  -13.11 kcal/mol
DOCKED: USER        Electrostatic Energy            =   +0.00 kcal/mol
DOCKED: USER    (2) Final Total Internal Energy     =   -1.19 kcal/mol
DOCKED: USER    (3) Torsional Free Energy           =   +1.79 kcal/mol
DOCKED: USER    (4) Unbound System's Energy  [=(2)] =   -1.19 kcal/mol
DOCKED: USER    
DOCKED: USER    
DOCKED: USER    NEWDPF move ligand.dum.pdbqt
DOCKED: USER    NEWDPF about -0.963000 -0.416000 0.212000
DOCKED: USER    NEWDPF tran0 38.721331 15.055290 121.654558
DOCKED: USER    NEWDPF quaternion0 0.182647 0.219239 -0.485963 0.826084
DOCKED: USER    NEWDPF axisangle0 0.324102 0.389034 -0.862329 68.602959
DOCKED: USER    NEWDPF quat0 0.324102 0.389034 -0.862329 68.602959
DOCKED: USER    NEWDPF dihe0 -26.21 -180.00 -177.06 7.48 -30.63 -61.73 
DOCKED: USER  keepresnum = 1 
DOCKED: USER  
DOCKED: REMARK  Name = 
DOCKED: REMARK  10 active torsions:
DOCKED: REMARK  status: ('A' for Active; 'I' for Inactive)
DOCKED: REMARK    1  A    between atoms: C_1  and  N_2
DOCKED: REMARK    2  A    between atoms: N_2  and  C_3
DOCKED: REMARK    3  A    between atoms: N_2  and  C_22
DOCKED: REMARK    4  A    between atoms: C_6  and  C_9
DOCKED: REMARK    5  A    between atoms: C_9  and  C_10
DOCKED: REMARK    6  A    between atoms: C_10  and  C_11
DOCKED: REMARK    7  A    between atoms: C_10  and  C_20
DOCKED: REMARK    8  A    between atoms: C_12  and  C_13
DOCKED: REMARK    9  A    between atoms: C_12  and  C_19
DOCKED: REMARK   10  A    between atoms: C_14  and  C_15
DOCKED: REMARK                            x       y       z     vdW  Elec       q    Type
DOCKED: REMARK                         _______ _______ _______ _____ _____    ______ ____
DOCKED: USER                              x       y       z     vdW  Elec       q    Type
DOCKED: USER                           _______ _______ _______ _____ _____    ______ ____
DOCKED: ROOT
DOCKED: ATOM      1  C   UNL     1      37.318  15.629 122.168 -0.30 -0.00    +0.000 C 
DOCKED: ATOM      2  C   UNL     1      35.970  16.097 122.721 -0.34 -0.00    +0.000 C 
DOCKED: ENDROOT
DOCKED: BRANCH   1   3
DOCKED: ATOM      3  C   UNL     1      37.341  14.117 122.062 -0.43 -0.00    +0.000 C 
DOCKED: ATOM      4  C   UNL     1      37.123  13.419 120.928 -0.42 -0.00    +0.000 C 
DOCKED: ATOM      5  C   UNL     1      36.840  14.105 119.610 -0.26 -0.00    +0.000 C 
DOCKED: BRANCH   4   6
DOCKED: ATOM      6  C   UNL     1      37.216  11.937 120.997 -0.52 -0.00    +0.000 C 
DOCKED: ATOM      7  C   UNL     1      36.932  11.238 122.106 -0.58 -0.00    +0.000 C 
DOCKED: BRANCH   7   8
DOCKED: ATOM      8  C   UNL     1      37.018   9.765 122.185 -0.60 -0.00    +0.000 C 
DOCKED: ATOM      9  N   UNL     1      37.075   9.065 123.433 -0.58 -0.00    +0.000 N 
DOCKED: ATOM     10  O   UNL     1      37.047   7.712 123.454 -2.68 -0.00    +0.000 OA
DOCKED: ATOM     11  O   UNL     1      37.065   9.110 121.110 -2.73 -0.00    +0.000 OA
DOCKED: ATOM     12  H   UNL     1      37.134   9.569 124.277 -0.57 -0.00    +0.000 HD
DOCKED: ENDBRANCH   7   8
DOCKED: ENDBRANCH   4   6
DOCKED: ENDBRANCH   1   3
DOCKED: BRANCH   1  13
DOCKED: ATOM     13  C   UNL     1      38.439  16.122 123.062 -0.30 -0.00    +0.000 C 
DOCKED: ATOM     14  O   UNL     1      38.156  16.575 124.206 -0.24 -0.00    +0.000 OA
DOCKED: BRANCH  13  18
DOCKED: ATOM     15  C   UNL     1      42.580  16.163 121.820 -0.32 -0.00    +0.000 A 
DOCKED: ATOM     16  C   UNL     1      42.183  16.703 123.059 -0.38 -0.00    +0.000 A 
DOCKED: ATOM     17  C   UNL     1      40.843  16.687 123.452 -0.26 -0.00    +0.000 A 
DOCKED: ATOM     18  C   UNL     1      39.860  16.122 122.624 -0.28 -0.00    +0.000 A 
DOCKED: ATOM     19  C   UNL     1      40.247  15.592 121.381 -0.26 -0.00    +0.000 A 
DOCKED: ATOM     20  C   UNL     1      41.587  15.609 120.987 -0.15 -0.00    +0.000 A 
DOCKED: ATOM     21  CM  UNL     1      41.217  16.147 122.221 +0.00 -0.00    +0.000 AC
DOCKED: BRANCH  15  22
DOCKED: ATOM     22  C   UNL     1      44.397  15.504 120.177 -0.31 +0.00    +0.000 C 
DOCKED: ATOM     23  N   UNL     1      43.974  16.179 121.411 -0.28 -0.00    +0.000 N 
DOCKED: ATOM     24  C   UNL     1      44.982  16.869 122.224 -0.30 -0.00    +0.000 C 
DOCKED: ENDBRANCH  15  22
DOCKED: ENDBRANCH  13  18
DOCKED: ENDBRANCH   1  13
DOCKED: TORSDOF 6DOCKED: TER
DOCKED: ENDMDL
________________________________________________________________________________


	BEGINNING GENETIC ALGORITHM DOCKING 41 of 100
Run: 41 Seed: 571890491 1206811276 [ Run 41 of 100 GA/GALS ]
Beginning LAMARCKIAN GENETIC ALGORITHM (LGA), with a maximum of 2500000 energy evaluations.

Final-Value: -14.390


	FINAL GENETIC ALGORITHM DOCKED STATE
	_______________________________________________


Detailed state:  trans 38.424 15.190 121.595 quatxyzw -0.086062 -0.105712 0.522413 -0.841726 center -0.963 -0.416 0.212 ntor 6 144.6221 174.1969 -180.0000 32.9154 5.9112 -70.8165
State:	 38.424  15.190 121.595  -0.159 -0.196  0.968 -65.354    144.62  174.20 -180.00   32.92    5.91  -70.82

DOCKED: MODEL       41
DOCKED: USER    Run = 41
DOCKED: USER    DPF = ligand_dock.biased.dpf
DOCKED: USER  
DOCKED: USER    Estimated Free Energy of Binding    =  -11.29 kcal/mol  [=(1)+(2)+(3)-(4)]
DOCKED: USER    Estimated Inhibition Constant, Ki   =    5.26 nM (nanomolar)  [Temperature = 298.15 K]
DOCKED: USER    
DOCKED: USER    (1) Final Intermolecular Energy     =  -13.08 kcal/mol
DOCKED: USER        vdW + Hbond + desolv Energy     =  -13.08 kcal/mol
DOCKED: USER        Electrostatic Energy            =   +0.00 kcal/mol
DOCKED: USER    (2) Final Total Internal Energy     =   -1.31 kcal/mol
DOCKED: USER    (3) Torsional Free Energy           =   +1.79 kcal/mol
DOCKED: USER    (4) Unbound System's Energy  [=(2)] =   -1.31 kcal/mol
DOCKED: USER    
DOCKED: USER    
DOCKED: USER    NEWDPF move ligand.dum.pdbqt
DOCKED: USER    NEWDPF about -0.963000 -0.416000 0.212000
DOCKED: USER    NEWDPF tran0 38.424369 15.190283 121.594593
DOCKED: USER    NEWDPF quaternion0 -0.086062 -0.105712 0.522413 -0.841726
DOCKED: USER    NEWDPF axisangle0 -0.159403 -0.195797 0.967602 -65.354293
DOCKED: USER    NEWDPF quat0 -0.159403 -0.195797 0.967602 -65.354293
DOCKED: USER    NEWDPF dihe0 144.62 174.20 -180.00 32.92 5.91 -70.82 
DOCKED: USER  keepresnum = 1 
DOCKED: USER  
DOCKED: REMARK  Name = 
DOCKED: REMARK  10 active torsions:
DOCKED: REMARK  status: ('A' for Active; 'I' for Inactive)
DOCKED: REMARK    1  A    between atoms: C_1  and  N_2
DOCKED: REMARK    2  A    between atoms: N_2  and  C_3
DOCKED: REMARK    3  A    between atoms: N_2  and  C_22
DOCKED: REMARK    4  A    between atoms: C_6  and  C_9
DOCKED: REMARK    5  A    between atoms: C_9  and  C_10
DOCKED: REMARK    6  A    between atoms: C_10  and  C_11
DOCKED: REMARK    7  A    between atoms: C_10  and  C_20
DOCKED: REMARK    8  A    between atoms: C_12  and  C_13
DOCKED: REMARK    9  A    between atoms: C_12  and  C_19
DOCKED: REMARK   10  A    between atoms: C_14  and  C_15
DOCKED: REMARK                            x       y       z     vdW  Elec       q    Type
DOCKED: REMARK                         _______ _______ _______ _____ _____    ______ ____
DOCKED: USER                              x       y       z     vdW  Elec       q    Type
DOCKED: USER                           _______ _______ _______ _____ _____    ______ ____
DOCKED: ROOT
DOCKED: ATOM      1  C   UNL     1      37.218  15.675 122.527 -0.33 -0.00    +0.000 C 
DOCKED: ATOM      2  C   UNL     1      36.078  16.055 123.476 -0.40 -0.00    +0.000 C 
DOCKED: ENDROOT
DOCKED: BRANCH   1   3
DOCKED: ATOM      3  C   UNL     1      37.267  14.170 122.351 -0.45 -0.00    +0.000 C 
DOCKED: ATOM      4  C   UNL     1      37.215  13.529 121.164 -0.42 -0.00    +0.000 C 
DOCKED: ATOM      5  C   UNL     1      37.111  14.280 119.855 -0.32 -0.00    +0.000 C 
DOCKED: BRANCH   4   6
DOCKED: ATOM      6  C   UNL     1      37.309  12.046 121.172 -0.52 -0.00    +0.000 C 
DOCKED: ATOM      7  C   UNL     1      36.933  11.295 122.218 -0.59 -0.00    +0.000 C 
DOCKED: BRANCH   7   8
DOCKED: ATOM      8  C   UNL     1      37.019   9.820 122.235 -0.59 -0.00    +0.000 C 
DOCKED: ATOM      9  N   UNL     1      37.093   9.070 123.453 -0.57 -0.00    +0.000 N 
DOCKED: ATOM     10  O   UNL     1      37.065   7.717 123.419 -2.68 -0.00    +0.000 OA
DOCKED: ATOM     11  O   UNL     1      37.053   9.210 121.134 -2.73 -0.00    +0.000 OA
DOCKED: ATOM     12  H   UNL     1      37.163   9.539 124.316 -0.57 -0.00    +0.000 HD
DOCKED: ENDBRANCH   7   8
DOCKED: ENDBRANCH   4   6
DOCKED: ENDBRANCH   1   3
DOCKED: BRANCH   1  13
DOCKED: ATOM     13  C   UNL     1      38.534  16.196 123.069 -0.29 -0.00    +0.000 C 
DOCKED: ATOM     14  O   UNL     1      38.552  16.756 124.201 -0.27 -0.00    +0.000 OA
DOCKED: BRANCH  13  18
DOCKED: ATOM     15  C   UNL     1      42.246  15.936 120.868 -0.22 -0.00    +0.000 A 
DOCKED: ATOM     16  C   UNL     1      42.224  15.866 122.275 -0.40 -0.00    +0.000 A 
DOCKED: ATOM     17  C   UNL     1      41.020  15.952 122.978 -0.35 -0.00    +0.000 A 
DOCKED: ATOM     18  C   UNL     1      39.801  16.101 122.298 -0.26 -0.00    +0.000 A 
DOCKED: ATOM     19  C   UNL     1      39.817  16.185 120.895 -0.17 -0.00    +0.000 A 
DOCKED: ATOM     20  C   UNL     1      41.021  16.101 120.191 -0.15 -0.00    +0.000 A 
DOCKED: ATOM     21  CM  UNL     1      41.022  16.024 121.585 +0.00 -0.00    +0.000 AC
DOCKED: BRANCH  15  22
DOCKED: ATOM     22  C   UNL     1      44.782  16.005 120.830 -0.28 +0.00    +0.000 C 
DOCKED: ATOM     23  N   UNL     1      43.497  15.846 120.136 -0.24 -0.00    +0.000 N 
DOCKED: ATOM     24  C   UNL     1      43.499  15.595 118.690 -0.28 -0.00    +0.000 C 
DOCKED: ENDBRANCH  15  22
DOCKED: ENDBRANCH  13  18
DOCKED: ENDBRANCH   1  13
DOCKED: TORSDOF 6DOCKED: TER
DOCKED: ENDMDL
________________________________________________________________________________


	BEGINNING GENETIC ALGORITHM DOCKING 42 of 100
Run: 42 Seed: 2088818341 282984180 [ Run 42 of 100 GA/GALS ]
Beginning LAMARCKIAN GENETIC ALGORITHM (LGA), with a maximum of 2500000 energy evaluations.

Final-Value: -14.395


	FINAL GENETIC ALGORITHM DOCKED STATE
	_______________________________________________


Detailed state:  trans 39.489 14.622 121.871 quatxyzw -0.372125 -0.275053 0.447384 -0.765321 center -0.963 -0.416 0.212 ntor 6 -10.1788 17.3063 97.4759 -133.6138 -50.6521 -43.2265
State:	 39.489  14.622 121.871  -0.578 -0.427  0.695 -80.129    -10.18   17.31   97.48 -133.61  -50.65  -43.23

DOCKED: MODEL       42
DOCKED: USER    Run = 42
DOCKED: USER    DPF = ligand_dock.biased.dpf
DOCKED: USER  
DOCKED: USER    Estimated Free Energy of Binding    =  -11.88 kcal/mol  [=(1)+(2)+(3)-(4)]
DOCKED: USER    Estimated Inhibition Constant, Ki   =    1.95 nM (nanomolar)  [Temperature = 298.15 K]
DOCKED: USER    
DOCKED: USER    (1) Final Intermolecular Energy     =  -13.67 kcal/mol
DOCKED: USER        vdW + Hbond + desolv Energy     =  -13.67 kcal/mol
DOCKED: USER        Electrostatic Energy            =   +0.00 kcal/mol
DOCKED: USER    (2) Final Total Internal Energy     =   -0.72 kcal/mol
DOCKED: USER    (3) Torsional Free Energy           =   +1.79 kcal/mol
DOCKED: USER    (4) Unbound System's Energy  [=(2)] =   -0.72 kcal/mol
DOCKED: USER    
DOCKED: USER    
DOCKED: USER    NEWDPF move ligand.dum.pdbqt
DOCKED: USER    NEWDPF about -0.963000 -0.416000 0.212000
DOCKED: USER    NEWDPF tran0 39.489275 14.622188 121.870674
DOCKED: USER    NEWDPF quaternion0 -0.372125 -0.275053 0.447384 -0.765321
DOCKED: USER    NEWDPF axisangle0 -0.578149 -0.427333 0.695075 -80.128839
DOCKED: USER    NEWDPF quat0 -0.578149 -0.427333 0.695075 -80.128839
DOCKED: USER    NEWDPF dihe0 -10.18 17.31 97.48 -133.61 -50.65 -43.23 
DOCKED: USER  keepresnum = 1 
DOCKED: USER  
DOCKED: REMARK  Name = 
DOCKED: REMARK  10 active torsions:
DOCKED: REMARK  status: ('A' for Active; 'I' for Inactive)
DOCKED: REMARK    1  A    between atoms: C_1  and  N_2
DOCKED: REMARK    2  A    between atoms: N_2  and  C_3
DOCKED: REMARK    3  A    between atoms: N_2  and  C_22
DOCKED: REMARK    4  A    between atoms: C_6  and  C_9
DOCKED: REMARK    5  A    between atoms: C_9  and  C_10
DOCKED: REMARK    6  A    between atoms: C_10  and  C_11
DOCKED: REMARK    7  A    between atoms: C_10  and  C_20
DOCKED: REMARK    8  A    between atoms: C_12  and  C_13
DOCKED: REMARK    9  A    between atoms: C_12  and  C_19
DOCKED: REMARK   10  A    between atoms: C_14  and  C_15
DOCKED: REMARK                            x       y       z     vdW  Elec       q    Type
DOCKED: REMARK                         _______ _______ _______ _____ _____    ______ ____
DOCKED: USER                              x       y       z     vdW  Elec       q    Type
DOCKED: USER                           _______ _______ _______ _____ _____    ______ ____
DOCKED: ROOT
DOCKED: ATOM      1  C   UNL     1      38.067  15.346 121.751 -0.30 -0.00    +0.000 C 
DOCKED: ATOM      2  C   UNL     1      36.673  15.978 121.710 -0.25 -0.00    +0.000 C 
DOCKED: ENDROOT
DOCKED: BRANCH   1   3
DOCKED: ATOM      3  C   UNL     1      37.958  13.861 122.036 -0.46 -0.00    +0.000 C 
DOCKED: ATOM      4  C   UNL     1      37.122  13.308 122.940 -0.57 -0.00    +0.000 C 
DOCKED: ATOM      5  C   UNL     1      36.177  14.146 123.771 -0.54 -0.00    +0.000 C 
DOCKED: BRANCH   4   6
DOCKED: ATOM      6  C   UNL     1      37.121  11.828 123.068 -0.63 -0.00    +0.000 C 
DOCKED: ATOM      7  C   UNL     1      36.895  11.004 122.033 -0.58 -0.00    +0.000 C 
DOCKED: BRANCH   7   8
DOCKED: ATOM      8  C   UNL     1      36.895   9.531 122.148 -0.65 -0.00    +0.000 C 
DOCKED: ATOM      9  N   UNL     1      37.146   8.858 123.388 -0.60 -0.00    +0.000 N 
DOCKED: ATOM     10  O   UNL     1      37.031   7.512 123.464 -2.53 -0.00    +0.000 OA
DOCKED: ATOM     11  O   UNL     1      36.691   8.849 121.109 -2.61 -0.00    +0.000 OA
DOCKED: ATOM     12  H   UNL     1      37.401   9.376 124.186 -0.62 -0.00    +0.000 HD
DOCKED: ENDBRANCH   7   8
DOCKED: ENDBRANCH   4   6
DOCKED: ENDBRANCH   1   3
DOCKED: BRANCH   1  13
DOCKED: ATOM     13  C   UNL     1      38.913  16.034 122.804 -0.30 -0.00    +0.000 C 
DOCKED: ATOM     14  O   UNL     1      38.352  16.487 123.841 -0.32 -0.00    +0.000 OA
DOCKED: BRANCH  13  18
DOCKED: ATOM     15  C   UNL     1      43.169  16.641 122.349 -0.35 -0.00    +0.000 A 
DOCKED: ATOM     16  C   UNL     1      42.397  17.475 123.180 -0.30 -0.00    +0.000 A 
DOCKED: ATOM     17  C   UNL     1      41.022  17.273 123.321 -0.28 -0.00    +0.000 A 
DOCKED: ATOM     18  C   UNL     1      40.378  16.226 122.643 -0.30 -0.00    +0.000 A 
DOCKED: ATOM     19  C   UNL     1      41.140  15.397 121.801 -0.34 -0.00    +0.000 A 
DOCKED: ATOM     20  C   UNL     1      42.515  15.600 121.659 -0.33 -0.00    +0.000 A 
DOCKED: ATOM     21  CM  UNL     1      41.770  16.436 122.492 +0.00 -0.00    +0.000 AC
DOCKED: BRANCH  15  22
DOCKED: ATOM     22  C   UNL     1      45.357  16.131 121.170 -0.24 +0.00    +0.000 C 
DOCKED: ATOM     23  N   UNL     1      44.599  16.850 122.202 -0.32 -0.00    +0.000 N 
DOCKED: ATOM     24  C   UNL     1      45.311  17.783 123.083 -0.27 -0.00    +0.000 C 
DOCKED: ENDBRANCH  15  22
DOCKED: ENDBRANCH  13  18
DOCKED: ENDBRANCH   1  13
DOCKED: TORSDOF 6DOCKED: TER
DOCKED: ENDMDL
________________________________________________________________________________


	BEGINNING GENETIC ALGORITHM DOCKING 43 of 100
Run: 43 Seed: 925536231 1116851197 [ Run 43 of 100 GA/GALS ]
Beginning LAMARCKIAN GENETIC ALGORITHM (LGA), with a maximum of 2500000 energy evaluations.

Final-Value: -15.137


	FINAL GENETIC ALGORITHM DOCKED STATE
	_______________________________________________


Detailed state:  trans 36.501 14.868 122.681 quatxyzw 0.479708 0.786572 0.204555 -0.330669 center -0.963 -0.416 0.212 ntor 6 -84.2256 1.5432 91.6919 72.8464 -157.6136 168.8538
State:	 36.501  14.868 122.681   0.508  0.833  0.217 -141.381    -84.23    1.54   91.69   72.85 -157.61  168.85

DOCKED: MODEL       43
DOCKED: USER    Run = 43
DOCKED: USER    DPF = ligand_dock.biased.dpf
DOCKED: USER  
DOCKED: USER    Estimated Free Energy of Binding    =  -12.04 kcal/mol  [=(1)+(2)+(3)-(4)]
DOCKED: USER    Estimated Inhibition Constant, Ki   =    1.49 nM (nanomolar)  [Temperature = 298.15 K]
DOCKED: USER    
DOCKED: USER    (1) Final Intermolecular Energy     =  -13.83 kcal/mol
DOCKED: USER        vdW + Hbond + desolv Energy     =  -13.83 kcal/mol
DOCKED: USER        Electrostatic Energy            =   +0.00 kcal/mol
DOCKED: USER    (2) Final Total Internal Energy     =   -1.31 kcal/mol
DOCKED: USER    (3) Torsional Free Energy           =   +1.79 kcal/mol
DOCKED: USER    (4) Unbound System's Energy  [=(2)] =   -1.31 kcal/mol
DOCKED: USER    
DOCKED: USER    
DOCKED: USER    NEWDPF move ligand.dum.pdbqt
DOCKED: USER    NEWDPF about -0.963000 -0.416000 0.212000
DOCKED: USER    NEWDPF tran0 36.501135 14.867836 122.681374
DOCKED: USER    NEWDPF quaternion0 0.479708 0.786572 0.204555 -0.330669
DOCKED: USER    NEWDPF axisangle0 0.508302 0.833457 0.216748 -141.381280
DOCKED: USER    NEWDPF quat0 0.508302 0.833457 0.216748 -141.381280
DOCKED: USER    NEWDPF dihe0 -84.23 1.54 91.69 72.85 -157.61 168.85 
DOCKED: USER  keepresnum = 1 
DOCKED: USER  
DOCKED: REMARK  Name = 
DOCKED: REMARK  10 active torsions:
DOCKED: REMARK  status: ('A' for Active; 'I' for Inactive)
DOCKED: REMARK    1  A    between atoms: C_1  and  N_2
DOCKED: REMARK    2  A    between atoms: N_2  and  C_3
DOCKED: REMARK    3  A    between atoms: N_2  and  C_22
DOCKED: REMARK    4  A    between atoms: C_6  and  C_9
DOCKED: REMARK    5  A    between atoms: C_9  and  C_10
DOCKED: REMARK    6  A    between atoms: C_10  and  C_11
DOCKED: REMARK    7  A    between atoms: C_10  and  C_20
DOCKED: REMARK    8  A    between atoms: C_12  and  C_13
DOCKED: REMARK    9  A    between atoms: C_12  and  C_19
DOCKED: REMARK   10  A    between atoms: C_14  and  C_15
DOCKED: REMARK                            x       y       z     vdW  Elec       q    Type
DOCKED: REMARK                         _______ _______ _______ _____ _____    ______ ____
DOCKED: USER                              x       y       z     vdW  Elec       q    Type
DOCKED: USER                           _______ _______ _______ _____ _____    ______ ____
DOCKED: ROOT
DOCKED: ATOM      1  C   UNL     1      38.017  15.332 122.467 -0.35 -0.00    +0.000 C 
DOCKED: ATOM      2  C   UNL     1      39.483  15.692 122.208 -0.33 -0.00    +0.000 C 
DOCKED: ENDROOT
DOCKED: BRANCH   1   3
DOCKED: ATOM      3  C   UNL     1      37.873  13.834 122.645 -0.50 -0.00    +0.000 C 
DOCKED: ATOM      4  C   UNL     1      36.793  13.220 123.173 -0.60 -0.00    +0.000 C 
DOCKED: ATOM      5  C   UNL     1      35.581  13.995 123.638 -0.52 -0.00    +0.000 C 
DOCKED: BRANCH   4   6
DOCKED: ATOM      6  C   UNL     1      36.805  11.735 123.244 -0.68 -0.00    +0.000 C 
DOCKED: ATOM      7  C   UNL     1      36.883  10.952 122.158 -0.59 -0.00    +0.000 C 
DOCKED: BRANCH   7   8
DOCKED: ATOM      8  C   UNL     1      36.899   9.476 122.217 -0.66 -0.00    +0.000 C 
DOCKED: ATOM      9  N   UNL     1      37.169   8.759 123.427 -0.61 -0.00    +0.000 N 
DOCKED: ATOM     10  O   UNL     1      37.070   7.410 123.454 -2.47 -0.00    +0.000 OA
DOCKED: ATOM     11  O   UNL     1      36.690   8.831 121.155 -2.60 -0.00    +0.000 OA
DOCKED: ATOM     12  H   UNL     1      37.427   9.249 124.242 -0.64 -0.00    +0.000 HD
DOCKED: ENDBRANCH   7   8
DOCKED: ENDBRANCH   4   6
DOCKED: ENDBRANCH   1   3
DOCKED: BRANCH   1  13
DOCKED: ATOM     13  C   UNL     1      37.157  15.822 121.319 -0.24 -0.00    +0.000 C 
DOCKED: ATOM     14  O   UNL     1      36.291  16.715 121.539 -0.23 -0.00    +0.000 OA
DOCKED: BRANCH  13  18
DOCKED: ATOM     15  C   UNL     1      37.517  14.153 117.347 -0.31 -0.00    +0.000 A 
DOCKED: ATOM     16  C   UNL     1      37.406  13.325 118.481 -0.37 -0.00    +0.000 A 
DOCKED: ATOM     17  C   UNL     1      37.292  13.872 119.761 -0.34 -0.00    +0.000 A 
DOCKED: ATOM     18  C   UNL     1      37.274  15.263 119.947 -0.21 -0.00    +0.000 A 
DOCKED: ATOM     19  C   UNL     1      37.397  16.096 118.821 -0.14 -0.00    +0.000 A 
DOCKED: ATOM     20  C   UNL     1      37.513  15.549 117.540 -0.16 -0.00    +0.000 A 
DOCKED: ATOM     21  CM  UNL     1      37.400  14.709 118.650 +0.00 -0.00    +0.000 AC
DOCKED: BRANCH  15  22
DOCKED: ATOM     22  C   UNL     1      36.591  13.816 115.009 -0.34 -0.00    +0.000 C 
DOCKED: ATOM     23  N   UNL     1      37.635  13.585 116.016 -0.39 -0.00    +0.000 N 
DOCKED: ATOM     24  C   UNL     1      38.801  12.769 115.654 -0.56 -0.00    +0.000 C 
DOCKED: ENDBRANCH  15  22
DOCKED: ENDBRANCH  13  18
DOCKED: ENDBRANCH   1  13
DOCKED: TORSDOF 6DOCKED: TER
DOCKED: ENDMDL
________________________________________________________________________________


	BEGINNING GENETIC ALGORITHM DOCKING 44 of 100
Run: 44 Seed: 1101692856 72990871 [ Run 44 of 100 GA/GALS ]
Beginning LAMARCKIAN GENETIC ALGORITHM (LGA), with a maximum of 2500000 energy evaluations.

Final-Value: -14.403


	FINAL GENETIC ALGORITHM DOCKED STATE
	_______________________________________________


Detailed state:  trans 36.384 14.624 124.335 quatxyzw -0.428007 -0.825537 0.065880 -0.361881 center -0.963 -0.416 0.212 ntor 6 -79.0200 145.0013 153.5069 -44.0596 175.0459 28.0905
State:	 36.384  14.624 124.335  -0.459 -0.886  0.071 -137.568    -79.02  145.00  153.51  -44.06  175.05   28.09

DOCKED: MODEL       44
DOCKED: USER    Run = 44
DOCKED: USER    DPF = ligand_dock.biased.dpf
DOCKED: USER  
DOCKED: USER    Estimated Free Energy of Binding    =  -11.87 kcal/mol  [=(1)+(2)+(3)-(4)]
DOCKED: USER    Estimated Inhibition Constant, Ki   =    2.00 nM (nanomolar)  [Temperature = 298.15 K]
DOCKED: USER    
DOCKED: USER    (1) Final Intermolecular Energy     =  -13.66 kcal/mol
DOCKED: USER        vdW + Hbond + desolv Energy     =  -13.66 kcal/mol
DOCKED: USER        Electrostatic Energy            =   +0.00 kcal/mol
DOCKED: USER    (2) Final Total Internal Energy     =   -0.75 kcal/mol
DOCKED: USER    (3) Torsional Free Energy           =   +1.79 kcal/mol
DOCKED: USER    (4) Unbound System's Energy  [=(2)] =   -0.75 kcal/mol
DOCKED: USER    
DOCKED: USER    
DOCKED: USER    NEWDPF move ligand.dum.pdbqt
DOCKED: USER    NEWDPF about -0.963000 -0.416000 0.212000
DOCKED: USER    NEWDPF tran0 36.383560 14.624069 124.335347
DOCKED: USER    NEWDPF quaternion0 -0.428007 -0.825537 0.065880 -0.361881
DOCKED: USER    NEWDPF axisangle0 -0.459124 -0.885557 0.070670 -137.568421
DOCKED: USER    NEWDPF quat0 -0.459124 -0.885557 0.070670 -137.568421
DOCKED: USER    NEWDPF dihe0 -79.02 145.00 153.51 -44.06 175.05 28.09 
DOCKED: USER  keepresnum = 1 
DOCKED: USER  
DOCKED: REMARK  Name = 
DOCKED: REMARK  10 active torsions:
DOCKED: REMARK  status: ('A' for Active; 'I' for Inactive)
DOCKED: REMARK    1  A    between atoms: C_1  and  N_2
DOCKED: REMARK    2  A    between atoms: N_2  and  C_3
DOCKED: REMARK    3  A    between atoms: N_2  and  C_22
DOCKED: REMARK    4  A    between atoms: C_6  and  C_9
DOCKED: REMARK    5  A    between atoms: C_9  and  C_10
DOCKED: REMARK    6  A    between atoms: C_10  and  C_11
DOCKED: REMARK    7  A    between atoms: C_10  and  C_20
DOCKED: REMARK    8  A    between atoms: C_12  and  C_13
DOCKED: REMARK    9  A    between atoms: C_12  and  C_19
DOCKED: REMARK   10  A    between atoms: C_14  and  C_15
DOCKED: REMARK                            x       y       z     vdW  Elec       q    Type
DOCKED: REMARK                         _______ _______ _______ _____ _____    ______ ____
DOCKED: USER                              x       y       z     vdW  Elec       q    Type
DOCKED: USER                           _______ _______ _______ _____ _____    ______ ____
DOCKED: ROOT
DOCKED: ATOM      1  C   UNL     1      36.244  15.504 123.006 -0.40 -0.00    +0.000 C 
DOCKED: ATOM      2  C   UNL     1      36.060  16.267 121.692 -0.18 -0.00    +0.000 C 
DOCKED: ENDROOT
DOCKED: BRANCH   1   3
DOCKED: ATOM      3  C   UNL     1      36.463  14.030 122.725 -0.45 -0.00    +0.000 C 
DOCKED: ATOM      4  C   UNL     1      37.326  13.538 121.811 -0.46 -0.00    +0.000 C 
DOCKED: ATOM      5  C   UNL     1      38.193  14.442 120.964 -0.35 -0.00    +0.000 C 
DOCKED: BRANCH   4   6
DOCKED: ATOM      6  C   UNL     1      37.439  12.061 121.689 -0.48 -0.00    +0.000 C 
DOCKED: ATOM      7  C   UNL     1      36.725  11.209 122.440 -0.64 -0.00    +0.000 C 
DOCKED: BRANCH   7   8
DOCKED: ATOM      8  C   UNL     1      36.827   9.739 122.325 -0.66 -0.00    +0.000 C 
DOCKED: ATOM      9  N   UNL     1      37.077   8.896 123.455 -0.60 -0.00    +0.000 N 
DOCKED: ATOM     10  O   UNL     1      37.057   7.550 123.315 -2.52 -0.00    +0.000 OA
DOCKED: ATOM     11  O   UNL     1      36.713   9.219 121.183 -2.63 -0.00    +0.000 OA
DOCKED: ATOM     12  H   UNL     1      37.262   9.296 124.336 -0.58 -0.00    +0.000 HD
DOCKED: ENDBRANCH   7   8
DOCKED: ENDBRANCH   4   6
DOCKED: ENDBRANCH   1   3
DOCKED: BRANCH   1  13
DOCKED: ATOM     13  C   UNL     1      35.031  15.707 123.892 -0.54 -0.00    +0.000 C 
DOCKED: ATOM     14  O   UNL     1      34.185  14.775 123.997 -0.65 -0.00    +0.000 OA
DOCKED: BRANCH  13  18
DOCKED: ATOM     15  C   UNL     1      34.360  19.430 125.986 -0.21 -0.00    +0.000 A 
DOCKED: ATOM     16  C   UNL     1      35.195  19.368 124.853 -0.20 -0.00    +0.000 A 
DOCKED: ATOM     17  C   UNL     1      35.408  18.161 124.183 -0.27 -0.00    +0.000 A 
DOCKED: ATOM     18  C   UNL     1      34.785  16.980 124.618 -0.39 -0.00    +0.000 A 
DOCKED: ATOM     19  C   UNL     1      33.961  17.032 125.755 -0.37 -0.00    +0.000 A 
DOCKED: ATOM     20  C   UNL     1      33.749  18.239 126.427 -0.29 -0.00    +0.000 A 
DOCKED: ATOM     21  CM  UNL     1      34.577  18.202 125.304 -0.38 -0.00    +0.000 AC
DOCKED: BRANCH  15  22
DOCKED: ATOM     22  C   UNL     1      32.781  21.225 126.835 -0.19 -0.00    +0.000 C 
DOCKED: ATOM     23  N   UNL     1      34.138  20.685 126.682 -0.14 -0.00    +0.000 N 
DOCKED: ATOM     24  C   UNL     1      35.267  21.435 127.246 -0.07 -0.00    +0.000 C 
DOCKED: ENDBRANCH  15  22
DOCKED: ENDBRANCH  13  18
DOCKED: ENDBRANCH   1  13
DOCKED: TORSDOF 6DOCKED: TER
DOCKED: ENDMDL
________________________________________________________________________________


	BEGINNING GENETIC ALGORITHM DOCKING 45 of 100
Run: 45 Seed: 596183006 832085985 [ Run 45 of 100 GA/GALS ]
Beginning LAMARCKIAN GENETIC ALGORITHM (LGA), with a maximum of 2500000 energy evaluations.

Final-Value: -14.446


	FINAL GENETIC ALGORITHM DOCKED STATE
	_______________________________________________


Detailed state:  trans 38.217 15.121 121.590 quatxyzw -0.120820 -0.144978 0.522035 -0.831784 center -0.963 -0.416 0.212 ntor 6 88.0248 159.2374 165.5318 49.6933 55.1584 -67.1606
State:	 38.217  15.121 121.590  -0.218 -0.261  0.940 -67.435     88.02  159.24  165.53   49.69   55.16  -67.16

DOCKED: MODEL       45
DOCKED: USER    Run = 45
DOCKED: USER    DPF = ligand_dock.biased.dpf
DOCKED: USER  
DOCKED: USER    Estimated Free Energy of Binding    =  -11.25 kcal/mol  [=(1)+(2)+(3)-(4)]
DOCKED: USER    Estimated Inhibition Constant, Ki   =    5.68 nM (nanomolar)  [Temperature = 298.15 K]
DOCKED: USER    
DOCKED: USER    (1) Final Intermolecular Energy     =  -13.04 kcal/mol
DOCKED: USER        vdW + Hbond + desolv Energy     =  -13.04 kcal/mol
DOCKED: USER        Electrostatic Energy            =   +0.00 kcal/mol
DOCKED: USER    (2) Final Total Internal Energy     =   -1.41 kcal/mol
DOCKED: USER    (3) Torsional Free Energy           =   +1.79 kcal/mol
DOCKED: USER    (4) Unbound System's Energy  [=(2)] =   -1.41 kcal/mol
DOCKED: USER    
DOCKED: USER    
DOCKED: USER    NEWDPF move ligand.dum.pdbqt
DOCKED: USER    NEWDPF about -0.963000 -0.416000 0.212000
DOCKED: USER    NEWDPF tran0 38.217453 15.120833 121.589518
DOCKED: USER    NEWDPF quaternion0 -0.120820 -0.144978 0.522035 -0.831784
DOCKED: USER    NEWDPF axisangle0 -0.217654 -0.261174 0.940433 -67.435224
DOCKED: USER    NEWDPF quat0 -0.217654 -0.261174 0.940433 -67.435224
DOCKED: USER    NEWDPF dihe0 88.02 159.24 165.53 49.69 55.16 -67.16 
DOCKED: USER  keepresnum = 1 
DOCKED: USER  
DOCKED: REMARK  Name = 
DOCKED: REMARK  10 active torsions:
DOCKED: REMARK  status: ('A' for Active; 'I' for Inactive)
DOCKED: REMARK    1  A    between atoms: C_1  and  N_2
DOCKED: REMARK    2  A    between atoms: N_2  and  C_3
DOCKED: REMARK    3  A    between atoms: N_2  and  C_22
DOCKED: REMARK    4  A    between atoms: C_6  and  C_9
DOCKED: REMARK    5  A    between atoms: C_9  and  C_10
DOCKED: REMARK    6  A    between atoms: C_10  and  C_11
DOCKED: REMARK    7  A    between atoms: C_10  and  C_20
DOCKED: REMARK    8  A    between atoms: C_12  and  C_13
DOCKED: REMARK    9  A    between atoms: C_12  and  C_19
DOCKED: REMARK   10  A    between atoms: C_14  and  C_15
DOCKED: REMARK                            x       y       z     vdW  Elec       q    Type
DOCKED: REMARK                         _______ _______ _______ _____ _____    ______ ____
DOCKED: USER                              x       y       z     vdW  Elec       q    Type
DOCKED: USER                           _______ _______ _______ _____ _____    ______ ____
DOCKED: ROOT
DOCKED: ATOM      1  C   UNL     1      36.916  15.610 122.382 -0.33 -0.00    +0.000 C 
DOCKED: ATOM      2  C   UNL     1      35.681  15.997 123.199 -0.41 -0.00    +0.000 C 
DOCKED: ENDROOT
DOCKED: BRANCH   1   3
DOCKED: ATOM      3  C   UNL     1      36.996  14.103 122.241 -0.43 -0.00    +0.000 C 
DOCKED: ATOM      4  C   UNL     1      37.390  13.451 121.126 -0.45 -0.00    +0.000 C 
DOCKED: ATOM      5  C   UNL     1      37.815  14.190 119.877 -0.34 -0.00    +0.000 C 
DOCKED: BRANCH   4   6
DOCKED: ATOM      6  C   UNL     1      37.441  11.967 121.173 -0.50 -0.00    +0.000 C 
DOCKED: ATOM      7  C   UNL     1      36.899  11.247 122.167 -0.59 -0.00    +0.000 C 
DOCKED: BRANCH   7   8
DOCKED: ATOM      8  C   UNL     1      36.941   9.772 122.221 -0.62 -0.00    +0.000 C 
DOCKED: ATOM      9  N   UNL     1      37.134   9.054 123.445 -0.56 -0.00    +0.000 N 
DOCKED: ATOM     10  O   UNL     1      37.060   7.702 123.458 -2.69 -0.00    +0.000 OA
DOCKED: ATOM     11  O   UNL     1      36.826   9.129 121.143 -2.66 -0.00    +0.000 OA
DOCKED: ATOM     12  H   UNL     1      37.320   9.544 124.279 -0.61 -0.00    +0.000 HD
DOCKED: ENDBRANCH   7   8
DOCKED: ENDBRANCH   4   6
DOCKED: ENDBRANCH   1   3
DOCKED: BRANCH   1  13
DOCKED: ATOM     13  C   UNL     1      38.164  16.155 123.047 -0.30 -0.00    +0.000 C 
DOCKED: ATOM     14  O   UNL     1      38.070  16.674 124.195 -0.27 -0.00    +0.000 OA
DOCKED: BRANCH  13  18
DOCKED: ATOM     15  C   UNL     1      42.047  16.056 121.149 -0.25 -0.00    +0.000 A 
DOCKED: ATOM     16  C   UNL     1      41.669  15.080 122.092 -0.40 -0.00    +0.000 A 
DOCKED: ATOM     17  C   UNL     1      40.413  15.120 122.702 -0.38 -0.00    +0.000 A 
DOCKED: ATOM     18  C   UNL     1      39.493  16.130 122.381 -0.25 -0.00    +0.000 A 
DOCKED: ATOM     19  C   UNL     1      39.867  17.114 121.450 -0.12 -0.00    +0.000 A 
DOCKED: ATOM     20  C   UNL     1      41.124  17.076 120.841 -0.12 -0.00    +0.000 A 
DOCKED: ATOM     21  CM  UNL     1      40.769  16.096 121.770 +0.00 -0.00    +0.000 AC
DOCKED: BRANCH  15  22
DOCKED: ATOM     22  C   UNL     1      44.565  16.339 121.278 -0.27 +0.00    +0.000 C 
DOCKED: ATOM     23  N   UNL     1      43.353  16.015 120.515 -0.25 -0.00    +0.000 N 
DOCKED: ATOM     24  C   UNL     1      43.483  15.648 119.099 -0.25 -0.00    +0.000 C 
DOCKED: ENDBRANCH  15  22
DOCKED: ENDBRANCH  13  18
DOCKED: ENDBRANCH   1  13
DOCKED: TORSDOF 6DOCKED: TER
DOCKED: ENDMDL
________________________________________________________________________________


	BEGINNING GENETIC ALGORITHM DOCKING 46 of 100
Run: 46 Seed: 1989340705 1849262859 [ Run 46 of 100 GA/GALS ]
Beginning LAMARCKIAN GENETIC ALGORITHM (LGA), with a maximum of 2500000 energy evaluations.

Final-Value: -14.645


	FINAL GENETIC ALGORITHM DOCKED STATE
	_______________________________________________


Detailed state:  trans 36.204 15.091 122.610 quatxyzw 0.404907 0.749884 0.316059 -0.416931 center -0.963 -0.416 0.212 ntor 6 160.1520 20.6041 75.0317 58.4835 49.0143 -179.9586
State:	 36.204  15.091 122.610   0.445  0.825  0.348 -130.718    160.15   20.60   75.03   58.48   49.01 -179.96

DOCKED: MODEL       46
DOCKED: USER    Run = 46
DOCKED: USER    DPF = ligand_dock.biased.dpf
DOCKED: USER  
DOCKED: USER    Estimated Free Energy of Binding    =  -11.39 kcal/mol  [=(1)+(2)+(3)-(4)]
DOCKED: USER    Estimated Inhibition Constant, Ki   =    4.44 nM (nanomolar)  [Temperature = 298.15 K]
DOCKED: USER    
DOCKED: USER    (1) Final Intermolecular Energy     =  -13.18 kcal/mol
DOCKED: USER        vdW + Hbond + desolv Energy     =  -13.18 kcal/mol
DOCKED: USER        Electrostatic Energy            =   +0.00 kcal/mol
DOCKED: USER    (2) Final Total Internal Energy     =   -1.46 kcal/mol
DOCKED: USER    (3) Torsional Free Energy           =   +1.79 kcal/mol
DOCKED: USER    (4) Unbound System's Energy  [=(2)] =   -1.46 kcal/mol
DOCKED: USER    
DOCKED: USER    
DOCKED: USER    NEWDPF move ligand.dum.pdbqt
DOCKED: USER    NEWDPF about -0.963000 -0.416000 0.212000
DOCKED: USER    NEWDPF tran0 36.204312 15.091009 122.609618
DOCKED: USER    NEWDPF quaternion0 0.404907 0.749884 0.316059 -0.416931
DOCKED: USER    NEWDPF axisangle0 0.445473 0.825011 0.347723 -130.718078
DOCKED: USER    NEWDPF quat0 0.445473 0.825011 0.347723 -130.718078
DOCKED: USER    NEWDPF dihe0 160.15 20.60 75.03 58.48 49.01 -179.96 
DOCKED: USER  keepresnum = 1 
DOCKED: USER  
DOCKED: REMARK  Name = 
DOCKED: REMARK  10 active torsions:
DOCKED: REMARK  status: ('A' for Active; 'I' for Inactive)
DOCKED: REMARK    1  A    between atoms: C_1  and  N_2
DOCKED: REMARK    2  A    between atoms: N_2  and  C_3
DOCKED: REMARK    3  A    between atoms: N_2  and  C_22
DOCKED: REMARK    4  A    between atoms: C_6  and  C_9
DOCKED: REMARK    5  A    between atoms: C_9  and  C_10
DOCKED: REMARK    6  A    between atoms: C_10  and  C_11
DOCKED: REMARK    7  A    between atoms: C_10  and  C_20
DOCKED: REMARK    8  A    between atoms: C_12  and  C_13
DOCKED: REMARK    9  A    between atoms: C_12  and  C_19
DOCKED: REMARK   10  A    between atoms: C_14  and  C_15
DOCKED: REMARK                            x       y       z     vdW  Elec       q    Type
DOCKED: REMARK                         _______ _______ _______ _____ _____    ______ ____
DOCKED: USER                              x       y       z     vdW  Elec       q    Type
DOCKED: USER                           _______ _______ _______ _____ _____    ______ ____
DOCKED: ROOT
DOCKED: ATOM      1  C   UNL     1      37.645  15.735 122.874 -0.34 -0.00    +0.000 C 
DOCKED: ATOM      2  C   UNL     1      39.064  16.273 123.076 -0.27 -0.00    +0.000 C 
DOCKED: ENDROOT
DOCKED: BRANCH   1   3
DOCKED: ATOM      3  C   UNL     1      37.648  14.221 122.942 -0.49 -0.00    +0.000 C 
DOCKED: ATOM      4  C   UNL     1      36.614  13.465 123.369 -0.59 -0.00    +0.000 C 
DOCKED: ATOM      5  C   UNL     1      35.309  14.080 123.821 -0.48 -0.00    +0.000 C 
DOCKED: BRANCH   4   6
DOCKED: ATOM      6  C   UNL     1      36.776  11.988 123.339 -0.68 -0.00    +0.000 C 
DOCKED: ATOM      7  C   UNL     1      36.660  11.262 122.217 -0.64 -0.00    +0.000 C 
DOCKED: BRANCH   7   8
DOCKED: ATOM      8  C   UNL     1      36.822   9.794 122.176 -0.65 -0.00    +0.000 C 
DOCKED: ATOM      9  N   UNL     1      37.058   9.014 123.354 -0.61 -0.00    +0.000 N 
DOCKED: ATOM     10  O   UNL     1      37.096   7.664 123.278 -2.57 -0.00    +0.000 OA
DOCKED: ATOM     11  O   UNL     1      36.774   9.218 121.057 -2.63 -0.00    +0.000 OA
DOCKED: ATOM     12  H   UNL     1      37.193   9.462 124.222 -0.60 -0.00    +0.000 HD
DOCKED: ENDBRANCH   7   8
DOCKED: ENDBRANCH   4   6
DOCKED: ENDBRANCH   1   3
DOCKED: BRANCH   1  13
DOCKED: ATOM     13  C   UNL     1      37.100  16.212 121.542 -0.22 -0.00    +0.000 C 
DOCKED: ATOM     14  O   UNL     1      36.246  17.143 121.528 -0.22 -0.00    +0.000 OA
DOCKED: BRANCH  13  18
DOCKED: ATOM     15  C   UNL     1      38.305  14.474 117.772 -0.15 -0.00    +0.000 A 
DOCKED: ATOM     16  C   UNL     1      38.788  15.731 118.185 -0.14 -0.00    +0.000 A 
DOCKED: ATOM     17  C   UNL     1      38.392  16.286 119.404 -0.12 -0.00    +0.000 A 
DOCKED: ATOM     18  C   UNL     1      37.510  15.598 120.252 -0.19 -0.00    +0.000 A 
DOCKED: ATOM     19  C   UNL     1      37.014  14.349 119.841 -0.24 -0.00    +0.000 A 
DOCKED: ATOM     20  C   UNL     1      37.408  13.794 118.621 -0.35 -0.00    +0.000 A 
DOCKED: ATOM     21  CM  UNL     1      37.903  15.039 119.013 +0.00 -0.00    +0.000 AC
DOCKED: BRANCH  15  22
DOCKED: ATOM     22  C   UNL     1      39.659  14.605 115.630 -0.38 -0.00    +0.000 C 
DOCKED: ATOM     23  N   UNL     1      38.716  13.896 116.505 -0.30 -0.00    +0.000 N 
DOCKED: ATOM     24  C   UNL     1      38.196  12.592 116.076 -0.35 -0.00    +0.000 C 
DOCKED: ENDBRANCH  15  22
DOCKED: ENDBRANCH  13  18
DOCKED: ENDBRANCH   1  13
DOCKED: TORSDOF 6DOCKED: TER
DOCKED: ENDMDL
________________________________________________________________________________


	BEGINNING GENETIC ALGORITHM DOCKING 47 of 100
Run: 47 Seed: 1961413191 557265850 [ Run 47 of 100 GA/GALS ]
Beginning LAMARCKIAN GENETIC ALGORITHM (LGA), with a maximum of 2500000 energy evaluations.

Final-Value: -14.951


	FINAL GENETIC ALGORITHM DOCKED STATE
	_______________________________________________


Detailed state:  trans 36.707 14.781 123.528 quatxyzw 0.553316 0.819325 0.148130 0.024601 center -0.963 -0.416 0.212 ntor 6 -176.6461 174.9083 179.9558 -146.3846 76.6301 -34.4504
State:	 36.707  14.781 123.528   0.553  0.820  0.148 177.181   -176.65  174.91  179.96 -146.38   76.63  -34.45

DOCKED: MODEL       47
DOCKED: USER    Run = 47
DOCKED: USER    DPF = ligand_dock.biased.dpf
DOCKED: USER  
DOCKED: USER    Estimated Free Energy of Binding    =  -12.24 kcal/mol  [=(1)+(2)+(3)-(4)]
DOCKED: USER    Estimated Inhibition Constant, Ki   =    1.06 nM (nanomolar)  [Temperature = 298.15 K]
DOCKED: USER    
DOCKED: USER    (1) Final Intermolecular Energy     =  -14.03 kcal/mol
DOCKED: USER        vdW + Hbond + desolv Energy     =  -14.03 kcal/mol
DOCKED: USER        Electrostatic Energy            =   +0.00 kcal/mol
DOCKED: USER    (2) Final Total Internal Energy     =   -0.92 kcal/mol
DOCKED: USER    (3) Torsional Free Energy           =   +1.79 kcal/mol
DOCKED: USER    (4) Unbound System's Energy  [=(2)] =   -0.92 kcal/mol
DOCKED: USER    
DOCKED: USER    
DOCKED: USER    NEWDPF move ligand.dum.pdbqt
DOCKED: USER    NEWDPF about -0.963000 -0.416000 0.212000
DOCKED: USER    NEWDPF tran0 36.706613 14.780679 123.528466
DOCKED: USER    NEWDPF quaternion0 0.553316 0.819325 0.148130 0.024601
DOCKED: USER    NEWDPF axisangle0 0.553483 0.819573 0.148175 177.180697
DOCKED: USER    NEWDPF quat0 0.553483 0.819573 0.148175 177.180697
DOCKED: USER    NEWDPF dihe0 -176.65 174.91 179.96 -146.38 76.63 -34.45 
DOCKED: USER  keepresnum = 1 
DOCKED: USER  
DOCKED: REMARK  Name = 
DOCKED: REMARK  10 active torsions:
DOCKED: REMARK  status: ('A' for Active; 'I' for Inactive)
DOCKED: REMARK    1  A    between atoms: C_1  and  N_2
DOCKED: REMARK    2  A    between atoms: N_2  and  C_3
DOCKED: REMARK    3  A    between atoms: N_2  and  C_22
DOCKED: REMARK    4  A    between atoms: C_6  and  C_9
DOCKED: REMARK    5  A    between atoms: C_9  and  C_10
DOCKED: REMARK    6  A    between atoms: C_10  and  C_11
DOCKED: REMARK    7  A    between atoms: C_10  and  C_20
DOCKED: REMARK    8  A    between atoms: C_12  and  C_13
DOCKED: REMARK    9  A    between atoms: C_12  and  C_19
DOCKED: REMARK   10  A    between atoms: C_14  and  C_15
DOCKED: REMARK                            x       y       z     vdW  Elec       q    Type
DOCKED: REMARK                         _______ _______ _______ _____ _____    ______ ____
DOCKED: USER                              x       y       z     vdW  Elec       q    Type
DOCKED: USER                           _______ _______ _______ _____ _____    ______ ____
DOCKED: ROOT
DOCKED: ATOM      1  C   UNL     1      37.788  15.460 122.564 -0.35 -0.00    +0.000 C 
DOCKED: ATOM      2  C   UNL     1      38.794  16.044 121.569 -0.23 -0.00    +0.000 C 
DOCKED: ENDROOT
DOCKED: BRANCH   1   3
DOCKED: ATOM      3  C   UNL     1      37.676  13.960 122.372 -0.48 -0.00    +0.000 C 
DOCKED: ATOM      4  C   UNL     1      37.385  13.351 121.203 -0.46 -0.00    +0.000 C 
DOCKED: ATOM      5  C   UNL     1      37.149  14.135 119.931 -0.33 -0.00    +0.000 C 
DOCKED: BRANCH   4   6
DOCKED: ATOM      6  C   UNL     1      37.348  11.866 121.186 -0.50 -0.00    +0.000 C 
DOCKED: ATOM      7  C   UNL     1      37.073  11.129 122.272 -0.55 -0.00    +0.000 C 
DOCKED: BRANCH   7   8
DOCKED: ATOM      8  C   UNL     1      37.030   9.652 122.266 -0.61 -0.00    +0.000 C 
DOCKED: ATOM      9  N   UNL     1      37.209   8.873 123.455 -0.57 -0.00    +0.000 N 
DOCKED: ATOM     10  O   UNL     1      37.057   7.529 123.415 -2.54 -0.00    +0.000 OA
DOCKED: ATOM     11  O   UNL     1      36.852   9.063 121.166 -2.66 -0.00    +0.000 OA
DOCKED: ATOM     12  H   UNL     1      37.442   9.317 124.303 -0.64 -0.00    +0.000 HD
DOCKED: ENDBRANCH   7   8
DOCKED: ENDBRANCH   4   6
DOCKED: ENDBRANCH   1   3
DOCKED: BRANCH   1  13
DOCKED: ATOM     13  C   UNL     1      36.439  16.127 122.382 -0.30 -0.00    +0.000 C 
DOCKED: ATOM     14  O   UNL     1      36.023  16.359 121.212 -0.24 -0.00    +0.000 OA
DOCKED: BRANCH  13  18
DOCKED: ATOM     15  C   UNL     1      33.975  17.313 125.731 -0.37 -0.00    +0.000 A 
DOCKED: ATOM     16  C   UNL     1      34.064  15.966 125.330 -0.45 -0.00    +0.000 A 
DOCKED: ATOM     17  C   UNL     1      34.862  15.591 124.246 -0.51 -0.00    +0.000 A 
DOCKED: ATOM     18  C   UNL     1      35.602  16.549 123.535 -0.35 -0.00    +0.000 A 
DOCKED: ATOM     19  C   UNL     1      35.508  17.897 123.922 -0.27 -0.00    +0.000 A 
DOCKED: ATOM     20  C   UNL     1      34.709  18.273 125.005 -0.30 -0.00    +0.000 A 
DOCKED: ATOM     21  CM  UNL     1      34.787  16.931 124.628 -0.27 -0.00    +0.000 AC
DOCKED: BRANCH  15  22
DOCKED: ATOM     22  C   UNL     1      32.808  16.734 127.908 -0.45 -0.00    +0.000 C 
DOCKED: ATOM     23  N   UNL     1      33.147  17.703 126.858 -0.34 -0.00    +0.000 N 
DOCKED: ATOM     24  C   UNL     1      32.634  19.074 126.967 -0.27 -0.00    +0.000 C 
DOCKED: ENDBRANCH  15  22
DOCKED: ENDBRANCH  13  18
DOCKED: ENDBRANCH   1  13
DOCKED: TORSDOF 6DOCKED: TER
DOCKED: ENDMDL
________________________________________________________________________________


	BEGINNING GENETIC ALGORITHM DOCKING 48 of 100
Run: 48 Seed: 1911968504 1746348779 [ Run 48 of 100 GA/GALS ]
Beginning LAMARCKIAN GENETIC ALGORITHM (LGA), with a maximum of 2500000 energy evaluations.

Final-Value: -14.513


	FINAL GENETIC ALGORITHM DOCKED STATE
	_______________________________________________


Detailed state:  trans 39.350 14.618 121.857 quatxyzw -0.372321 -0.279769 0.448404 -0.762915 center -0.963 -0.416 0.212 ntor 6 176.8218 15.4916 109.5106 -140.0258 122.6468 -42.8905
State:	 39.350  14.618 121.857  -0.576 -0.433  0.694 -80.556    176.82   15.49  109.51 -140.03  122.65  -42.89

DOCKED: MODEL       48
DOCKED: USER    Run = 48
DOCKED: USER    DPF = ligand_dock.biased.dpf
DOCKED: USER  
DOCKED: USER    Estimated Free Energy of Binding    =  -11.83 kcal/mol  [=(1)+(2)+(3)-(4)]
DOCKED: USER    Estimated Inhibition Constant, Ki   =    2.12 nM (nanomolar)  [Temperature = 298.15 K]
DOCKED: USER    
DOCKED: USER    (1) Final Intermolecular Energy     =  -13.62 kcal/mol
DOCKED: USER        vdW + Hbond + desolv Energy     =  -13.62 kcal/mol
DOCKED: USER        Electrostatic Energy            =   +0.00 kcal/mol
DOCKED: USER    (2) Final Total Internal Energy     =   -0.89 kcal/mol
DOCKED: USER    (3) Torsional Free Energy           =   +1.79 kcal/mol
DOCKED: USER    (4) Unbound System's Energy  [=(2)] =   -0.89 kcal/mol
DOCKED: USER    
DOCKED: USER    
DOCKED: USER    NEWDPF move ligand.dum.pdbqt
DOCKED: USER    NEWDPF about -0.963000 -0.416000 0.212000
DOCKED: USER    NEWDPF tran0 39.350376 14.617665 121.857149
DOCKED: USER    NEWDPF quaternion0 -0.372321 -0.279769 0.448404 -0.762915
DOCKED: USER    NEWDPF axisangle0 -0.575905 -0.432746 0.693588 -80.556216
DOCKED: USER    NEWDPF quat0 -0.575905 -0.432746 0.693588 -80.556216
DOCKED: USER    NEWDPF dihe0 176.82 15.49 109.51 -140.03 122.65 -42.89 
DOCKED: USER  keepresnum = 1 
DOCKED: USER  
DOCKED: REMARK  Name = 
DOCKED: REMARK  10 active torsions:
DOCKED: REMARK  status: ('A' for Active; 'I' for Inactive)
DOCKED: REMARK    1  A    between atoms: C_1  and  N_2
DOCKED: REMARK    2  A    between atoms: N_2  and  C_3
DOCKED: REMARK    3  A    between atoms: N_2  and  C_22
DOCKED: REMARK    4  A    between atoms: C_6  and  C_9
DOCKED: REMARK    5  A    between atoms: C_9  and  C_10
DOCKED: REMARK    6  A    between atoms: C_10  and  C_11
DOCKED: REMARK    7  A    between atoms: C_10  and  C_20
DOCKED: REMARK    8  A    between atoms: C_12  and  C_13
DOCKED: REMARK    9  A    between atoms: C_12  and  C_19
DOCKED: REMARK   10  A    between atoms: C_14  and  C_15
DOCKED: REMARK                            x       y       z     vdW  Elec       q    Type
DOCKED: REMARK                         _______ _______ _______ _____ _____    ______ ____
DOCKED: USER                              x       y       z     vdW  Elec       q    Type
DOCKED: USER                           _______ _______ _______ _____ _____    ______ ____
DOCKED: ROOT
DOCKED: ATOM      1  C   UNL     1      37.924  15.332 121.727 -0.30 -0.00    +0.000 C 
DOCKED: ATOM      2  C   UNL     1      36.526  15.953 121.677 -0.23 -0.00    +0.000 C 
DOCKED: ENDROOT
DOCKED: BRANCH   1   3
DOCKED: ATOM      3  C   UNL     1      37.823  13.846 122.009 -0.47 -0.00    +0.000 C 
DOCKED: ATOM      4  C   UNL     1      37.076  13.294 122.988 -0.57 -0.00    +0.000 C 
DOCKED: ATOM      5  C   UNL     1      36.231  14.137 123.918 -0.49 -0.00    +0.000 C 
DOCKED: BRANCH   4   6
DOCKED: ATOM      6  C   UNL     1      37.067  11.813 123.103 -0.66 -0.00    +0.000 C 
DOCKED: ATOM      7  C   UNL     1      36.956  10.998 122.043 -0.57 -0.00    +0.000 C 
DOCKED: BRANCH   7   8
DOCKED: ATOM      8  C   UNL     1      36.950   9.524 122.145 -0.64 -0.00    +0.000 C 
DOCKED: ATOM      9  N   UNL     1      37.106   8.840 123.394 -0.61 -0.00    +0.000 N 
DOCKED: ATOM     10  O   UNL     1      36.988   7.493 123.449 -2.49 -0.00    +0.000 OA
DOCKED: ATOM     11  O   UNL     1      36.825   8.851 121.087 -2.64 -0.00    +0.000 OA
DOCKED: ATOM     12  H   UNL     1      37.299   9.352 124.214 -0.62 -0.00    +0.000 HD
DOCKED: ENDBRANCH   7   8
DOCKED: ENDBRANCH   4   6
DOCKED: ENDBRANCH   1   3
DOCKED: BRANCH   1  13
DOCKED: ATOM     13  C   UNL     1      38.757  16.024 122.788 -0.30 -0.00    +0.000 C 
DOCKED: ATOM     14  O   UNL     1      38.185  16.466 123.824 -0.33 -0.00    +0.000 OA
DOCKED: BRANCH  13  18
DOCKED: ATOM     15  C   UNL     1      43.020  16.581 122.336 -0.35 -0.00    +0.000 A 
DOCKED: ATOM     16  C   UNL     1      42.364  15.471 121.770 -0.33 -0.00    +0.000 A 
DOCKED: ATOM     17  C   UNL     1      40.986  15.298 121.922 -0.37 -0.00    +0.000 A 
DOCKED: ATOM     18  C   UNL     1      40.220  16.233 122.636 -0.29 -0.00    +0.000 A 
DOCKED: ATOM     19  C   UNL     1      40.871  17.337 123.214 -0.26 -0.00    +0.000 A 
DOCKED: ATOM     20  C   UNL     1      42.249  17.509 123.064 -0.30 -0.00    +0.000 A 
DOCKED: ATOM     21  CM  UNL     1      41.618  16.404 122.490 +0.00 -0.00    +0.000 AC
DOCKED: BRANCH  15  22
DOCKED: ATOM     22  C   UNL     1      45.187  16.033 121.136 -0.22 +0.00    +0.000 C 
DOCKED: ATOM     23  N   UNL     1      44.452  16.762 122.179 -0.32 -0.00    +0.000 N 
DOCKED: ATOM     24  C   UNL     1      45.190  17.676 123.058 -0.27 -0.00    +0.000 C 
DOCKED: ENDBRANCH  15  22
DOCKED: ENDBRANCH  13  18
DOCKED: ENDBRANCH   1  13
DOCKED: TORSDOF 6DOCKED: TER
DOCKED: ENDMDL
________________________________________________________________________________


	BEGINNING GENETIC ALGORITHM DOCKING 49 of 100
Run: 49 Seed: 1975974934 438603467 [ Run 49 of 100 GA/GALS ]
Beginning LAMARCKIAN GENETIC ALGORITHM (LGA), with a maximum of 2500000 energy evaluations.

Final-Value: -14.861


	FINAL GENETIC ALGORITHM DOCKED STATE
	_______________________________________________


Detailed state:  trans 35.816 14.891 121.559 quatxyzw -0.449941 -0.741952 -0.242393 0.433942 center -0.963 -0.416 0.212 ntor 6 -123.7978 -51.8381 170.1147 31.6591 66.9374 174.2157
State:	 35.816  14.891 121.559  -0.499 -0.824 -0.269 128.564   -123.80  -51.84  170.11   31.66   66.94  174.22

DOCKED: MODEL       49
DOCKED: USER    Run = 49
DOCKED: USER    DPF = ligand_dock.biased.dpf
DOCKED: USER  
DOCKED: USER    Estimated Free Energy of Binding    =  -11.74 kcal/mol  [=(1)+(2)+(3)-(4)]
DOCKED: USER    Estimated Inhibition Constant, Ki   =    2.48 nM (nanomolar)  [Temperature = 298.15 K]
DOCKED: USER    
DOCKED: USER    (1) Final Intermolecular Energy     =  -13.53 kcal/mol
DOCKED: USER        vdW + Hbond + desolv Energy     =  -13.53 kcal/mol
DOCKED: USER        Electrostatic Energy            =   +0.00 kcal/mol
DOCKED: USER    (2) Final Total Internal Energy     =   -1.33 kcal/mol
DOCKED: USER    (3) Torsional Free Energy           =   +1.79 kcal/mol
DOCKED: USER    (4) Unbound System's Energy  [=(2)] =   -1.33 kcal/mol
DOCKED: USER    
DOCKED: USER    
DOCKED: USER    NEWDPF move ligand.dum.pdbqt
DOCKED: USER    NEWDPF about -0.963000 -0.416000 0.212000
DOCKED: USER    NEWDPF tran0 35.815505 14.891358 121.559379
DOCKED: USER    NEWDPF quaternion0 -0.449941 -0.741952 -0.242393 0.433942
DOCKED: USER    NEWDPF axisangle0 -0.499413 -0.823530 -0.269044 128.564012
DOCKED: USER    NEWDPF quat0 -0.499413 -0.823530 -0.269044 128.564012
DOCKED: USER    NEWDPF dihe0 -123.80 -51.84 170.11 31.66 66.94 174.22 
DOCKED: USER  keepresnum = 1 
DOCKED: USER  
DOCKED: REMARK  Name = 
DOCKED: REMARK  10 active torsions:
DOCKED: REMARK  status: ('A' for Active; 'I' for Inactive)
DOCKED: REMARK    1  A    between atoms: C_1  and  N_2
DOCKED: REMARK    2  A    between atoms: N_2  and  C_3
DOCKED: REMARK    3  A    between atoms: N_2  and  C_22
DOCKED: REMARK    4  A    between atoms: C_6  and  C_9
DOCKED: REMARK    5  A    between atoms: C_9  and  C_10
DOCKED: REMARK    6  A    between atoms: C_10  and  C_11
DOCKED: REMARK    7  A    between atoms: C_10  and  C_20
DOCKED: REMARK    8  A    between atoms: C_12  and  C_13
DOCKED: REMARK    9  A    between atoms: C_12  and  C_19
DOCKED: REMARK   10  A    between atoms: C_14  and  C_15
DOCKED: REMARK                            x       y       z     vdW  Elec       q    Type
DOCKED: REMARK                         _______ _______ _______ _____ _____    ______ ____
DOCKED: USER                              x       y       z     vdW  Elec       q    Type
DOCKED: USER                           _______ _______ _______ _____ _____    ______ ____
DOCKED: ROOT
DOCKED: ATOM      1  C   UNL     1      37.347  15.334 121.695 -0.29 -0.00    +0.000 C 
DOCKED: ATOM      2  C   UNL     1      38.838  15.670 121.780 -0.28 -0.00    +0.000 C 
DOCKED: ENDROOT
DOCKED: BRANCH   1   3
DOCKED: ATOM      3  C   UNL     1      37.137  13.846 121.893 -0.43 -0.00    +0.000 C 
DOCKED: ATOM      4  C   UNL     1      36.348  13.296 122.840 -0.53 -0.00    +0.000 C 
DOCKED: ATOM      5  C   UNL     1      35.564  14.143 123.816 -0.56 -0.00    +0.000 C 
DOCKED: BRANCH   4   6
DOCKED: ATOM      6  C   UNL     1      36.231  11.815 122.871 -0.66 -0.00    +0.000 C 
DOCKED: ATOM      7  C   UNL     1      37.093  11.000 122.244 -0.52 -0.00    +0.000 C 
DOCKED: BRANCH   7   8
DOCKED: ATOM      8  C   UNL     1      36.988   9.527 122.271 -0.63 -0.00    +0.000 C 
DOCKED: ATOM      9  N   UNL     1      37.234   8.761 123.456 -0.59 -0.00    +0.000 N 
DOCKED: ATOM     10  O   UNL     1      37.023   7.424 123.455 -2.46 -0.00    +0.000 OA
DOCKED: ATOM     11  O   UNL     1      36.695   8.928 121.201 -2.62 -0.00    +0.000 OA
DOCKED: ATOM     12  H   UNL     1      37.556   9.208 124.272 -0.64 -0.00    +0.000 HD
DOCKED: ENDBRANCH   7   8
DOCKED: ENDBRANCH   4   6
DOCKED: ENDBRANCH   1   3
DOCKED: BRANCH   1  13
DOCKED: ATOM     13  C   UNL     1      36.795  15.782 120.357 -0.19 -0.00    +0.000 C 
DOCKED: ATOM     14  O   UNL     1      35.994  16.758 120.320 -0.22 -0.00    +0.000 OA
DOCKED: BRANCH  13  18
DOCKED: ATOM     15  C   UNL     1      37.815  13.808 116.648 -0.35 -0.00    +0.000 A 
DOCKED: ATOM     16  C   UNL     1      38.621  14.836 117.175 -0.19 -0.00    +0.000 A 
DOCKED: ATOM     17  C   UNL     1      38.283  15.470 118.373 -0.16 -0.00    +0.000 A 
DOCKED: ATOM     18  C   UNL     1      37.136  15.089 119.087 -0.22 -0.00    +0.000 A 
DOCKED: ATOM     19  C   UNL     1      36.320  14.072 118.561 -0.30 -0.00    +0.000 A 
DOCKED: ATOM     20  C   UNL     1      36.657  13.439 117.362 -0.33 -0.00    +0.000 A 
DOCKED: ATOM     21  CM  UNL     1      37.472  14.453 117.868 +0.00 -0.00    +0.000 AC
DOCKED: BRANCH  15  22
DOCKED: ATOM     22  C   UNL     1      39.236  12.143 115.365 -0.51 -0.00    +0.000 C 
DOCKED: ATOM     23  N   UNL     1      38.165  13.148 115.403 -0.48 -0.00    +0.000 N 
DOCKED: ATOM     24  C   UNL     1      37.455  13.475 114.160 -0.39 -0.00    +0.000 C 
DOCKED: ENDBRANCH  15  22
DOCKED: ENDBRANCH  13  18
DOCKED: ENDBRANCH   1  13
DOCKED: TORSDOF 6DOCKED: TER
DOCKED: ENDMDL
________________________________________________________________________________


	BEGINNING GENETIC ALGORITHM DOCKING 50 of 100
Run: 50 Seed: 1996968933 1070996138 [ Run 50 of 100 GA/GALS ]
Beginning LAMARCKIAN GENETIC ALGORITHM (LGA), with a maximum of 2500000 energy evaluations.

Final-Value: -14.348


	FINAL GENETIC ALGORITHM DOCKED STATE
	_______________________________________________


Detailed state:  trans 36.372 14.626 124.428 quatxyzw 0.421750 0.829967 -0.068896 0.358518 center -0.963 -0.416 0.212 ntor 6 99.0447 139.3580 163.0099 -47.8773 -1.1434 29.3943
State:	 36.372  14.626 124.428   0.452  0.889 -0.074 137.982     99.04  139.36  163.01  -47.88   -1.14   29.39

DOCKED: MODEL       50
DOCKED: USER    Run = 50
DOCKED: USER    DPF = ligand_dock.biased.dpf
DOCKED: USER  
DOCKED: USER    Estimated Free Energy of Binding    =  -11.90 kcal/mol  [=(1)+(2)+(3)-(4)]
DOCKED: USER    Estimated Inhibition Constant, Ki   =    1.89 nM (nanomolar)  [Temperature = 298.15 K]
DOCKED: USER    
DOCKED: USER    (1) Final Intermolecular Energy     =  -13.69 kcal/mol
DOCKED: USER        vdW + Hbond + desolv Energy     =  -13.69 kcal/mol
DOCKED: USER        Electrostatic Energy            =   +0.00 kcal/mol
DOCKED: USER    (2) Final Total Internal Energy     =   -0.66 kcal/mol
DOCKED: USER    (3) Torsional Free Energy           =   +1.79 kcal/mol
DOCKED: USER    (4) Unbound System's Energy  [=(2)] =   -0.66 kcal/mol
DOCKED: USER    
DOCKED: USER    
DOCKED: USER    NEWDPF move ligand.dum.pdbqt
DOCKED: USER    NEWDPF about -0.963000 -0.416000 0.212000
DOCKED: USER    NEWDPF tran0 36.371659 14.625844 124.427600
DOCKED: USER    NEWDPF quaternion0 0.421750 0.829967 -0.068896 0.358518
DOCKED: USER    NEWDPF axisangle0 0.451783 0.889070 -0.073802 137.981620
DOCKED: USER    NEWDPF quat0 0.451783 0.889070 -0.073802 137.981620
DOCKED: USER    NEWDPF dihe0 99.04 139.36 163.01 -47.88 -1.14 29.39 
DOCKED: USER  keepresnum = 1 
DOCKED: USER  
DOCKED: REMARK  Name = 
DOCKED: REMARK  10 active torsions:
DOCKED: REMARK  status: ('A' for Active; 'I' for Inactive)
DOCKED: REMARK    1  A    between atoms: C_1  and  N_2
DOCKED: REMARK    2  A    between atoms: N_2  and  C_3
DOCKED: REMARK    3  A    between atoms: N_2  and  C_22
DOCKED: REMARK    4  A    between atoms: C_6  and  C_9
DOCKED: REMARK    5  A    between atoms: C_9  and  C_10
DOCKED: REMARK    6  A    between atoms: C_10  and  C_11
DOCKED: REMARK    7  A    between atoms: C_10  and  C_20
DOCKED: REMARK    8  A    between atoms: C_12  and  C_13
DOCKED: REMARK    9  A    between atoms: C_12  and  C_19
DOCKED: REMARK   10  A    between atoms: C_14  and  C_15
DOCKED: REMARK                            x       y       z     vdW  Elec       q    Type
DOCKED: REMARK                         _______ _______ _______ _____ _____    ______ ____
DOCKED: USER                              x       y       z     vdW  Elec       q    Type
DOCKED: USER                           _______ _______ _______ _____ _____    ______ ____
DOCKED: ROOT
DOCKED: ATOM      1  C   UNL     1      36.224  15.499 123.095 -0.42 -0.00    +0.000 C 
DOCKED: ATOM      2  C   UNL     1      36.035  16.256 121.778 -0.19 -0.00    +0.000 C 
DOCKED: ENDROOT
DOCKED: BRANCH   1   3
DOCKED: ATOM      3  C   UNL     1      36.470  14.029 122.820 -0.47 -0.00    +0.000 C 
DOCKED: ATOM      4  C   UNL     1      37.291  13.549 121.862 -0.47 -0.00    +0.000 C 
DOCKED: ATOM      5  C   UNL     1      38.079  14.466 120.953 -0.35 -0.00    +0.000 C 
DOCKED: BRANCH   4   6
DOCKED: ATOM      6  C   UNL     1      37.440  12.075 121.751 -0.47 -0.00    +0.000 C 
DOCKED: ATOM      7  C   UNL     1      36.665  11.209 122.422 -0.65 -0.00    +0.000 C 
DOCKED: BRANCH   7   8
DOCKED: ATOM      8  C   UNL     1      36.802   9.742 122.317 -0.67 -0.00    +0.000 C 
DOCKED: ATOM      9  N   UNL     1      37.063   8.911 123.454 -0.60 -0.00    +0.000 N 
DOCKED: ATOM     10  O   UNL     1      37.076   7.565 123.323 -2.53 -0.00    +0.000 OA
DOCKED: ATOM     11  O   UNL     1      36.709   9.212 121.178 -2.63 -0.00    +0.000 OA
DOCKED: ATOM     12  H   UNL     1      37.232   9.321 124.334 -0.57 -0.00    +0.000 HD
DOCKED: ENDBRANCH   7   8
DOCKED: ENDBRANCH   4   6
DOCKED: ENDBRANCH   1   3
DOCKED: BRANCH   1  13
DOCKED: ATOM     13  C   UNL     1      35.004  15.685 123.975 -0.55 -0.00    +0.000 C 
DOCKED: ATOM     14  O   UNL     1      34.185  14.730 124.096 -0.61 -0.00    +0.000 OA
DOCKED: BRANCH  13  18
DOCKED: ATOM     15  C   UNL     1      34.130  19.388 126.027 -0.22 -0.00    +0.000 A 
DOCKED: ATOM     16  C   UNL     1      33.641  18.156 126.502 -0.30 -0.00    +0.000 A 
DOCKED: ATOM     17  C   UNL     1      33.927  16.964 125.833 -0.37 -0.00    +0.000 A 
DOCKED: ATOM     18  C   UNL     1      34.718  16.965 124.673 -0.40 -0.00    +0.000 A 
DOCKED: ATOM     19  C   UNL     1      35.199  18.193 124.185 -0.28 -0.00    +0.000 A 
DOCKED: ATOM     20  C   UNL     1      34.912  19.386 124.854 -0.17 -0.00    +0.000 A 
DOCKED: ATOM     21  CM  UNL     1      34.421  18.175 125.346 -0.35 -0.00    +0.000 AC
DOCKED: BRANCH  15  22
DOCKED: ATOM     22  C   UNL     1      32.444  21.073 126.897 -0.20 -0.00    +0.000 C 
DOCKED: ATOM     23  N   UNL     1      33.833  20.628 126.723 -0.15 -0.00    +0.000 N 
DOCKED: ATOM     24  C   UNL     1      34.916  21.457 127.264 -0.08 -0.00    +0.000 C 
DOCKED: ENDBRANCH  15  22
DOCKED: ENDBRANCH  13  18
DOCKED: ENDBRANCH   1  13
DOCKED: TORSDOF 6DOCKED: TER
DOCKED: ENDMDL
________________________________________________________________________________


	BEGINNING GENETIC ALGORITHM DOCKING 51 of 100
Run: 51 Seed: 2017163876 2037126894 [ Run 51 of 100 GA/GALS ]
Beginning LAMARCKIAN GENETIC ALGORITHM (LGA), with a maximum of 2500000 energy evaluations.

Final-Value: -14.869


	FINAL GENETIC ALGORITHM DOCKED STATE
	_______________________________________________


Detailed state:  trans 36.838 14.850 123.400 quatxyzw 0.564164 0.814480 0.132314 0.028889 center -0.963 -0.416 0.212 ntor 6 -166.4169 -179.9341 -178.4342 -148.8033 -111.1080 -39.9297
State:	 36.838  14.850 123.400   0.564  0.815  0.132 176.689   -166.42 -179.93 -178.43 -148.80 -111.11  -39.93

DOCKED: MODEL       51
DOCKED: USER    Run = 51
DOCKED: USER    DPF = ligand_dock.biased.dpf
DOCKED: USER  
DOCKED: USER    Estimated Free Energy of Binding    =  -12.12 kcal/mol  [=(1)+(2)+(3)-(4)]
DOCKED: USER    Estimated Inhibition Constant, Ki   =    1.31 nM (nanomolar)  [Temperature = 298.15 K]
DOCKED: USER    
DOCKED: USER    (1) Final Intermolecular Energy     =  -13.91 kcal/mol
DOCKED: USER        vdW + Hbond + desolv Energy     =  -13.91 kcal/mol
DOCKED: USER        Electrostatic Energy            =   +0.00 kcal/mol
DOCKED: USER    (2) Final Total Internal Energy     =   -0.96 kcal/mol
DOCKED: USER    (3) Torsional Free Energy           =   +1.79 kcal/mol
DOCKED: USER    (4) Unbound System's Energy  [=(2)] =   -0.96 kcal/mol
DOCKED: USER    
DOCKED: USER    
DOCKED: USER    NEWDPF move ligand.dum.pdbqt
DOCKED: USER    NEWDPF about -0.963000 -0.416000 0.212000
DOCKED: USER    NEWDPF tran0 36.837982 14.849703 123.399633
DOCKED: USER    NEWDPF quaternion0 0.564164 0.814480 0.132314 0.028889
DOCKED: USER    NEWDPF axisangle0 0.564400 0.814820 0.132370 176.689047
DOCKED: USER    NEWDPF quat0 0.564400 0.814820 0.132370 176.689047
DOCKED: USER    NEWDPF dihe0 -166.42 -179.93 -178.43 -148.80 -111.11 -39.93 
DOCKED: USER  keepresnum = 1 
DOCKED: USER  
DOCKED: REMARK  Name = 
DOCKED: REMARK  10 active torsions:
DOCKED: REMARK  status: ('A' for Active; 'I' for Inactive)
DOCKED: REMARK    1  A    between atoms: C_1  and  N_2
DOCKED: REMARK    2  A    between atoms: N_2  and  C_3
DOCKED: REMARK    3  A    between atoms: N_2  and  C_22
DOCKED: REMARK    4  A    between atoms: C_6  and  C_9
DOCKED: REMARK    5  A    between atoms: C_9  and  C_10
DOCKED: REMARK    6  A    between atoms: C_10  and  C_11
DOCKED: REMARK    7  A    between atoms: C_10  and  C_20
DOCKED: REMARK    8  A    between atoms: C_12  and  C_13
DOCKED: REMARK    9  A    between atoms: C_12  and  C_19
DOCKED: REMARK   10  A    between atoms: C_14  and  C_15
DOCKED: REMARK                            x       y       z     vdW  Elec       q    Type
DOCKED: REMARK                         _______ _______ _______ _____ _____    ______ ____
DOCKED: USER                              x       y       z     vdW  Elec       q    Type
DOCKED: USER                           _______ _______ _______ _____ _____    ______ ____
DOCKED: ROOT
DOCKED: ATOM      1  C   UNL     1      37.906  15.486 122.392 -0.33 -0.00    +0.000 C 
DOCKED: ATOM      2  C   UNL     1      38.895  16.028 121.358 -0.22 -0.00    +0.000 C 
DOCKED: ENDROOT
DOCKED: BRANCH   1   3
DOCKED: ATOM      3  C   UNL     1      37.758  13.986 122.233 -0.47 -0.00    +0.000 C 
DOCKED: ATOM      4  C   UNL     1      37.376  13.363 121.098 -0.46 -0.00    +0.000 C 
DOCKED: ATOM      5  C   UNL     1      37.064  14.130 119.833 -0.33 -0.00    +0.000 C 
DOCKED: BRANCH   4   6
DOCKED: ATOM      6  C   UNL     1      37.314  11.878 121.109 -0.51 -0.00    +0.000 C 
DOCKED: ATOM      7  C   UNL     1      37.073  11.165 122.220 -0.55 -0.00    +0.000 C 
DOCKED: BRANCH   7   8
DOCKED: ATOM      8  C   UNL     1      37.006   9.689 122.242 -0.61 -0.00    +0.000 C 
DOCKED: ATOM      9  N   UNL     1      37.115   8.933 123.453 -0.58 -0.00    +0.000 N 
DOCKED: ATOM     10  O   UNL     1      36.944   7.591 123.434 -2.53 -0.00    +0.000 OA
DOCKED: ATOM     11  O   UNL     1      36.873   9.079 121.147 -2.67 -0.00    +0.000 OA
DOCKED: ATOM     12  H   UNL     1      37.315   9.391 124.302 -0.61 -0.00    +0.000 HD
DOCKED: ENDBRANCH   7   8
DOCKED: ENDBRANCH   4   6
DOCKED: ENDBRANCH   1   3
DOCKED: BRANCH   1  13
DOCKED: ATOM     13  C   UNL     1      36.566  16.178 122.234 -0.28 -0.00    +0.000 C 
DOCKED: ATOM     14  O   UNL     1      36.170  16.490 121.075 -0.23 -0.00    +0.000 OA
DOCKED: BRANCH  13  18
DOCKED: ATOM     15  C   UNL     1      34.126  17.251 125.638 -0.38 -0.00    +0.000 A 
DOCKED: ATOM     16  C   UNL     1      35.016  18.175 125.056 -0.28 -0.00    +0.000 A 
DOCKED: ATOM     17  C   UNL     1      35.802  17.820 123.957 -0.25 -0.00    +0.000 A 
DOCKED: ATOM     18  C   UNL     1      35.716  16.534 123.399 -0.34 -0.00    +0.000 A 
DOCKED: ATOM     19  C   UNL     1      34.839  15.603 123.983 -0.51 -0.00    +0.000 A 
DOCKED: ATOM     20  C   UNL     1      34.054  15.957 125.083 -0.46 -0.00    +0.000 A 
DOCKED: ATOM     21  CM  UNL     1      34.926  16.890 124.519 -0.24 -0.00    +0.000 AC
DOCKED: BRANCH  15  22
DOCKED: ATOM     22  C   UNL     1      32.793  18.988 126.919 -0.28 -0.00    +0.000 C 
DOCKED: ATOM     23  N   UNL     1      33.309  17.620 126.780 -0.35 -0.00    +0.000 N 
DOCKED: ATOM     24  C   UNL     1      32.984  16.632 127.815 -0.45 -0.00    +0.000 C 
DOCKED: ENDBRANCH  15  22
DOCKED: ENDBRANCH  13  18
DOCKED: ENDBRANCH   1  13
DOCKED: TORSDOF 6DOCKED: TER
DOCKED: ENDMDL
________________________________________________________________________________


	BEGINNING GENETIC ALGORITHM DOCKING 52 of 100
Run: 52 Seed: 1664407588 865937812 [ Run 52 of 100 GA/GALS ]
Beginning LAMARCKIAN GENETIC ALGORITHM (LGA), with a maximum of 2500000 energy evaluations.

Final-Value: -14.272


	FINAL GENETIC ALGORITHM DOCKED STATE
	_______________________________________________


Detailed state:  trans 39.398 14.661 121.493 quatxyzw -0.296019 -0.296673 0.413478 -0.808328 center -0.963 -0.416 0.212 ntor 6 -20.1341 -180.0000 -174.2157 -14.3106 140.1641 -41.7452
State:	 39.398  14.661 121.493  -0.503 -0.504  0.702 -72.134    -20.13 -180.00 -174.22  -14.31  140.16  -41.75

DOCKED: MODEL       52
DOCKED: USER    Run = 52
DOCKED: USER    DPF = ligand_dock.biased.dpf
DOCKED: USER  
DOCKED: USER    Estimated Free Energy of Binding    =  -11.39 kcal/mol  [=(1)+(2)+(3)-(4)]
DOCKED: USER    Estimated Inhibition Constant, Ki   =    4.51 nM (nanomolar)  [Temperature = 298.15 K]
DOCKED: USER    
DOCKED: USER    (1) Final Intermolecular Energy     =  -13.18 kcal/mol
DOCKED: USER        vdW + Hbond + desolv Energy     =  -13.18 kcal/mol
DOCKED: USER        Electrostatic Energy            =   +0.00 kcal/mol
DOCKED: USER    (2) Final Total Internal Energy     =   -1.10 kcal/mol
DOCKED: USER    (3) Torsional Free Energy           =   +1.79 kcal/mol
DOCKED: USER    (4) Unbound System's Energy  [=(2)] =   -1.10 kcal/mol
DOCKED: USER    
DOCKED: USER    
DOCKED: USER    NEWDPF move ligand.dum.pdbqt
DOCKED: USER    NEWDPF about -0.963000 -0.416000 0.212000
DOCKED: USER    NEWDPF tran0 39.397879 14.660605 121.493101
DOCKED: USER    NEWDPF quaternion0 -0.296019 -0.296673 0.413478 -0.808328
DOCKED: USER    NEWDPF axisangle0 -0.502806 -0.503919 0.702319 -72.134304
DOCKED: USER    NEWDPF quat0 -0.502806 -0.503919 0.702319 -72.134304
DOCKED: USER    NEWDPF dihe0 -20.13 -180.00 -174.22 -14.31 140.16 -41.75 
DOCKED: USER  keepresnum = 1 
DOCKED: USER  
DOCKED: REMARK  Name = 
DOCKED: REMARK  10 active torsions:
DOCKED: REMARK  status: ('A' for Active; 'I' for Inactive)
DOCKED: REMARK    1  A    between atoms: C_1  and  N_2
DOCKED: REMARK    2  A    between atoms: N_2  and  C_3
DOCKED: REMARK    3  A    between atoms: N_2  and  C_22
DOCKED: REMARK    4  A    between atoms: C_6  and  C_9
DOCKED: REMARK    5  A    between atoms: C_9  and  C_10
DOCKED: REMARK    6  A    between atoms: C_10  and  C_11
DOCKED: REMARK    7  A    between atoms: C_10  and  C_20
DOCKED: REMARK    8  A    between atoms: C_12  and  C_13
DOCKED: REMARK    9  A    between atoms: C_12  and  C_19
DOCKED: REMARK   10  A    between atoms: C_14  and  C_15
DOCKED: REMARK                            x       y       z     vdW  Elec       q    Type
DOCKED: REMARK                         _______ _______ _______ _____ _____    ______ ____
DOCKED: USER                              x       y       z     vdW  Elec       q    Type
DOCKED: USER                           _______ _______ _______ _____ _____    ______ ____
DOCKED: ROOT
DOCKED: ATOM      1  C   UNL     1      37.999  15.436 121.561 -0.28 -0.00    +0.000 C 
DOCKED: ATOM      2  C   UNL     1      36.628  16.104 121.689 -0.24 -0.00    +0.000 C 
DOCKED: ENDROOT
DOCKED: BRANCH   1   3
DOCKED: ATOM      3  C   UNL     1      37.846  13.927 121.570 -0.43 -0.00    +0.000 C 
DOCKED: ATOM      4  C   UNL     1      37.430  13.187 120.521 -0.47 -0.00    +0.000 C 
DOCKED: ATOM      5  C   UNL     1      37.080  13.815 119.190 -0.39 -0.00    +0.000 C 
DOCKED: BRANCH   4   6
DOCKED: ATOM      6  C   UNL     1      37.368  11.713 120.693 -0.48 -0.00    +0.000 C 
DOCKED: ATOM      7  C   UNL     1      37.080  11.125 121.864 -0.52 -0.00    +0.000 C 
DOCKED: BRANCH   7   8
DOCKED: ATOM      8  C   UNL     1      37.012   9.660 122.047 -0.61 -0.00    +0.000 C 
DOCKED: ATOM      9  N   UNL     1      37.070   9.044 123.338 -0.61 -0.00    +0.000 N 
DOCKED: ATOM     10  O   UNL     1      36.900   7.707 123.460 -2.59 -0.00    +0.000 OA
DOCKED: ATOM     11  O   UNL     1      36.925   8.933 121.022 -2.67 -0.00    +0.000 OA
DOCKED: ATOM     12  H   UNL     1      37.234   9.594 124.139 -0.58 -0.00    +0.000 HD
DOCKED: ENDBRANCH   7   8
DOCKED: ENDBRANCH   4   6
DOCKED: ENDBRANCH   1   3
DOCKED: BRANCH   1  13
DOCKED: ATOM     13  C   UNL     1      38.900  15.891 122.692 -0.32 -0.00    +0.000 C 
DOCKED: ATOM     14  O   UNL     1      38.391  16.131 123.823 -0.29 -0.00    +0.000 OA
DOCKED: BRANCH  13  18
DOCKED: ATOM     15  C   UNL     1      43.150  16.450 122.124 -0.34 -0.00    +0.000 A 
DOCKED: ATOM     16  C   UNL     1      42.368  15.770 121.170 -0.24 -0.00    +0.000 A 
DOCKED: ATOM     17  C   UNL     1      40.996  15.593 121.362 -0.27 -0.00    +0.000 A 
DOCKED: ATOM     18  C   UNL     1      40.361  16.097 122.508 -0.30 -0.00    +0.000 A 
DOCKED: ATOM     19  C   UNL     1      41.137  16.766 123.470 -0.30 -0.00    +0.000 A 
DOCKED: ATOM     20  C   UNL     1      42.510  16.942 123.279 -0.34 -0.00    +0.000 A 
DOCKED: ATOM     21  CM  UNL     1      41.753  16.269 122.319 +0.00 -0.00    +0.000 AC
DOCKED: BRANCH  15  22
DOCKED: ATOM     22  C   UNL     1      45.385  17.338 122.929 -0.32 -0.00    +0.000 C 
DOCKED: ATOM     23  N   UNL     1      44.576  16.636 121.925 -0.29 -0.00    +0.000 N 
DOCKED: ATOM     24  C   UNL     1      45.234  16.124 120.716 -0.28 +0.00    +0.000 C 
DOCKED: ENDBRANCH  15  22
DOCKED: ENDBRANCH  13  18
DOCKED: ENDBRANCH   1  13
DOCKED: TORSDOF 6DOCKED: TER
DOCKED: ENDMDL
________________________________________________________________________________


	BEGINNING GENETIC ALGORITHM DOCKING 53 of 100
Run: 53 Seed: 223779179 1995693284 [ Run 53 of 100 GA/GALS ]
Beginning LAMARCKIAN GENETIC ALGORITHM (LGA), with a maximum of 2500000 energy evaluations.

Final-Value: -14.482


	FINAL GENETIC ALGORITHM DOCKED STATE
	_______________________________________________


Detailed state:  trans 36.929 14.620 120.640 quatxyzw 0.132970 0.487284 0.468380 -0.724909 center -0.963 -0.416 0.212 ntor 6 -167.2368 24.4302 102.1188 -24.2022 173.7248 -76.4363
State:	 36.929  14.620 120.640   0.193  0.707  0.680 -87.077   -167.24   24.43  102.12  -24.20  173.72  -76.44

DOCKED: MODEL       53
DOCKED: USER    Run = 53
DOCKED: USER    DPF = ligand_dock.biased.dpf
DOCKED: USER  
DOCKED: USER    Estimated Free Energy of Binding    =  -11.50 kcal/mol  [=(1)+(2)+(3)-(4)]
DOCKED: USER    Estimated Inhibition Constant, Ki   =    3.71 nM (nanomolar)  [Temperature = 298.15 K]
DOCKED: USER    
DOCKED: USER    (1) Final Intermolecular Energy     =  -13.29 kcal/mol
DOCKED: USER        vdW + Hbond + desolv Energy     =  -13.29 kcal/mol
DOCKED: USER        Electrostatic Energy            =   +0.00 kcal/mol
DOCKED: USER    (2) Final Total Internal Energy     =   -1.19 kcal/mol
DOCKED: USER    (3) Torsional Free Energy           =   +1.79 kcal/mol
DOCKED: USER    (4) Unbound System's Energy  [=(2)] =   -1.19 kcal/mol
DOCKED: USER    
DOCKED: USER    
DOCKED: USER    NEWDPF move ligand.dum.pdbqt
DOCKED: USER    NEWDPF about -0.963000 -0.416000 0.212000
DOCKED: USER    NEWDPF tran0 36.929109 14.619503 120.640369
DOCKED: USER    NEWDPF quaternion0 0.132970 0.487284 0.468380 -0.724909
DOCKED: USER    NEWDPF axisangle0 0.193033 0.707393 0.679951 -87.077364
DOCKED: USER    NEWDPF quat0 0.193033 0.707393 0.679951 -87.077364
DOCKED: USER    NEWDPF dihe0 -167.24 24.43 102.12 -24.20 173.72 -76.44 
DOCKED: USER  keepresnum = 1 
DOCKED: USER  
DOCKED: REMARK  Name = 
DOCKED: REMARK  10 active torsions:
DOCKED: REMARK  status: ('A' for Active; 'I' for Inactive)
DOCKED: REMARK    1  A    between atoms: C_1  and  N_2
DOCKED: REMARK    2  A    between atoms: N_2  and  C_3
DOCKED: REMARK    3  A    between atoms: N_2  and  C_22
DOCKED: REMARK    4  A    between atoms: C_6  and  C_9
DOCKED: REMARK    5  A    between atoms: C_9  and  C_10
DOCKED: REMARK    6  A    between atoms: C_10  and  C_11
DOCKED: REMARK    7  A    between atoms: C_10  and  C_20
DOCKED: REMARK    8  A    between atoms: C_12  and  C_13
DOCKED: REMARK    9  A    between atoms: C_12  and  C_19
DOCKED: REMARK   10  A    between atoms: C_14  and  C_15
DOCKED: REMARK                            x       y       z     vdW  Elec       q    Type
DOCKED: REMARK                         _______ _______ _______ _____ _____    ______ ____
DOCKED: USER                              x       y       z     vdW  Elec       q    Type
DOCKED: USER                           _______ _______ _______ _____ _____    ______ ____
DOCKED: ROOT
DOCKED: ATOM      1  C   UNL     1      37.400  15.476 121.907 -0.30 -0.00    +0.000 C 
DOCKED: ATOM      2  C   UNL     1      37.921  16.223 123.138 -0.30 -0.00    +0.000 C 
DOCKED: ENDROOT
DOCKED: BRANCH   1   3
DOCKED: ATOM      3  C   UNL     1      37.451  13.980 122.147 -0.46 -0.00    +0.000 C 
DOCKED: ATOM      4  C   UNL     1      36.687  13.314 123.039 -0.58 -0.00    +0.000 C 
DOCKED: ATOM      5  C   UNL     1      35.667  14.022 123.902 -0.54 -0.00    +0.000 C 
DOCKED: BRANCH   4   6
DOCKED: ATOM      6  C   UNL     1      36.844  11.839 123.122 -0.67 -0.00    +0.000 C 
DOCKED: ATOM      7  C   UNL     1      36.786  11.036 122.048 -0.61 -0.00    +0.000 C 
DOCKED: BRANCH   7   8
DOCKED: ATOM      8  C   UNL     1      36.943   9.569 122.119 -0.63 -0.00    +0.000 C 
DOCKED: ATOM      9  N   UNL     1      37.031   8.865 123.363 -0.63 -0.00    +0.000 N 
DOCKED: ATOM     10  O   UNL     1      37.069   7.512 123.375 -2.52 -0.00    +0.000 OA
DOCKED: ATOM     11  O   UNL     1      37.027   8.923 121.040 -2.70 -0.00    +0.000 OA
DOCKED: ATOM     12  H   UNL     1      37.062   9.366 124.210 -0.58 -0.00    +0.000 HD
DOCKED: ENDBRANCH   7   8
DOCKED: ENDBRANCH   4   6
DOCKED: ENDBRANCH   1   3
DOCKED: BRANCH   1  13
DOCKED: ATOM     13  C   UNL     1      38.223  15.853 120.691 -0.20 -0.00    +0.000 C 
DOCKED: ATOM     14  O   UNL     1      39.159  16.691 120.820 -0.13 -0.00    +0.000 OA
DOCKED: BRANCH  13  18
DOCKED: ATOM     15  C   UNL     1      37.371  14.204 116.786 -0.31 -0.00    +0.000 A 
DOCKED: ATOM     16  C   UNL     1      36.403  14.199 117.809 -0.33 -0.00    +0.000 A 
DOCKED: ATOM     17  C   UNL     1      36.686  14.733 119.068 -0.23 -0.00    +0.000 A 
DOCKED: ATOM     18  C   UNL     1      37.943  15.296 119.342 -0.19 -0.00    +0.000 A 
DOCKED: ATOM     19  C   UNL     1      38.919  15.293 118.330 -0.12 -0.00    +0.000 A 
DOCKED: ATOM     20  C   UNL     1      38.636  14.758 117.071 -0.19 -0.00    +0.000 A 
DOCKED: ATOM     21  CM  UNL     1      37.659  14.747 118.068 +0.00 -0.00    +0.000 AC
DOCKED: BRANCH  15  22
DOCKED: ATOM     22  C   UNL     1      35.724  13.739 114.914 -0.28 -0.00    +0.000 C 
DOCKED: ATOM     23  N   UNL     1      37.077  13.649 115.477 -0.35 -0.00    +0.000 N 
DOCKED: ATOM     24  C   UNL     1      38.128  12.990 114.693 -0.45 -0.00    +0.000 C 
DOCKED: ENDBRANCH  15  22
DOCKED: ENDBRANCH  13  18
DOCKED: ENDBRANCH   1  13
DOCKED: TORSDOF 6DOCKED: TER
DOCKED: ENDMDL
________________________________________________________________________________


	BEGINNING GENETIC ALGORITHM DOCKING 54 of 100
Run: 54 Seed: 1056190905 1949987733 [ Run 54 of 100 GA/GALS ]
Beginning LAMARCKIAN GENETIC ALGORITHM (LGA), with a maximum of 2500000 energy evaluations.

Final-Value: -14.686


	FINAL GENETIC ALGORITHM DOCKED STATE
	_______________________________________________


Detailed state:  trans 36.685 15.342 124.443 quatxyzw -0.604919 -0.793895 -0.060544 0.011771 center -0.963 -0.416 0.212 ntor 6 -178.2642 -8.9495 1.7326 -140.4383 -99.3754 -58.3389
State:	 36.685  15.342 124.443  -0.605 -0.794 -0.061 178.651   -178.26   -8.95    1.73 -140.44  -99.38  -58.34

DOCKED: MODEL       54
DOCKED: USER    Run = 54
DOCKED: USER    DPF = ligand_dock.biased.dpf
DOCKED: USER  
DOCKED: USER    Estimated Free Energy of Binding    =  -11.98 kcal/mol  [=(1)+(2)+(3)-(4)]
DOCKED: USER    Estimated Inhibition Constant, Ki   =    1.66 nM (nanomolar)  [Temperature = 298.15 K]
DOCKED: USER    
DOCKED: USER    (1) Final Intermolecular Energy     =  -13.77 kcal/mol
DOCKED: USER        vdW + Hbond + desolv Energy     =  -13.77 kcal/mol
DOCKED: USER        Electrostatic Energy            =   +0.00 kcal/mol
DOCKED: USER    (2) Final Total Internal Energy     =   -0.92 kcal/mol
DOCKED: USER    (3) Torsional Free Energy           =   +1.79 kcal/mol
DOCKED: USER    (4) Unbound System's Energy  [=(2)] =   -0.92 kcal/mol
DOCKED: USER    
DOCKED: USER    
DOCKED: USER    NEWDPF move ligand.dum.pdbqt
DOCKED: USER    NEWDPF about -0.963000 -0.416000 0.212000
DOCKED: USER    NEWDPF tran0 36.685157 15.342020 124.442962
DOCKED: USER    NEWDPF quaternion0 -0.604919 -0.793895 -0.060544 0.011771
DOCKED: USER    NEWDPF axisangle0 -0.604961 -0.793950 -0.060548 178.651076
DOCKED: USER    NEWDPF quat0 -0.604961 -0.793950 -0.060548 178.651076
DOCKED: USER    NEWDPF dihe0 -178.26 -8.95 1.73 -140.44 -99.38 -58.34 
DOCKED: USER  keepresnum = 1 
DOCKED: USER  
DOCKED: REMARK  Name = 
DOCKED: REMARK  10 active torsions:
DOCKED: REMARK  status: ('A' for Active; 'I' for Inactive)
DOCKED: REMARK    1  A    between atoms: C_1  and  N_2
DOCKED: REMARK    2  A    between atoms: N_2  and  C_3
DOCKED: REMARK    3  A    between atoms: N_2  and  C_22
DOCKED: REMARK    4  A    between atoms: C_6  and  C_9
DOCKED: REMARK    5  A    between atoms: C_9  and  C_10
DOCKED: REMARK    6  A    between atoms: C_10  and  C_11
DOCKED: REMARK    7  A    between atoms: C_10  and  C_20
DOCKED: REMARK    8  A    between atoms: C_12  and  C_13
DOCKED: REMARK    9  A    between atoms: C_12  and  C_19
DOCKED: REMARK   10  A    between atoms: C_14  and  C_15
DOCKED: REMARK                            x       y       z     vdW  Elec       q    Type
DOCKED: REMARK                         _______ _______ _______ _____ _____    ______ ____
DOCKED: USER                              x       y       z     vdW  Elec       q    Type
DOCKED: USER                           _______ _______ _______ _____ _____    ______ ____
DOCKED: ROOT
DOCKED: ATOM      1  C   UNL     1      37.773  15.704 123.326 -0.32 -0.00    +0.000 C 
DOCKED: ATOM      2  C   UNL     1      38.773  15.977 122.200 -0.28 -0.00    +0.000 C 
DOCKED: ENDROOT
DOCKED: BRANCH   1   3
DOCKED: ATOM      3  C   UNL     1      37.479  14.219 123.413 -0.45 -0.00    +0.000 C 
DOCKED: ATOM      4  C   UNL     1      37.157  13.433 122.365 -0.51 -0.00    +0.000 C 
DOCKED: ATOM      5  C   UNL     1      37.068  13.977 120.956 -0.33 -0.00    +0.000 C 
DOCKED: BRANCH   4   6
DOCKED: ATOM      6  C   UNL     1      36.932  11.987 122.625 -0.62 -0.00    +0.000 C 
DOCKED: ATOM      7  C   UNL     1      37.150  11.036 121.705 -0.42 -0.00    +0.000 C 
DOCKED: BRANCH   7   8
DOCKED: ATOM      8  C   UNL     1      36.933   9.596 121.954 -0.63 -0.00    +0.000 C 
DOCKED: ATOM      9  N   UNL     1      37.016   9.022 123.264 -0.63 -0.00    +0.000 N 
DOCKED: ATOM     10  O   UNL     1      36.706   7.719 123.455 -2.49 -0.00    +0.000 OA
DOCKED: ATOM     11  O   UNL     1      36.691   8.848 120.970 -2.61 -0.00    +0.000 OA
DOCKED: ATOM     12  H   UNL     1      37.297   9.578 124.027 -0.54 -0.00    +0.000 HD
DOCKED: ENDBRANCH   7   8
DOCKED: ENDBRANCH   4   6
DOCKED: ENDBRANCH   1   3
DOCKED: BRANCH   1  13
DOCKED: ATOM     13  C   UNL     1      36.499  16.490 123.085 -0.32 -0.00    +0.000 C 
DOCKED: ATOM     14  O   UNL     1      36.275  16.954 121.931 -0.23 -0.00    +0.000 OA
DOCKED: BRANCH  13  18
DOCKED: ATOM     15  C   UNL     1      33.677  17.326 126.251 -0.36 -0.00    +0.000 A 
DOCKED: ATOM     16  C   UNL     1      34.517  18.332 125.736 -0.29 -0.00    +0.000 A 
DOCKED: ATOM     17  C   UNL     1      35.426  18.053 124.713 -0.26 -0.00    +0.000 A 
DOCKED: ATOM     18  C   UNL     1      35.519  16.763 124.168 -0.35 -0.00    +0.000 A 
DOCKED: ATOM     19  C   UNL     1      34.693  15.751 124.686 -0.48 -0.00    +0.000 A 
DOCKED: ATOM     20  C   UNL     1      33.784  16.029 125.710 -0.29 -0.00    +0.000 A 
DOCKED: ATOM     21  CM  UNL     1      34.603  17.043 125.211 -0.31 -0.00    +0.000 AC
DOCKED: BRANCH  15  22
DOCKED: ATOM     22  C   UNL     1      32.266  18.988 127.548 -0.25 -0.00    +0.000 C 
DOCKED: ATOM     23  N   UNL     1      32.730  17.614 127.314 -0.33 -0.00    +0.000 N 
DOCKED: ATOM     24  C   UNL     1      32.221  16.538 128.172 -0.46 -0.00    +0.000 C 
DOCKED: ENDBRANCH  15  22
DOCKED: ENDBRANCH  13  18
DOCKED: ENDBRANCH   1  13
DOCKED: TORSDOF 6DOCKED: TER
DOCKED: ENDMDL
________________________________________________________________________________


	BEGINNING GENETIC ALGORITHM DOCKING 55 of 100
Run: 55 Seed: 1307409402 108184035 [ Run 55 of 100 GA/GALS ]
Beginning LAMARCKIAN GENETIC ALGORITHM (LGA), with a maximum of 2500000 energy evaluations.

Final-Value: -13.612


	FINAL GENETIC ALGORITHM DOCKED STATE
	_______________________________________________


Detailed state:  trans 36.106 14.125 118.001 quatxyzw -0.243619 -0.692327 -0.331826 0.592642 center -0.963 -0.416 0.212 ntor 6 49.0507 178.5077 -0.1193 -41.3507 176.4426 -68.9652
State:	 36.106  14.125 118.001  -0.302 -0.860 -0.412 107.311     49.05  178.51   -0.12  -41.35  176.44  -68.97

DOCKED: MODEL       55
DOCKED: USER    Run = 55
DOCKED: USER    DPF = ligand_dock.biased.dpf
DOCKED: USER  
DOCKED: USER    Estimated Free Energy of Binding    =  -10.97 kcal/mol  [=(1)+(2)+(3)-(4)]
DOCKED: USER    Estimated Inhibition Constant, Ki   =    9.08 nM (nanomolar)  [Temperature = 298.15 K]
DOCKED: USER    
DOCKED: USER    (1) Final Intermolecular Energy     =  -12.76 kcal/mol
DOCKED: USER        vdW + Hbond + desolv Energy     =  -12.76 kcal/mol
DOCKED: USER        Electrostatic Energy            =   +0.00 kcal/mol
DOCKED: USER    (2) Final Total Internal Energy     =   -0.85 kcal/mol
DOCKED: USER    (3) Torsional Free Energy           =   +1.79 kcal/mol
DOCKED: USER    (4) Unbound System's Energy  [=(2)] =   -0.85 kcal/mol
DOCKED: USER    
DOCKED: USER    
DOCKED: USER    NEWDPF move ligand.dum.pdbqt
DOCKED: USER    NEWDPF about -0.963000 -0.416000 0.212000
DOCKED: USER    NEWDPF tran0 36.106048 14.124618 118.000941
DOCKED: USER    NEWDPF quaternion0 -0.243619 -0.692327 -0.331826 0.592642
DOCKED: USER    NEWDPF axisangle0 -0.302457 -0.859536 -0.411967 107.310601
DOCKED: USER    NEWDPF quat0 -0.302457 -0.859536 -0.411967 107.310601
DOCKED: USER    NEWDPF dihe0 49.05 178.51 -0.12 -41.35 176.44 -68.97 
DOCKED: USER  keepresnum = 1 
DOCKED: USER  
DOCKED: REMARK  Name = 
DOCKED: REMARK  10 active torsions:
DOCKED: REMARK  status: ('A' for Active; 'I' for Inactive)
DOCKED: REMARK    1  A    between atoms: C_1  and  N_2
DOCKED: REMARK    2  A    between atoms: N_2  and  C_3
DOCKED: REMARK    3  A    between atoms: N_2  and  C_22
DOCKED: REMARK    4  A    between atoms: C_6  and  C_9
DOCKED: REMARK    5  A    between atoms: C_9  and  C_10
DOCKED: REMARK    6  A    between atoms: C_10  and  C_11
DOCKED: REMARK    7  A    between atoms: C_10  and  C_20
DOCKED: REMARK    8  A    between atoms: C_12  and  C_13
DOCKED: REMARK    9  A    between atoms: C_12  and  C_19
DOCKED: REMARK   10  A    between atoms: C_14  and  C_15
DOCKED: REMARK                            x       y       z     vdW  Elec       q    Type
DOCKED: REMARK                         _______ _______ _______ _____ _____    ______ ____
DOCKED: USER                              x       y       z     vdW  Elec       q    Type
DOCKED: USER                           _______ _______ _______ _____ _____    ______ ____
DOCKED: ROOT
DOCKED: ATOM      1  C   UNL     1      37.266  15.003 118.667 -0.25 -0.00    +0.000 C 
DOCKED: ATOM      2  C   UNL     1      38.438  15.764 119.293 -0.17 -0.00    +0.000 C 
DOCKED: ENDROOT
DOCKED: BRANCH   1   3
DOCKED: ATOM      3  C   UNL     1      37.313  13.545 119.078 -0.42 -0.00    +0.000 C 
DOCKED: ATOM      4  C   UNL     1      37.440  13.104 120.347 -0.47 -0.00    +0.000 C 
DOCKED: ATOM      5  C   UNL     1      37.538  14.057 121.517 -0.41 -0.00    +0.000 C 
DOCKED: BRANCH   4   6
DOCKED: ATOM      6  C   UNL     1      37.435  11.636 120.575 -0.48 -0.00    +0.000 C 
DOCKED: ATOM      7  C   UNL     1      37.044  11.076 121.730 -0.53 -0.00    +0.000 C 
DOCKED: BRANCH   7   8
DOCKED: ATOM      8  C   UNL     1      37.033   9.618 121.967 -0.61 -0.00    +0.000 C 
DOCKED: ATOM      9  N   UNL     1      37.005   9.054 123.283 -0.62 -0.00    +0.000 N 
DOCKED: ATOM     10  O   UNL     1      36.889   7.715 123.445 -2.59 -0.00    +0.000 OA
DOCKED: ATOM     11  O   UNL     1      37.073   8.850 120.969 -2.70 -0.00    +0.000 OA
DOCKED: ATOM     12  H   UNL     1      37.069   9.641 124.071 -0.54 -0.00    +0.000 HD
DOCKED: ENDBRANCH   7   8
DOCKED: ENDBRANCH   4   6
DOCKED: ENDBRANCH   1   3
DOCKED: BRANCH   1  13
DOCKED: ATOM     13  C   UNL     1      37.314  15.138 117.157 -0.22 -0.00    +0.000 C 
DOCKED: ATOM     14  O   UNL     1      38.310  15.703 116.624 -0.15 -0.00    +0.000 OA
DOCKED: BRANCH  13  18
DOCKED: ATOM     15  C   UNL     1      34.082  13.725 114.657 -0.25 -0.00    +0.000 A 
DOCKED: ATOM     16  C   UNL     1      33.873  14.040 116.014 -0.30 -0.00    +0.000 A 
DOCKED: ATOM     17  C   UNL     1      34.923  14.495 116.815 -0.30 -0.00    +0.000 A 
DOCKED: ATOM     18  C   UNL     1      36.212  14.658 116.284 -0.25 -0.00    +0.000 A 
DOCKED: ATOM     19  C   UNL     1      36.431  14.333 114.934 -0.25 -0.00    +0.000 A 
DOCKED: ATOM     20  C   UNL     1      35.382  13.877 114.132 -0.24 -0.00    +0.000 A 
DOCKED: ATOM     21  CM  UNL     1      35.151  14.188 115.473 +0.00 -0.00    +0.000 AC
DOCKED: BRANCH  15  22
DOCKED: ATOM     22  C   UNL     1      32.960  11.862 113.350 -0.51 -0.00    +0.000 C 
DOCKED: ATOM     23  N   UNL     1      32.991  13.253 113.824 -0.32 -0.00    +0.000 N 
DOCKED: ATOM     24  C   UNL     1      31.900  14.156 113.440 -0.17 -0.00    +0.000 C 
DOCKED: ENDBRANCH  15  22
DOCKED: ENDBRANCH  13  18
DOCKED: ENDBRANCH   1  13
DOCKED: TORSDOF 6DOCKED: TER
DOCKED: ENDMDL
________________________________________________________________________________


	BEGINNING GENETIC ALGORITHM DOCKING 56 of 100
Run: 56 Seed: 1099971854 681094491 [ Run 56 of 100 GA/GALS ]
Beginning LAMARCKIAN GENETIC ALGORITHM (LGA), with a maximum of 2500000 energy evaluations.

Final-Value: -14.912


	FINAL GENETIC ALGORITHM DOCKED STATE
	_______________________________________________


Detailed state:  trans 36.785 14.883 123.363 quatxyzw -0.561649 -0.817895 -0.117264 -0.042984 center -0.963 -0.416 0.212 ntor 6 -175.0033 -179.9961 178.4884 -147.2467 73.6272 -41.3354
State:	 36.785  14.883 123.363  -0.562 -0.819 -0.117 -175.073   -175.00 -180.00  178.49 -147.25   73.63  -41.34

DOCKED: MODEL       56
DOCKED: USER    Run = 56
DOCKED: USER    DPF = ligand_dock.biased.dpf
DOCKED: USER  
DOCKED: USER    Estimated Free Energy of Binding    =  -12.15 kcal/mol  [=(1)+(2)+(3)-(4)]
DOCKED: USER    Estimated Inhibition Constant, Ki   =    1.25 nM (nanomolar)  [Temperature = 298.15 K]
DOCKED: USER    
DOCKED: USER    (1) Final Intermolecular Energy     =  -13.94 kcal/mol
DOCKED: USER        vdW + Hbond + desolv Energy     =  -13.94 kcal/mol
DOCKED: USER        Electrostatic Energy            =   +0.00 kcal/mol
DOCKED: USER    (2) Final Total Internal Energy     =   -0.97 kcal/mol
DOCKED: USER    (3) Torsional Free Energy           =   +1.79 kcal/mol
DOCKED: USER    (4) Unbound System's Energy  [=(2)] =   -0.97 kcal/mol
DOCKED: USER    
DOCKED: USER    
DOCKED: USER    NEWDPF move ligand.dum.pdbqt
DOCKED: USER    NEWDPF about -0.963000 -0.416000 0.212000
DOCKED: USER    NEWDPF tran0 36.785472 14.882564 123.363072
DOCKED: USER    NEWDPF quaternion0 -0.561649 -0.817895 -0.117264 -0.042984
DOCKED: USER    NEWDPF axisangle0 -0.562169 -0.818651 -0.117372 -175.072865
DOCKED: USER    NEWDPF quat0 -0.562169 -0.818651 -0.117372 -175.072865
DOCKED: USER    NEWDPF dihe0 -175.00 -180.00 178.49 -147.25 73.63 -41.34 
DOCKED: USER  keepresnum = 1 
DOCKED: USER  
DOCKED: REMARK  Name = 
DOCKED: REMARK  10 active torsions:
DOCKED: REMARK  status: ('A' for Active; 'I' for Inactive)
DOCKED: REMARK    1  A    between atoms: C_1  and  N_2
DOCKED: REMARK    2  A    between atoms: N_2  and  C_3
DOCKED: REMARK    3  A    between atoms: N_2  and  C_22
DOCKED: REMARK    4  A    between atoms: C_6  and  C_9
DOCKED: REMARK    5  A    between atoms: C_9  and  C_10
DOCKED: REMARK    6  A    between atoms: C_10  and  C_11
DOCKED: REMARK    7  A    between atoms: C_10  and  C_20
DOCKED: REMARK    8  A    between atoms: C_12  and  C_13
DOCKED: REMARK    9  A    between atoms: C_12  and  C_19
DOCKED: REMARK   10  A    between atoms: C_14  and  C_15
DOCKED: REMARK                            x       y       z     vdW  Elec       q    Type
DOCKED: REMARK                         _______ _______ _______ _____ _____    ______ ____
DOCKED: USER                              x       y       z     vdW  Elec       q    Type
DOCKED: USER                           _______ _______ _______ _____ _____    ______ ____
DOCKED: ROOT
DOCKED: ATOM      1  C   UNL     1      37.805  15.523 122.308 -0.32 -0.00    +0.000 C 
DOCKED: ATOM      2  C   UNL     1      38.746  16.067 121.231 -0.21 -0.00    +0.000 C 
DOCKED: ENDROOT
DOCKED: BRANCH   1   3
DOCKED: ATOM      3  C   UNL     1      37.670  14.019 122.170 -0.46 -0.00    +0.000 C 
DOCKED: ATOM      4  C   UNL     1      37.281  13.379 121.047 -0.45 -0.00    +0.000 C 
DOCKED: ATOM      5  C   UNL     1      36.945  14.127 119.776 -0.28 -0.00    +0.000 C 
DOCKED: BRANCH   4   6
DOCKED: ATOM      6  C   UNL     1      37.234  11.894 121.076 -0.52 -0.00    +0.000 C 
DOCKED: ATOM      7  C   UNL     1      37.073  11.190 122.207 -0.55 -0.00    +0.000 C 
DOCKED: BRANCH   7   8
DOCKED: ATOM      8  C   UNL     1      37.022   9.714 122.247 -0.60 -0.00    +0.000 C 
DOCKED: ATOM      9  N   UNL     1      37.219   8.971 123.456 -0.54 -0.00    +0.000 N 
DOCKED: ATOM     10  O   UNL     1      37.059   7.628 123.461 -2.63 -0.00    +0.000 OA
DOCKED: ATOM     11  O   UNL     1      36.821   9.092 121.170 -2.66 -0.00    +0.000 OA
DOCKED: ATOM     12  H   UNL     1      37.471   9.440 124.286 -0.64 -0.00    +0.000 HD
DOCKED: ENDBRANCH   7   8
DOCKED: ENDBRANCH   4   6
DOCKED: ENDBRANCH   1   3
DOCKED: BRANCH   1  13
DOCKED: ATOM     13  C   UNL     1      36.451  16.196 122.197 -0.28 -0.00    +0.000 C 
DOCKED: ATOM     14  O   UNL     1      36.019  16.516 121.054 -0.24 -0.00    +0.000 OA
DOCKED: BRANCH  13  18
DOCKED: ATOM     15  C   UNL     1      34.029  17.114 125.658 -0.38 -0.00    +0.000 A 
DOCKED: ATOM     16  C   UNL     1      34.068  15.814 125.117 -0.45 -0.00    +0.000 A 
DOCKED: ATOM     17  C   UNL     1      34.852  15.526 123.997 -0.51 -0.00    +0.000 A 
DOCKED: ATOM     18  C   UNL     1      35.629  16.525 123.390 -0.34 -0.00    +0.000 A 
DOCKED: ATOM     19  C   UNL     1      35.586  17.828 123.917 -0.27 -0.00    +0.000 A 
DOCKED: ATOM     20  C   UNL     1      34.800  18.116 125.036 -0.30 -0.00    +0.000 A 
DOCKED: ATOM     21  CM  UNL     1      34.827  16.820 124.519 -0.22 -0.00    +0.000 AC
DOCKED: BRANCH  15  22
DOCKED: ATOM     22  C   UNL     1      32.868  16.358 127.783 -0.45 -0.00    +0.000 C 
DOCKED: ATOM     23  N   UNL     1      33.214  17.414 126.822 -0.37 -0.00    +0.000 N 
DOCKED: ATOM     24  C   UNL     1      32.724  18.776 127.058 -0.27 -0.00    +0.000 C 
DOCKED: ENDBRANCH  15  22
DOCKED: ENDBRANCH  13  18
DOCKED: ENDBRANCH   1  13
DOCKED: TORSDOF 6DOCKED: TER
DOCKED: ENDMDL
________________________________________________________________________________


	BEGINNING GENETIC ALGORITHM DOCKING 57 of 100
Run: 57 Seed: 715293890 1393859125 [ Run 57 of 100 GA/GALS ]
Beginning LAMARCKIAN GENETIC ALGORITHM (LGA), with a maximum of 2500000 energy evaluations.

Final-Value: -13.955


	FINAL GENETIC ALGORITHM DOCKED STATE
	_______________________________________________


Detailed state:  trans 39.408 14.817 121.398 quatxyzw 0.058798 -0.135212 -0.477130 0.866376 center -0.963 -0.416 0.212 ntor 6 161.4321 34.5215 44.6082 -36.6839 170.2173 -49.3952
State:	 39.408  14.817 121.398   0.118 -0.271 -0.955 59.920    161.43   34.52   44.61  -36.68  170.22  -49.40

DOCKED: MODEL       57
DOCKED: USER    Run = 57
DOCKED: USER    DPF = ligand_dock.biased.dpf
DOCKED: USER  
DOCKED: USER    Estimated Free Energy of Binding    =  -11.24 kcal/mol  [=(1)+(2)+(3)-(4)]
DOCKED: USER    Estimated Inhibition Constant, Ki   =    5.76 nM (nanomolar)  [Temperature = 298.15 K]
DOCKED: USER    
DOCKED: USER    (1) Final Intermolecular Energy     =  -13.03 kcal/mol
DOCKED: USER        vdW + Hbond + desolv Energy     =  -13.03 kcal/mol
DOCKED: USER        Electrostatic Energy            =   +0.00 kcal/mol
DOCKED: USER    (2) Final Total Internal Energy     =   -0.92 kcal/mol
DOCKED: USER    (3) Torsional Free Energy           =   +1.79 kcal/mol
DOCKED: USER    (4) Unbound System's Energy  [=(2)] =   -0.92 kcal/mol
DOCKED: USER    
DOCKED: USER    
DOCKED: USER    NEWDPF move ligand.dum.pdbqt
DOCKED: USER    NEWDPF about -0.963000 -0.416000 0.212000
DOCKED: USER    NEWDPF tran0 39.408125 14.817454 121.397953
DOCKED: USER    NEWDPF quaternion0 0.058798 -0.135212 -0.477130 0.866376
DOCKED: USER    NEWDPF axisangle0 0.117740 -0.270753 -0.955421 59.919648
DOCKED: USER    NEWDPF quat0 0.117740 -0.270753 -0.955421 59.919648
DOCKED: USER    NEWDPF dihe0 161.43 34.52 44.61 -36.68 170.22 -49.40 
DOCKED: USER  keepresnum = 1 
DOCKED: USER  
DOCKED: REMARK  Name = 
DOCKED: REMARK  10 active torsions:
DOCKED: REMARK  status: ('A' for Active; 'I' for Inactive)
DOCKED: REMARK    1  A    between atoms: C_1  and  N_2
DOCKED: REMARK    2  A    between atoms: N_2  and  C_3
DOCKED: REMARK    3  A    between atoms: N_2  and  C_22
DOCKED: REMARK    4  A    between atoms: C_6  and  C_9
DOCKED: REMARK    5  A    between atoms: C_9  and  C_10
DOCKED: REMARK    6  A    between atoms: C_10  and  C_11
DOCKED: REMARK    7  A    between atoms: C_10  and  C_20
DOCKED: REMARK    8  A    between atoms: C_12  and  C_13
DOCKED: REMARK    9  A    between atoms: C_12  and  C_19
DOCKED: REMARK   10  A    between atoms: C_14  and  C_15
DOCKED: REMARK                            x       y       z     vdW  Elec       q    Type
DOCKED: REMARK                         _______ _______ _______ _____ _____    ______ ____
DOCKED: USER                              x       y       z     vdW  Elec       q    Type
DOCKED: USER                           _______ _______ _______ _____ _____    ______ ____
DOCKED: ROOT
DOCKED: ATOM      1  C   UNL     1      38.772  15.645 122.611 -0.34 -0.00    +0.000 C 
DOCKED: ATOM      2  C   UNL     1      38.194  16.363 123.833 -0.10 -0.00    +0.000 C 
DOCKED: ENDROOT
DOCKED: BRANCH   1   3
DOCKED: ATOM      3  C   UNL     1      38.602  14.146 122.759 -0.45 -0.00    +0.000 C 
DOCKED: ATOM      4  C   UNL     1      37.428  13.521 122.985 -0.55 -0.00    +0.000 C 
DOCKED: ATOM      5  C   UNL     1      36.127  14.283 123.103 -0.47 -0.00    +0.000 C 
DOCKED: BRANCH   4   6
DOCKED: ATOM      6  C   UNL     1      37.438  12.037 123.071 -0.51 -0.00    +0.000 C 
DOCKED: ATOM      7  C   UNL     1      36.915  11.246 122.122 -0.59 -0.00    +0.000 C 
DOCKED: BRANCH   7   8
DOCKED: ATOM      8  C   UNL     1      36.922   9.771 122.196 -0.62 -0.00    +0.000 C 
DOCKED: ATOM      9  N   UNL     1      37.159   9.064 123.419 -0.55 -0.00    +0.000 N 
DOCKED: ATOM     10  O   UNL     1      37.052   7.716 123.456 -2.69 -0.00    +0.000 OA
DOCKED: ATOM     11  O   UNL     1      36.735   9.117 121.135 -2.63 -0.00    +0.000 OA
DOCKED: ATOM     12  H   UNL     1      37.400   9.561 124.235 -0.63 -0.00    +0.000 HD
DOCKED: ENDBRANCH   7   8
DOCKED: ENDBRANCH   4   6
DOCKED: ENDBRANCH   1   3
DOCKED: BRANCH   1  13
DOCKED: ATOM     13  C   UNL     1      40.235  16.007 122.447 -0.34 -0.00    +0.000 C 
DOCKED: ATOM     14  O   UNL     1      40.899  16.354 123.464 -0.69 -0.00    +0.000 OA
DOCKED: BRANCH  13  18
DOCKED: ATOM     15  C   UNL     1      42.154  15.964 118.572 -0.16 -0.00    +0.000 A 
DOCKED: ATOM     16  C   UNL     1      40.751  15.968 118.693 -0.12 -0.00    +0.000 A 
DOCKED: ATOM     17  C   UNL     1      40.139  15.980 119.949 -0.15 -0.00    +0.000 A 
DOCKED: ATOM     18  C   UNL     1      40.909  15.999 121.122 -0.22 -0.00    +0.000 A 
DOCKED: ATOM     19  C   UNL     1      42.310  15.982 121.009 -0.24 -0.00    +0.000 A 
DOCKED: ATOM     20  C   UNL     1      42.923  15.968 119.754 -0.18 -0.00    +0.000 A 
DOCKED: ATOM     21  CM  UNL     1      41.531  15.977 119.850 +0.00 -0.00    +0.000 AC
DOCKED: BRANCH  15  22
DOCKED: ATOM     22  C   UNL     1      41.983  15.986 116.041 -0.28 -0.00    +0.000 C 
DOCKED: ATOM     23  N   UNL     1      42.791  15.951 117.268 -0.25 -0.00    +0.000 N 
DOCKED: ATOM     24  C   UNL     1      44.253  15.903 117.152 -0.27 -0.00    +0.000 C 
DOCKED: ENDBRANCH  15  22
DOCKED: ENDBRANCH  13  18
DOCKED: ENDBRANCH   1  13
DOCKED: TORSDOF 6DOCKED: TER
DOCKED: ENDMDL
________________________________________________________________________________


	BEGINNING GENETIC ALGORITHM DOCKING 58 of 100
Run: 58 Seed: 1381650577 2000371905 [ Run 58 of 100 GA/GALS ]
Beginning LAMARCKIAN GENETIC ALGORITHM (LGA), with a maximum of 2500000 energy evaluations.

Final-Value: -14.209


	FINAL GENETIC ALGORITHM DOCKED STATE
	_______________________________________________


Detailed state:  trans 37.550 15.130 121.837 quatxyzw 0.077980 0.023250 -0.604794 0.792214 center -0.963 -0.416 0.212 ntor 6 -53.6124 105.6264 -132.9632 61.2001 47.5799 -76.3393
State:	 37.550  15.130 121.837   0.128  0.038 -0.991 75.214    -53.61  105.63 -132.96   61.20   47.58  -76.34

DOCKED: MODEL       58
DOCKED: USER    Run = 58
DOCKED: USER    DPF = ligand_dock.biased.dpf
DOCKED: USER  
DOCKED: USER    Estimated Free Energy of Binding    =  -11.07 kcal/mol  [=(1)+(2)+(3)-(4)]
DOCKED: USER    Estimated Inhibition Constant, Ki   =    7.71 nM (nanomolar)  [Temperature = 298.15 K]
DOCKED: USER    
DOCKED: USER    (1) Final Intermolecular Energy     =  -12.86 kcal/mol
DOCKED: USER        vdW + Hbond + desolv Energy     =  -12.86 kcal/mol
DOCKED: USER        Electrostatic Energy            =   +0.00 kcal/mol
DOCKED: USER    (2) Final Total Internal Energy     =   -1.35 kcal/mol
DOCKED: USER    (3) Torsional Free Energy           =   +1.79 kcal/mol
DOCKED: USER    (4) Unbound System's Energy  [=(2)] =   -1.35 kcal/mol
DOCKED: USER    
DOCKED: USER    
DOCKED: USER    NEWDPF move ligand.dum.pdbqt
DOCKED: USER    NEWDPF about -0.963000 -0.416000 0.212000
DOCKED: USER    NEWDPF tran0 37.550287 15.130316 121.837366
DOCKED: USER    NEWDPF quaternion0 0.077980 0.023250 -0.604794 0.792214
DOCKED: USER    NEWDPF axisangle0 0.127786 0.038099 -0.991070 75.214248
DOCKED: USER    NEWDPF quat0 0.127786 0.038099 -0.991070 75.214248
DOCKED: USER    NEWDPF dihe0 -53.61 105.63 -132.96 61.20 47.58 -76.34 
DOCKED: USER  keepresnum = 1 
DOCKED: USER  
DOCKED: REMARK  Name = 
DOCKED: REMARK  10 active torsions:
DOCKED: REMARK  status: ('A' for Active; 'I' for Inactive)
DOCKED: REMARK    1  A    between atoms: C_1  and  N_2
DOCKED: REMARK    2  A    between atoms: N_2  and  C_3
DOCKED: REMARK    3  A    between atoms: N_2  and  C_22
DOCKED: REMARK    4  A    between atoms: C_6  and  C_9
DOCKED: REMARK    5  A    between atoms: C_9  and  C_10
DOCKED: REMARK    6  A    between atoms: C_10  and  C_11
DOCKED: REMARK    7  A    between atoms: C_10  and  C_20
DOCKED: REMARK    8  A    between atoms: C_12  and  C_13
DOCKED: REMARK    9  A    between atoms: C_12  and  C_19
DOCKED: REMARK   10  A    between atoms: C_14  and  C_15
DOCKED: REMARK                            x       y       z     vdW  Elec       q    Type
DOCKED: REMARK                         _______ _______ _______ _____ _____    ______ ____
DOCKED: USER                              x       y       z     vdW  Elec       q    Type
DOCKED: USER                           _______ _______ _______ _____ _____    ______ ____
DOCKED: ROOT
DOCKED: ATOM      1  C   UNL     1      36.419  15.504 122.905 -0.39 -0.00    +0.000 C 
DOCKED: ATOM      2  C   UNL     1      35.374  15.790 123.988 -0.50 -0.00    +0.000 C 
DOCKED: ENDROOT
DOCKED: BRANCH   1   3
DOCKED: ATOM      3  C   UNL     1      36.719  14.019 122.851 -0.50 -0.00    +0.000 C 
DOCKED: ATOM      4  C   UNL     1      37.149  13.358 121.755 -0.47 -0.00    +0.000 C 
DOCKED: ATOM      5  C   UNL     1      37.390  14.064 120.440 -0.36 -0.00    +0.000 C 
DOCKED: BRANCH   4   6
DOCKED: ATOM      6  C   UNL     1      37.426  11.904 121.887 -0.44 -0.00    +0.000 C 
DOCKED: ATOM      7  C   UNL     1      36.458  10.981 121.991 -0.61 -0.00    +0.000 C 
DOCKED: BRANCH   7   8
DOCKED: ATOM      8  C   UNL     1      36.722   9.534 122.119 -0.69 -0.00    +0.000 C 
DOCKED: ATOM      9  N   UNL     1      36.924   8.900 123.388 -0.61 -0.00    +0.000 N 
DOCKED: ATOM     10  O   UNL     1      37.059   7.555 123.460 -2.57 -0.00    +0.000 OA
DOCKED: ATOM     11  O   UNL     1      36.796   8.843 121.068 -2.64 -0.00    +0.000 OA
DOCKED: ATOM     12  H   UNL     1      36.963   9.443 124.209 -0.56 -0.00    +0.000 HD
DOCKED: ENDBRANCH   7   8
DOCKED: ENDBRANCH   4   6
DOCKED: ENDBRANCH   1   3
DOCKED: BRANCH   1  13
DOCKED: ATOM     13  C   UNL     1      37.680  16.298 123.186 -0.29 -0.00    +0.000 C 
DOCKED: ATOM     14  O   UNL     1      37.714  17.058 124.194 -0.28 -0.00    +0.000 OA
DOCKED: BRANCH  13  18
DOCKED: ATOM     15  C   UNL     1      41.165  16.117 120.634 -0.17 -0.00    +0.000 A 
DOCKED: ATOM     16  C   UNL     1      41.145  15.481 121.890 -0.36 -0.00    +0.000 A 
DOCKED: ATOM     17  C   UNL     1      40.015  15.545 122.709 -0.32 -0.00    +0.000 A 
DOCKED: ATOM     18  C   UNL     1      38.868  16.239 122.294 -0.22 -0.00    +0.000 A 
DOCKED: ATOM     19  C   UNL     1      38.884  16.886 121.047 -0.11 -0.00    +0.000 A 
DOCKED: ATOM     20  C   UNL     1      40.015  16.824 120.228 -0.11 -0.00    +0.000 A 
DOCKED: ATOM     21  CM  UNL     1      40.015  16.182 121.467 +0.00 -0.00    +0.000 AC
DOCKED: BRANCH  15  22
DOCKED: ATOM     22  C   UNL     1      42.200  16.030 118.319 -0.20 -0.00    +0.000 C 
DOCKED: ATOM     23  N   UNL     1      42.339  16.050 119.781 -0.18 -0.00    +0.000 N 
DOCKED: ATOM     24  C   UNL     1      43.684  16.003 120.367 -0.27 -0.00    +0.000 C 
DOCKED: ENDBRANCH  15  22
DOCKED: ENDBRANCH  13  18
DOCKED: ENDBRANCH   1  13
DOCKED: TORSDOF 6DOCKED: TER
DOCKED: ENDMDL
________________________________________________________________________________


	BEGINNING GENETIC ALGORITHM DOCKING 59 of 100
Run: 59 Seed: 1005118258 125576194 [ Run 59 of 100 GA/GALS ]
Beginning LAMARCKIAN GENETIC ALGORITHM (LGA), with a maximum of 2500000 energy evaluations.

Final-Value: -14.772


	FINAL GENETIC ALGORITHM DOCKED STATE
	_______________________________________________


Detailed state:  trans 36.613 15.269 124.441 quatxyzw -0.542331 -0.838791 -0.047791 -0.004748 center -0.963 -0.416 0.212 ntor 6 -167.9545 26.7433 -24.1735 -143.2854 -112.6288 -45.9026
State:	 36.613  15.269 124.441  -0.542 -0.839 -0.048 -179.456   -167.95   26.74  -24.17 -143.29 -112.63  -45.90

DOCKED: MODEL       59
DOCKED: USER    Run = 59
DOCKED: USER    DPF = ligand_dock.biased.dpf
DOCKED: USER  
DOCKED: USER    Estimated Free Energy of Binding    =  -12.05 kcal/mol  [=(1)+(2)+(3)-(4)]
DOCKED: USER    Estimated Inhibition Constant, Ki   =    1.46 nM (nanomolar)  [Temperature = 298.15 K]
DOCKED: USER    
DOCKED: USER    (1) Final Intermolecular Energy     =  -13.84 kcal/mol
DOCKED: USER        vdW + Hbond + desolv Energy     =  -13.84 kcal/mol
DOCKED: USER        Electrostatic Energy            =   +0.00 kcal/mol
DOCKED: USER    (2) Final Total Internal Energy     =   -0.93 kcal/mol
DOCKED: USER    (3) Torsional Free Energy           =   +1.79 kcal/mol
DOCKED: USER    (4) Unbound System's Energy  [=(2)] =   -0.93 kcal/mol
DOCKED: USER    
DOCKED: USER    
DOCKED: USER    NEWDPF move ligand.dum.pdbqt
DOCKED: USER    NEWDPF about -0.963000 -0.416000 0.212000
DOCKED: USER    NEWDPF tran0 36.612973 15.269446 124.440814
DOCKED: USER    NEWDPF quaternion0 -0.542331 -0.838791 -0.047791 -0.004748
DOCKED: USER    NEWDPF axisangle0 -0.542337 -0.838801 -0.047792 -179.455941
DOCKED: USER    NEWDPF quat0 -0.542337 -0.838801 -0.047792 -179.455941
DOCKED: USER    NEWDPF dihe0 -167.95 26.74 -24.17 -143.29 -112.63 -45.90 
DOCKED: USER  keepresnum = 1 
DOCKED: USER  
DOCKED: REMARK  Name = 
DOCKED: REMARK  10 active torsions:
DOCKED: REMARK  status: ('A' for Active; 'I' for Inactive)
DOCKED: REMARK    1  A    between atoms: C_1  and  N_2
DOCKED: REMARK    2  A    between atoms: N_2  and  C_3
DOCKED: REMARK    3  A    between atoms: N_2  and  C_22
DOCKED: REMARK    4  A    between atoms: C_6  and  C_9
DOCKED: REMARK    5  A    between atoms: C_9  and  C_10
DOCKED: REMARK    6  A    between atoms: C_10  and  C_11
DOCKED: REMARK    7  A    between atoms: C_10  and  C_20
DOCKED: REMARK    8  A    between atoms: C_12  and  C_13
DOCKED: REMARK    9  A    between atoms: C_12  and  C_19
DOCKED: REMARK   10  A    between atoms: C_14  and  C_15
DOCKED: REMARK                            x       y       z     vdW  Elec       q    Type
DOCKED: REMARK                         _______ _______ _______ _____ _____    ______ ____
DOCKED: USER                              x       y       z     vdW  Elec       q    Type
DOCKED: USER                           _______ _______ _______ _____ _____    ______ ____
DOCKED: ROOT
DOCKED: ATOM      1  C   UNL     1      37.592  15.784 123.284 -0.34 -0.00    +0.000 C 
DOCKED: ATOM      2  C   UNL     1      38.498  16.197 122.122 -0.24 -0.00    +0.000 C 
DOCKED: ENDROOT
DOCKED: BRANCH   1   3
DOCKED: ATOM      3  C   UNL     1      37.536  14.273 123.388 -0.43 -0.00    +0.000 C 
DOCKED: ATOM      4  C   UNL     1      37.249  13.439 122.367 -0.51 -0.00    +0.000 C 
DOCKED: ATOM      5  C   UNL     1      36.961  13.952 120.974 -0.24 -0.00    +0.000 C 
DOCKED: BRANCH   4   6
DOCKED: ATOM      6  C   UNL     1      37.269  11.978 122.638 -0.53 -0.00    +0.000 C 
DOCKED: ATOM      7  C   UNL     1      37.046  11.055 121.690 -0.53 -0.00    +0.000 C 
DOCKED: BRANCH   7   8
DOCKED: ATOM      8  C   UNL     1      37.067   9.600 121.948 -0.60 -0.00    +0.000 C 
DOCKED: ATOM      9  N   UNL     1      37.138   9.056 123.271 -0.60 -0.00    +0.000 N 
DOCKED: ATOM     10  O   UNL     1      37.049   7.719 123.460 -2.69 -0.00    +0.000 OA
DOCKED: ATOM     11  O   UNL     1      37.045   8.817 120.961 -2.67 -0.00    +0.000 OA
DOCKED: ATOM     12  H   UNL     1      37.252   9.656 124.044 -0.54 -0.00    +0.000 HD
DOCKED: ENDBRANCH   7   8
DOCKED: ENDBRANCH   4   6
DOCKED: ENDBRANCH   1   3
DOCKED: BRANCH   1  13
DOCKED: ATOM     13  C   UNL     1      36.204  16.361 123.085 -0.35 -0.00    +0.000 C 
DOCKED: ATOM     14  O   UNL     1      35.784  16.553 121.909 -0.28 -0.00    +0.000 OA
DOCKED: BRANCH  13  18
DOCKED: ATOM     15  C   UNL     1      33.701  17.509 126.418 -0.35 -0.00    +0.000 A 
DOCKED: ATOM     16  C   UNL     1      34.542  18.441 125.780 -0.27 -0.00    +0.000 A 
DOCKED: ATOM     17  C   UNL     1      35.349  18.062 124.705 -0.27 -0.00    +0.000 A 
DOCKED: ATOM     18  C   UNL     1      35.333  16.742 124.227 -0.37 -0.00    +0.000 A 
DOCKED: ATOM     19  C   UNL     1      34.505  15.803 124.866 -0.48 -0.00    +0.000 A 
DOCKED: ATOM     20  C   UNL     1      33.699  16.181 125.943 -0.30 -0.00    +0.000 A 
DOCKED: ATOM     21  CM  UNL     1      34.522  17.123 125.323 -0.32 -0.00    +0.000 AC
DOCKED: BRANCH  15  22
DOCKED: ATOM     22  C   UNL     1      32.300  19.257 127.607 -0.23 -0.00    +0.000 C 
DOCKED: ATOM     23  N   UNL     1      32.861  17.902 127.535 -0.29 -0.00    +0.000 N 
DOCKED: ATOM     24  C   UNL     1      32.560  16.952 128.612 -0.40 -0.00    +0.000 C 
DOCKED: ENDBRANCH  15  22
DOCKED: ENDBRANCH  13  18
DOCKED: ENDBRANCH   1  13
DOCKED: TORSDOF 6DOCKED: TER
DOCKED: ENDMDL
________________________________________________________________________________


	BEGINNING GENETIC ALGORITHM DOCKING 60 of 100
Run: 60 Seed: 1625842628 779044144 [ Run 60 of 100 GA/GALS ]
Beginning LAMARCKIAN GENETIC ALGORITHM (LGA), with a maximum of 2500000 energy evaluations.

Final-Value: -14.142


	FINAL GENETIC ALGORITHM DOCKED STATE
	_______________________________________________


Detailed state:  trans 36.143 14.688 120.399 quatxyzw -0.238315 -0.625190 -0.362951 0.648544 center -0.963 -0.416 0.212 ntor 6 -116.1835 -10.6768 151.5209 -18.6507 67.9825 -66.0162
State:	 36.143  14.688 120.399  -0.313 -0.821 -0.477 99.136   -116.18  -10.68  151.52  -18.65   67.98  -66.02

DOCKED: MODEL       60
DOCKED: USER    Run = 60
DOCKED: USER    DPF = ligand_dock.biased.dpf
DOCKED: USER  
DOCKED: USER    Estimated Free Energy of Binding    =  -11.16 kcal/mol  [=(1)+(2)+(3)-(4)]
DOCKED: USER    Estimated Inhibition Constant, Ki   =    6.65 nM (nanomolar)  [Temperature = 298.15 K]
DOCKED: USER    
DOCKED: USER    (1) Final Intermolecular Energy     =  -12.95 kcal/mol
DOCKED: USER        vdW + Hbond + desolv Energy     =  -12.95 kcal/mol
DOCKED: USER        Electrostatic Energy            =   +0.00 kcal/mol
DOCKED: USER    (2) Final Total Internal Energy     =   -1.20 kcal/mol
DOCKED: USER    (3) Torsional Free Energy           =   +1.79 kcal/mol
DOCKED: USER    (4) Unbound System's Energy  [=(2)] =   -1.20 kcal/mol
DOCKED: USER    
DOCKED: USER    
DOCKED: USER    NEWDPF move ligand.dum.pdbqt
DOCKED: USER    NEWDPF about -0.963000 -0.416000 0.212000
DOCKED: USER    NEWDPF tran0 36.143071 14.687850 120.399006
DOCKED: USER    NEWDPF quaternion0 -0.238315 -0.625190 -0.362951 0.648544
DOCKED: USER    NEWDPF axisangle0 -0.313088 -0.821346 -0.476829 99.136127
DOCKED: USER    NEWDPF quat0 -0.313088 -0.821346 -0.476829 99.136127
DOCKED: USER    NEWDPF dihe0 -116.18 -10.68 151.52 -18.65 67.98 -66.02 
DOCKED: USER  keepresnum = 1 
DOCKED: USER  
DOCKED: REMARK  Name = 
DOCKED: REMARK  10 active torsions:
DOCKED: REMARK  status: ('A' for Active; 'I' for Inactive)
DOCKED: REMARK    1  A    between atoms: C_1  and  N_2
DOCKED: REMARK    2  A    between atoms: N_2  and  C_3
DOCKED: REMARK    3  A    between atoms: N_2  and  C_22
DOCKED: REMARK    4  A    between atoms: C_6  and  C_9
DOCKED: REMARK    5  A    between atoms: C_9  and  C_10
DOCKED: REMARK    6  A    between atoms: C_10  and  C_11
DOCKED: REMARK    7  A    between atoms: C_10  and  C_20
DOCKED: REMARK    8  A    between atoms: C_12  and  C_13
DOCKED: REMARK    9  A    between atoms: C_12  and  C_19
DOCKED: REMARK   10  A    between atoms: C_14  and  C_15
DOCKED: REMARK                            x       y       z     vdW  Elec       q    Type
DOCKED: REMARK                         _______ _______ _______ _____ _____    ______ ____
DOCKED: USER                              x       y       z     vdW  Elec       q    Type
DOCKED: USER                           _______ _______ _______ _____ _____    ______ ____
DOCKED: ROOT
DOCKED: ATOM      1  C   UNL     1      37.186  15.496 121.305 -0.26 -0.00    +0.000 C 
DOCKED: ATOM      2  C   UNL     1      38.245  16.187 122.168 -0.25 -0.00    +0.000 C 
DOCKED: ENDROOT
DOCKED: BRANCH   1   3
DOCKED: ATOM      3  C   UNL     1      37.130  14.017 121.635 -0.39 -0.00    +0.000 C 
DOCKED: ATOM      4  C   UNL     1      36.603  13.498 122.765 -0.53 -0.00    +0.000 C 
DOCKED: ATOM      5  C   UNL     1      35.988  14.372 123.835 -0.54 -0.00    +0.000 C 
DOCKED: BRANCH   4   6
DOCKED: ATOM      6  C   UNL     1      36.601  12.019 122.912 -0.66 -0.00    +0.000 C 
DOCKED: ATOM      7  C   UNL     1      37.061  11.189 121.964 -0.55 -0.00    +0.000 C 
DOCKED: BRANCH   7   8
DOCKED: ATOM      8  C   UNL     1      37.066   9.718 122.102 -0.59 -0.00    +0.000 C 
DOCKED: ATOM      9  N   UNL     1      37.157   9.066 123.374 -0.56 -0.00    +0.000 N 
DOCKED: ATOM     10  O   UNL     1      37.053   7.719 123.456 -2.69 -0.00    +0.000 OA
DOCKED: ATOM     11  O   UNL     1      37.013   9.018 121.055 -2.70 -0.00    +0.000 OA
DOCKED: ATOM     12  H   UNL     1      37.295   9.599 124.191 -0.61 -0.00    +0.000 HD
DOCKED: ENDBRANCH   7   8
DOCKED: ENDBRANCH   4   6
DOCKED: ENDBRANCH   1   3
DOCKED: BRANCH   1  13
DOCKED: ATOM     13  C   UNL     1      37.501  15.706 119.837 -0.20 -0.00    +0.000 C 
DOCKED: ATOM     14  O   UNL     1      38.611  16.216 119.516 -0.14 -0.00    +0.000 OA
DOCKED: BRANCH  13  18
DOCKED: ATOM     15  C   UNL     1      34.717  14.673 116.696 -0.28 -0.00    +0.000 A 
DOCKED: ATOM     16  C   UNL     1      35.597  13.716 117.236 -0.27 -0.00    +0.000 A 
DOCKED: ATOM     17  C   UNL     1      36.495  14.058 118.250 -0.34 -0.00    +0.000 A 
DOCKED: ATOM     18  C   UNL     1      36.534  15.365 118.762 -0.19 -0.00    +0.000 A 
DOCKED: ATOM     19  C   UNL     1      35.667  16.328 118.219 -0.13 -0.00    +0.000 A 
DOCKED: ATOM     20  C   UNL     1      34.770  15.987 117.203 -0.14 -0.00    +0.000 A 
DOCKED: ATOM     21  CM  UNL     1      35.630  15.021 117.728 +0.00 -0.00    +0.000 AC
DOCKED: BRANCH  15  22
DOCKED: ATOM     22  C   UNL     1      32.484  13.715 115.967 -0.44 -0.00    +0.000 C 
DOCKED: ATOM     23  N   UNL     1      33.783  14.318 115.642 -0.27 -0.00    +0.000 N 
DOCKED: ATOM     24  C   UNL     1      34.122  14.555 114.234 -0.21 -0.00    +0.000 C 
DOCKED: ENDBRANCH  15  22
DOCKED: ENDBRANCH  13  18
DOCKED: ENDBRANCH   1  13
DOCKED: TORSDOF 6DOCKED: TER
DOCKED: ENDMDL
________________________________________________________________________________


	BEGINNING GENETIC ALGORITHM DOCKING 61 of 100
Run: 61 Seed: 527941447 1666300630 [ Run 61 of 100 GA/GALS ]
Beginning LAMARCKIAN GENETIC ALGORITHM (LGA), with a maximum of 2500000 energy evaluations.

Final-Value: -14.937


	FINAL GENETIC ALGORITHM DOCKED STATE
	_______________________________________________


Detailed state:  trans 36.757 14.843 123.618 quatxyzw -0.560832 -0.812881 -0.155335 -0.023752 center -0.963 -0.416 0.212 ntor 6 -169.5929 170.5724 179.2916 -144.8158 -105.6696 -37.9897
State:	 36.757  14.843 123.618  -0.561 -0.813 -0.155 -177.278   -169.59  170.57  179.29 -144.82 -105.67  -37.99

DOCKED: MODEL       61
DOCKED: USER    Run = 61
DOCKED: USER    DPF = ligand_dock.biased.dpf
DOCKED: USER  
DOCKED: USER    Estimated Free Energy of Binding    =  -12.21 kcal/mol  [=(1)+(2)+(3)-(4)]
DOCKED: USER    Estimated Inhibition Constant, Ki   =    1.12 nM (nanomolar)  [Temperature = 298.15 K]
DOCKED: USER    
DOCKED: USER    (1) Final Intermolecular Energy     =  -14.00 kcal/mol
DOCKED: USER        vdW + Hbond + desolv Energy     =  -14.00 kcal/mol
DOCKED: USER        Electrostatic Energy            =   +0.00 kcal/mol
DOCKED: USER    (2) Final Total Internal Energy     =   -0.94 kcal/mol
DOCKED: USER    (3) Torsional Free Energy           =   +1.79 kcal/mol
DOCKED: USER    (4) Unbound System's Energy  [=(2)] =   -0.94 kcal/mol
DOCKED: USER    
DOCKED: USER    
DOCKED: USER    NEWDPF move ligand.dum.pdbqt
DOCKED: USER    NEWDPF about -0.963000 -0.416000 0.212000
DOCKED: USER    NEWDPF tran0 36.757361 14.842815 123.618447
DOCKED: USER    NEWDPF quaternion0 -0.560832 -0.812881 -0.155335 -0.023752
DOCKED: USER    NEWDPF axisangle0 -0.560990 -0.813110 -0.155379 -177.278006
DOCKED: USER    NEWDPF quat0 -0.560990 -0.813110 -0.155379 -177.278006
DOCKED: USER    NEWDPF dihe0 -169.59 170.57 179.29 -144.82 -105.67 -37.99 
DOCKED: USER  keepresnum = 1 
DOCKED: USER  
DOCKED: REMARK  Name = 
DOCKED: REMARK  10 active torsions:
DOCKED: REMARK  status: ('A' for Active; 'I' for Inactive)
DOCKED: REMARK    1  A    between atoms: C_1  and  N_2
DOCKED: REMARK    2  A    between atoms: N_2  and  C_3
DOCKED: REMARK    3  A    between atoms: N_2  and  C_22
DOCKED: REMARK    4  A    between atoms: C_6  and  C_9
DOCKED: REMARK    5  A    between atoms: C_9  and  C_10
DOCKED: REMARK    6  A    between atoms: C_10  and  C_11
DOCKED: REMARK    7  A    between atoms: C_10  and  C_20
DOCKED: REMARK    8  A    between atoms: C_12  and  C_13
DOCKED: REMARK    9  A    between atoms: C_12  and  C_19
DOCKED: REMARK   10  A    between atoms: C_14  and  C_15
DOCKED: REMARK                            x       y       z     vdW  Elec       q    Type
DOCKED: REMARK                         _______ _______ _______ _____ _____    ______ ____
DOCKED: USER                              x       y       z     vdW  Elec       q    Type
DOCKED: USER                           _______ _______ _______ _____ _____    ______ ____
DOCKED: ROOT
DOCKED: ATOM      1  C   UNL     1      37.859  15.512 122.670 -0.35 -0.00    +0.000 C 
DOCKED: ATOM      2  C   UNL     1      38.883  16.088 121.689 -0.23 -0.00    +0.000 C 
DOCKED: ENDROOT
DOCKED: BRANCH   1   3
DOCKED: ATOM      3  C   UNL     1      37.719  14.017 122.458 -0.48 -0.00    +0.000 C 
DOCKED: ATOM      4  C   UNL     1      37.453  13.427 121.274 -0.46 -0.00    +0.000 C 
DOCKED: ATOM      5  C   UNL     1      37.278  14.228 120.003 -0.33 -0.00    +0.000 C 
DOCKED: BRANCH   4   6
DOCKED: ATOM      6  C   UNL     1      37.381  11.943 121.240 -0.50 -0.00    +0.000 C 
DOCKED: ATOM      7  C   UNL     1      37.065  11.201 122.312 -0.57 -0.00    +0.000 C 
DOCKED: BRANCH   7   8
DOCKED: ATOM      8  C   UNL     1      36.987   9.726 122.289 -0.61 -0.00    +0.000 C 
DOCKED: ATOM      9  N   UNL     1      37.211   8.927 123.456 -0.55 -0.00    +0.000 N 
DOCKED: ATOM     10  O   UNL     1      37.026   7.587 123.407 -2.56 -0.00    +0.000 OA
DOCKED: ATOM     11  O   UNL     1      36.738   9.157 121.192 -2.64 -0.00    +0.000 OA
DOCKED: ATOM     12  H   UNL     1      37.500   9.353 124.296 -0.64 -0.00    +0.000 HD
DOCKED: ENDBRANCH   7   8
DOCKED: ENDBRANCH   4   6
DOCKED: ENDBRANCH   1   3
DOCKED: BRANCH   1  13
DOCKED: ATOM     13  C   UNL     1      36.525  16.208 122.487 -0.30 -0.00    +0.000 C 
DOCKED: ATOM     14  O   UNL     1      36.152  16.523 121.322 -0.24 -0.00    +0.000 OA
DOCKED: BRANCH  13  18
DOCKED: ATOM     15  C   UNL     1      34.019  17.283 125.842 -0.37 -0.00    +0.000 A 
DOCKED: ATOM     16  C   UNL     1      34.840  18.236 125.209 -0.29 -0.00    +0.000 A 
DOCKED: ATOM     17  C   UNL     1      35.648  17.880 124.126 -0.26 -0.00    +0.000 A 
DOCKED: ATOM     18  C   UNL     1      35.653  16.564 123.637 -0.35 -0.00    +0.000 A 
DOCKED: ATOM     19  C   UNL     1      34.845  15.605 124.272 -0.51 -0.00    +0.000 A 
DOCKED: ATOM     20  C   UNL     1      34.038  15.960 125.357 -0.43 -0.00    +0.000 A 
DOCKED: ATOM     21  CM  UNL     1      34.841  16.922 124.740 -0.28 -0.00    +0.000 AC
DOCKED: BRANCH  15  22
DOCKED: ATOM     22  C   UNL     1      32.623  19.008 127.072 -0.27 -0.00    +0.000 C 
DOCKED: ATOM     23  N   UNL     1      33.179  17.652 126.968 -0.34 -0.00    +0.000 N 
DOCKED: ATOM     24  C   UNL     1      32.870  16.677 128.020 -0.44 -0.00    +0.000 C 
DOCKED: ENDBRANCH  15  22
DOCKED: ENDBRANCH  13  18
DOCKED: ENDBRANCH   1  13
DOCKED: TORSDOF 6DOCKED: TER
DOCKED: ENDMDL
________________________________________________________________________________


	BEGINNING GENETIC ALGORITHM DOCKING 62 of 100
Run: 62 Seed: 1491511838 1429034555 [ Run 62 of 100 GA/GALS ]
Beginning LAMARCKIAN GENETIC ALGORITHM (LGA), with a maximum of 2500000 energy evaluations.

Final-Value: -14.667


	FINAL GENETIC ALGORITHM DOCKED STATE
	_______________________________________________


Detailed state:  trans 36.687 15.183 122.404 quatxyzw 0.470052 0.760421 0.239761 -0.378584 center -0.963 -0.416 0.212 ntor 6 -165.7505 7.8418 96.8415 62.5466 77.0657 -180.0000
State:	 36.687  15.183 122.404   0.508  0.822  0.259 -135.508   -165.75    7.84   96.84   62.55   77.07 -180.00

DOCKED: MODEL       62
DOCKED: USER    Run = 62
DOCKED: USER    DPF = ligand_dock.biased.dpf
DOCKED: USER  
DOCKED: USER    Estimated Free Energy of Binding    =  -11.36 kcal/mol  [=(1)+(2)+(3)-(4)]
DOCKED: USER    Estimated Inhibition Constant, Ki   =    4.70 nM (nanomolar)  [Temperature = 298.15 K]
DOCKED: USER    
DOCKED: USER    (1) Final Intermolecular Energy     =  -13.15 kcal/mol
DOCKED: USER        vdW + Hbond + desolv Energy     =  -13.15 kcal/mol
DOCKED: USER        Electrostatic Energy            =   +0.00 kcal/mol
DOCKED: USER    (2) Final Total Internal Energy     =   -1.52 kcal/mol
DOCKED: USER    (3) Torsional Free Energy           =   +1.79 kcal/mol
DOCKED: USER    (4) Unbound System's Energy  [=(2)] =   -1.52 kcal/mol
DOCKED: USER    
DOCKED: USER    
DOCKED: USER    NEWDPF move ligand.dum.pdbqt
DOCKED: USER    NEWDPF about -0.963000 -0.416000 0.212000
DOCKED: USER    NEWDPF tran0 36.687094 15.183371 122.404035
DOCKED: USER    NEWDPF quaternion0 0.470052 0.760421 0.239761 -0.378584
DOCKED: USER    NEWDPF axisangle0 0.507854 0.821573 0.259042 -135.508022
DOCKED: USER    NEWDPF quat0 0.507854 0.821573 0.259042 -135.508022
DOCKED: USER    NEWDPF dihe0 -165.75 7.84 96.84 62.55 77.07 -180.00 
DOCKED: USER  keepresnum = 1 
DOCKED: USER  
DOCKED: REMARK  Name = 
DOCKED: REMARK  10 active torsions:
DOCKED: REMARK  status: ('A' for Active; 'I' for Inactive)
DOCKED: REMARK    1  A    between atoms: C_1  and  N_2
DOCKED: REMARK    2  A    between atoms: N_2  and  C_3
DOCKED: REMARK    3  A    between atoms: N_2  and  C_22
DOCKED: REMARK    4  A    between atoms: C_6  and  C_9
DOCKED: REMARK    5  A    between atoms: C_9  and  C_10
DOCKED: REMARK    6  A    between atoms: C_10  and  C_11
DOCKED: REMARK    7  A    between atoms: C_10  and  C_20
DOCKED: REMARK    8  A    between atoms: C_12  and  C_13
DOCKED: REMARK    9  A    between atoms: C_12  and  C_19
DOCKED: REMARK   10  A    between atoms: C_14  and  C_15
DOCKED: REMARK                            x       y       z     vdW  Elec       q    Type
DOCKED: REMARK                         _______ _______ _______ _____ _____    ______ ____
DOCKED: USER                              x       y       z     vdW  Elec       q    Type
DOCKED: USER                           _______ _______ _______ _____ _____    ______ ____
DOCKED: ROOT
DOCKED: ATOM      1  C   UNL     1      38.221  15.640 122.395 -0.32 -0.00    +0.000 C 
DOCKED: ATOM      2  C   UNL     1      39.709  15.992 122.334 -0.31 -0.00    +0.000 C 
DOCKED: ENDROOT
DOCKED: BRANCH   1   3
DOCKED: ATOM      3  C   UNL     1      38.046  14.140 122.532 -0.48 -0.00    +0.000 C 
DOCKED: ATOM      4  C   UNL     1      36.976  13.535 123.090 -0.56 -0.00    +0.000 C 
DOCKED: ATOM      5  C   UNL     1      35.808  14.324 123.637 -0.54 -0.00    +0.000 C 
DOCKED: BRANCH   4   6
DOCKED: ATOM      6  C   UNL     1      36.954  12.050 123.113 -0.66 -0.00    +0.000 C 
DOCKED: ATOM      7  C   UNL     1      37.061  11.299 122.006 -0.55 -0.00    +0.000 C 
DOCKED: BRANCH   7   8
DOCKED: ATOM      8  C   UNL     1      37.043   9.822 122.018 -0.58 -0.00    +0.000 C 
DOCKED: ATOM      9  N   UNL     1      37.114   9.063 123.230 -0.62 -0.00    +0.000 N 
DOCKED: ATOM     10  O   UNL     1      36.989   7.716 123.195 -2.53 -0.00    +0.000 OA
DOCKED: ATOM     11  O   UNL     1      36.988   9.215 120.915 -2.70 -0.00    +0.000 OA
DOCKED: ATOM     12  H   UNL     1      37.254   9.522 124.091 -0.57 -0.00    +0.000 HD
DOCKED: ENDBRANCH   7   8
DOCKED: ENDBRANCH   4   6
DOCKED: ENDBRANCH   1   3
DOCKED: BRANCH   1  13
DOCKED: ATOM     13  C   UNL     1      37.520  16.151 121.152 -0.20 -0.00    +0.000 C 
DOCKED: ATOM     14  O   UNL     1      36.798  17.184 121.236 -0.17 -0.00    +0.000 OA
DOCKED: BRANCH  13  18
DOCKED: ATOM     15  C   UNL     1      37.862  14.169 117.325 -0.28 -0.00    +0.000 A 
DOCKED: ATOM     16  C   UNL     1      38.908  14.964 117.832 -0.03 -0.00    +0.000 A 
DOCKED: ATOM     17  C   UNL     1      38.789  15.602 119.069 -0.15 -0.00    +0.000 A 
DOCKED: ATOM     18  C   UNL     1      37.625  15.458 119.842 -0.19 -0.00    +0.000 A 
DOCKED: ATOM     19  C   UNL     1      36.573  14.676 119.336 -0.11 -0.00    +0.000 A 
DOCKED: ATOM     20  C   UNL     1      36.690  14.039 118.098 -0.35 -0.00    +0.000 A 
DOCKED: ATOM     21  CM  UNL     1      37.741  14.818 118.584 +0.00 -0.00    +0.000 AC
DOCKED: BRANCH  15  22
DOCKED: ATOM     22  C   UNL     1      39.282  12.983 115.589 -0.52 -0.00    +0.000 C 
DOCKED: ATOM     23  N   UNL     1      37.985  13.505 116.040 -0.41 -0.00    +0.000 N 
DOCKED: ATOM     24  C   UNL     1      36.815  13.343 115.168 -0.33 -0.00    +0.000 C 
DOCKED: ENDBRANCH  15  22
DOCKED: ENDBRANCH  13  18
DOCKED: ENDBRANCH   1  13
DOCKED: TORSDOF 6DOCKED: TER
DOCKED: ENDMDL
________________________________________________________________________________


	BEGINNING GENETIC ALGORITHM DOCKING 63 of 100
Run: 63 Seed: 2125020534 174236972 [ Run 63 of 100 GA/GALS ]
Beginning LAMARCKIAN GENETIC ALGORITHM (LGA), with a maximum of 2500000 energy evaluations.

Final-Value: -14.912


	FINAL GENETIC ALGORITHM DOCKED STATE
	_______________________________________________


Detailed state:  trans 36.696 14.869 123.574 quatxyzw -0.574965 -0.804091 -0.147998 -0.030824 center -0.963 -0.416 0.212 ntor 6 180.0000 -177.5734 167.9754 -143.2593 80.0302 -40.7344
State:	 36.696  14.869 123.574  -0.575 -0.804 -0.148 -176.467    180.00 -177.57  167.98 -143.26   80.03  -40.73

DOCKED: MODEL       63
DOCKED: USER    Run = 63
DOCKED: USER    DPF = ligand_dock.biased.dpf
DOCKED: USER  
DOCKED: USER    Estimated Free Energy of Binding    =  -12.17 kcal/mol  [=(1)+(2)+(3)-(4)]
DOCKED: USER    Estimated Inhibition Constant, Ki   =    1.19 nM (nanomolar)  [Temperature = 298.15 K]
DOCKED: USER    
DOCKED: USER    (1) Final Intermolecular Energy     =  -13.96 kcal/mol
DOCKED: USER        vdW + Hbond + desolv Energy     =  -13.96 kcal/mol
DOCKED: USER        Electrostatic Energy            =   +0.00 kcal/mol
DOCKED: USER    (2) Final Total Internal Energy     =   -0.95 kcal/mol
DOCKED: USER    (3) Torsional Free Energy           =   +1.79 kcal/mol
DOCKED: USER    (4) Unbound System's Energy  [=(2)] =   -0.95 kcal/mol
DOCKED: USER    
DOCKED: USER    
DOCKED: USER    NEWDPF move ligand.dum.pdbqt
DOCKED: USER    NEWDPF about -0.963000 -0.416000 0.212000
DOCKED: USER    NEWDPF tran0 36.695638 14.869091 123.573941
DOCKED: USER    NEWDPF quaternion0 -0.574965 -0.804091 -0.147998 -0.030824
DOCKED: USER    NEWDPF axisangle0 -0.575238 -0.804473 -0.148068 -176.467257
DOCKED: USER    NEWDPF quat0 -0.575238 -0.804473 -0.148068 -176.467257
DOCKED: USER    NEWDPF dihe0 180.00 -177.57 167.98 -143.26 80.03 -40.73 
DOCKED: USER  keepresnum = 1 
DOCKED: USER  
DOCKED: REMARK  Name = 
DOCKED: REMARK  10 active torsions:
DOCKED: REMARK  status: ('A' for Active; 'I' for Inactive)
DOCKED: REMARK    1  A    between atoms: C_1  and  N_2
DOCKED: REMARK    2  A    between atoms: N_2  and  C_3
DOCKED: REMARK    3  A    between atoms: N_2  and  C_22
DOCKED: REMARK    4  A    between atoms: C_6  and  C_9
DOCKED: REMARK    5  A    between atoms: C_9  and  C_10
DOCKED: REMARK    6  A    between atoms: C_10  and  C_11
DOCKED: REMARK    7  A    between atoms: C_10  and  C_20
DOCKED: REMARK    8  A    between atoms: C_12  and  C_13
DOCKED: REMARK    9  A    between atoms: C_12  and  C_19
DOCKED: REMARK   10  A    between atoms: C_14  and  C_15
DOCKED: REMARK                            x       y       z     vdW  Elec       q    Type
DOCKED: REMARK                         _______ _______ _______ _____ _____    ______ ____
DOCKED: USER                              x       y       z     vdW  Elec       q    Type
DOCKED: USER                           _______ _______ _______ _____ _____    ______ ____
DOCKED: ROOT
DOCKED: ATOM      1  C   UNL     1      37.793  15.503 122.597 -0.35 -0.00    +0.000 C 
DOCKED: ATOM      2  C   UNL     1      38.810  16.046 121.590 -0.23 -0.00    +0.000 C 
DOCKED: ENDROOT
DOCKED: BRANCH   1   3
DOCKED: ATOM      3  C   UNL     1      37.603  14.013 122.392 -0.48 -0.00    +0.000 C 
DOCKED: ATOM      4  C   UNL     1      37.320  13.426 121.210 -0.45 -0.00    +0.000 C 
DOCKED: ATOM      5  C   UNL     1      37.175  14.227 119.935 -0.32 -0.00    +0.000 C 
DOCKED: BRANCH   4   6
DOCKED: ATOM      6  C   UNL     1      37.198  11.945 121.183 -0.53 -0.00    +0.000 C 
DOCKED: ATOM      7  C   UNL     1      37.072  11.202 122.293 -0.56 -0.00    +0.000 C 
DOCKED: BRANCH   7   8
DOCKED: ATOM      8  C   UNL     1      36.947   9.730 122.277 -0.62 -0.00    +0.000 C 
DOCKED: ATOM      9  N   UNL     1      37.131   8.931 123.452 -0.58 -0.00    +0.000 N 
DOCKED: ATOM     10  O   UNL     1      36.903   7.598 123.409 -2.50 -0.00    +0.000 OA
DOCKED: ATOM     11  O   UNL     1      36.692   9.162 121.182 -2.62 -0.00    +0.000 OA
DOCKED: ATOM     12  H   UNL     1      37.424   9.353 124.293 -0.64 -0.00    +0.000 HD
DOCKED: ENDBRANCH   7   8
DOCKED: ENDBRANCH   4   6
DOCKED: ENDBRANCH   1   3
DOCKED: BRANCH   1  13
DOCKED: ATOM     13  C   UNL     1      36.477  16.239 122.446 -0.30 -0.00    +0.000 C 
DOCKED: ATOM     14  O   UNL     1      36.111  16.610 121.295 -0.24 -0.00    +0.000 OA
DOCKED: BRANCH  13  18
DOCKED: ATOM     15  C   UNL     1      33.943  17.161 125.826 -0.37 -0.00    +0.000 A 
DOCKED: ATOM     16  C   UNL     1      34.051  15.847 125.330 -0.42 -0.00    +0.000 A 
DOCKED: ATOM     17  C   UNL     1      34.871  15.558 124.236 -0.51 -0.00    +0.000 A 
DOCKED: ATOM     18  C   UNL     1      35.615  16.570 123.611 -0.35 -0.00    +0.000 A 
DOCKED: ATOM     19  C   UNL     1      35.503  17.886 124.092 -0.27 -0.00    +0.000 A 
DOCKED: ATOM     20  C   UNL     1      34.682  18.176 125.185 -0.30 -0.00    +0.000 A 
DOCKED: ATOM     21  CM  UNL     1      34.777  16.866 124.713 -0.25 -0.00    +0.000 AC
DOCKED: BRANCH  15  22
DOCKED: ATOM     22  C   UNL     1      32.683  16.401 127.892 -0.46 -0.00    +0.000 C 
DOCKED: ATOM     23  N   UNL     1      33.091  17.462 126.962 -0.36 -0.00    +0.000 N 
DOCKED: ATOM     24  C   UNL     1      32.624  18.833 127.202 -0.27 -0.00    +0.000 C 
DOCKED: ENDBRANCH  15  22
DOCKED: ENDBRANCH  13  18
DOCKED: ENDBRANCH   1  13
DOCKED: TORSDOF 6DOCKED: TER
DOCKED: ENDMDL
________________________________________________________________________________


	BEGINNING GENETIC ALGORITHM DOCKING 64 of 100
Run: 64 Seed: 362584539 1966521842 [ Run 64 of 100 GA/GALS ]
Beginning LAMARCKIAN GENETIC ALGORITHM (LGA), with a maximum of 2500000 energy evaluations.

Final-Value: -14.354


	FINAL GENETIC ALGORITHM DOCKED STATE
	_______________________________________________


Detailed state:  trans 36.045 15.033 121.796 quatxyzw 0.366172 0.704011 0.326725 -0.513359 center -0.963 -0.416 0.212 ntor 6 -70.1952 -6.1817 125.3631 22.1109 164.1075 -20.3518
State:	 36.045  15.033 121.796   0.427  0.820  0.381 -118.224    -70.20   -6.18  125.36   22.11  164.11  -20.35

DOCKED: MODEL       64
DOCKED: USER    Run = 64
DOCKED: USER    DPF = ligand_dock.biased.dpf
DOCKED: USER  
DOCKED: USER    Estimated Free Energy of Binding    =  -11.39 kcal/mol  [=(1)+(2)+(3)-(4)]
DOCKED: USER    Estimated Inhibition Constant, Ki   =    4.45 nM (nanomolar)  [Temperature = 298.15 K]
DOCKED: USER    
DOCKED: USER    (1) Final Intermolecular Energy     =  -13.18 kcal/mol
DOCKED: USER        vdW + Hbond + desolv Energy     =  -13.18 kcal/mol
DOCKED: USER        Electrostatic Energy            =   +0.00 kcal/mol
DOCKED: USER    (2) Final Total Internal Energy     =   -1.17 kcal/mol
DOCKED: USER    (3) Torsional Free Energy           =   +1.79 kcal/mol
DOCKED: USER    (4) Unbound System's Energy  [=(2)] =   -1.17 kcal/mol
DOCKED: USER    
DOCKED: USER    
DOCKED: USER    NEWDPF move ligand.dum.pdbqt
DOCKED: USER    NEWDPF about -0.963000 -0.416000 0.212000
DOCKED: USER    NEWDPF tran0 36.044666 15.033199 121.795513
DOCKED: USER    NEWDPF quaternion0 0.366172 0.704011 0.326725 -0.513359
DOCKED: USER    NEWDPF axisangle0 0.426687 0.820359 0.380721 -118.224375
DOCKED: USER    NEWDPF quat0 0.426687 0.820359 0.380721 -118.224375
DOCKED: USER    NEWDPF dihe0 -70.20 -6.18 125.36 22.11 164.11 -20.35 
DOCKED: USER  keepresnum = 1 
DOCKED: USER  
DOCKED: REMARK  Name = 
DOCKED: REMARK  10 active torsions:
DOCKED: REMARK  status: ('A' for Active; 'I' for Inactive)
DOCKED: REMARK    1  A    between atoms: C_1  and  N_2
DOCKED: REMARK    2  A    between atoms: N_2  and  C_3
DOCKED: REMARK    3  A    between atoms: N_2  and  C_22
DOCKED: REMARK    4  A    between atoms: C_6  and  C_9
DOCKED: REMARK    5  A    between atoms: C_9  and  C_10
DOCKED: REMARK    6  A    between atoms: C_10  and  C_11
DOCKED: REMARK    7  A    between atoms: C_10  and  C_20
DOCKED: REMARK    8  A    between atoms: C_12  and  C_13
DOCKED: REMARK    9  A    between atoms: C_12  and  C_19
DOCKED: REMARK   10  A    between atoms: C_14  and  C_15
DOCKED: REMARK                            x       y       z     vdW  Elec       q    Type
DOCKED: REMARK                         _______ _______ _______ _____ _____    ______ ____
DOCKED: USER                              x       y       z     vdW  Elec       q    Type
DOCKED: USER                           _______ _______ _______ _____ _____    ______ ____
DOCKED: ROOT
DOCKED: ATOM      1  C   UNL     1      37.419  15.659 122.324 -0.31 -0.00    +0.000 C 
DOCKED: ATOM      2  C   UNL     1      38.781  16.176 122.794 -0.29 -0.00    +0.000 C 
DOCKED: ENDROOT
DOCKED: BRANCH   1   3
DOCKED: ATOM      3  C   UNL     1      37.350  14.153 122.484 -0.47 -0.00    +0.000 C 
DOCKED: ATOM      4  C   UNL     1      36.531  13.505 123.339 -0.58 -0.00    +0.000 C 
DOCKED: ATOM      5  C   UNL     1      35.565  14.245 124.237 -0.47 -0.00    +0.000 C 
DOCKED: BRANCH   4   6
DOCKED: ATOM      6  C   UNL     1      36.570  12.019 123.344 -0.69 -0.00    +0.000 C 
DOCKED: ATOM      7  C   UNL     1      36.905  11.293 122.267 -0.60 -0.00    +0.000 C 
DOCKED: BRANCH   7   8
DOCKED: ATOM      8  C   UNL     1      36.950   9.817 122.261 -0.61 -0.00    +0.000 C 
DOCKED: ATOM      9  N   UNL     1      37.132   9.049 123.457 -0.56 -0.00    +0.000 N 
DOCKED: ATOM     10  O   UNL     1      37.062   7.699 123.414 -2.66 -0.00    +0.000 OA
DOCKED: ATOM     11  O   UNL     1      36.848   9.219 121.157 -2.67 -0.00    +0.000 OA
DOCKED: ATOM     12  H   UNL     1      37.308   9.506 124.312 -0.61 -0.00    +0.000 HD
DOCKED: ENDBRANCH   7   8
DOCKED: ENDBRANCH   4   6
DOCKED: ENDBRANCH   1   3
DOCKED: BRANCH   1  13
DOCKED: ATOM     13  C   UNL     1      37.189  16.057 120.879 -0.21 -0.00    +0.000 C 
DOCKED: ATOM     14  O   UNL     1      38.046  15.731 120.010 -0.18 -0.00    +0.000 OA
DOCKED: BRANCH  13  18
DOCKED: ATOM     15  C   UNL     1      33.723  18.351 119.689 -0.27 -0.00    +0.000 A 
DOCKED: ATOM     16  C   UNL     1      34.048  18.168 121.047 -0.30 -0.00    +0.000 A 
DOCKED: ATOM     17  C   UNL     1      35.169  17.425 121.423 -0.25 -0.00    +0.000 A 
DOCKED: ATOM     18  C   UNL     1      36.005  16.849 120.454 -0.15 -0.00    +0.000 A 
DOCKED: ATOM     19  C   UNL     1      35.681  17.016 119.097 -0.12 -0.00    +0.000 A 
DOCKED: ATOM     20  C   UNL     1      34.559  17.759 118.720 -0.14 -0.00    +0.000 A 
DOCKED: ATOM     21  CM  UNL     1      34.864  17.594 120.072 +0.00 -0.00    +0.000 AC
DOCKED: BRANCH  15  22
DOCKED: ATOM     22  C   UNL     1      32.671  20.184 118.286 -0.22 -0.00    +0.000 C 
DOCKED: ATOM     23  N   UNL     1      32.559  19.124 119.297 -0.33 -0.00    +0.000 N 
DOCKED: ATOM     24  C   UNL     1      31.249  18.860 119.904 -0.50 -0.00    +0.000 C 
DOCKED: ENDBRANCH  15  22
DOCKED: ENDBRANCH  13  18
DOCKED: ENDBRANCH   1  13
DOCKED: TORSDOF 6DOCKED: TER
DOCKED: ENDMDL
________________________________________________________________________________


	BEGINNING GENETIC ALGORITHM DOCKING 65 of 100
Run: 65 Seed: 1769419477 703910229 [ Run 65 of 100 GA/GALS ]
Beginning LAMARCKIAN GENETIC ALGORITHM (LGA), with a maximum of 2500000 energy evaluations.

Final-Value: -15.240


	FINAL GENETIC ALGORITHM DOCKED STATE
	_______________________________________________


Detailed state:  trans 36.718 14.899 122.570 quatxyzw -0.472390 -0.791271 -0.201397 0.331929 center -0.963 -0.416 0.212 ntor 6 -99.5521 17.7473 76.7116 72.9379 -140.5701 169.6907
State:	 36.718  14.899 122.570  -0.501 -0.839 -0.214 141.228    -99.55   17.75   76.71   72.94 -140.57  169.69

DOCKED: MODEL       65
DOCKED: USER    Run = 65
DOCKED: USER    DPF = ligand_dock.biased.dpf
DOCKED: USER  
DOCKED: USER    Estimated Free Energy of Binding    =  -12.05 kcal/mol  [=(1)+(2)+(3)-(4)]
DOCKED: USER    Estimated Inhibition Constant, Ki   =    1.47 nM (nanomolar)  [Temperature = 298.15 K]
DOCKED: USER    
DOCKED: USER    (1) Final Intermolecular Energy     =  -13.84 kcal/mol
DOCKED: USER        vdW + Hbond + desolv Energy     =  -13.84 kcal/mol
DOCKED: USER        Electrostatic Energy            =   +0.00 kcal/mol
DOCKED: USER    (2) Final Total Internal Energy     =   -1.40 kcal/mol
DOCKED: USER    (3) Torsional Free Energy           =   +1.79 kcal/mol
DOCKED: USER    (4) Unbound System's Energy  [=(2)] =   -1.40 kcal/mol
DOCKED: USER    
DOCKED: USER    
DOCKED: USER    NEWDPF move ligand.dum.pdbqt
DOCKED: USER    NEWDPF about -0.963000 -0.416000 0.212000
DOCKED: USER    NEWDPF tran0 36.718317 14.899466 122.569544
DOCKED: USER    NEWDPF quaternion0 -0.472390 -0.791271 -0.201397 0.331929
DOCKED: USER    NEWDPF axisangle0 -0.500782 -0.838829 -0.213501 141.228188
DOCKED: USER    NEWDPF quat0 -0.500782 -0.838829 -0.213501 141.228188
DOCKED: USER    NEWDPF dihe0 -99.55 17.75 76.71 72.94 -140.57 169.69 
DOCKED: USER  keepresnum = 1 
DOCKED: USER  
DOCKED: REMARK  Name = 
DOCKED: REMARK  10 active torsions:
DOCKED: REMARK  status: ('A' for Active; 'I' for Inactive)
DOCKED: REMARK    1  A    between atoms: C_1  and  N_2
DOCKED: REMARK    2  A    between atoms: N_2  and  C_3
DOCKED: REMARK    3  A    between atoms: N_2  and  C_22
DOCKED: REMARK    4  A    between atoms: C_6  and  C_9
DOCKED: REMARK    5  A    between atoms: C_9  and  C_10
DOCKED: REMARK    6  A    between atoms: C_10  and  C_11
DOCKED: REMARK    7  A    between atoms: C_10  and  C_20
DOCKED: REMARK    8  A    between atoms: C_12  and  C_13
DOCKED: REMARK    9  A    between atoms: C_12  and  C_19
DOCKED: REMARK   10  A    between atoms: C_14  and  C_15
DOCKED: REMARK                            x       y       z     vdW  Elec       q    Type
DOCKED: REMARK                         _______ _______ _______ _____ _____    ______ ____
DOCKED: USER                              x       y       z     vdW  Elec       q    Type
DOCKED: USER                           _______ _______ _______ _____ _____    ______ ____
DOCKED: ROOT
DOCKED: ATOM      1  C   UNL     1      38.228  15.381 122.347 -0.34 -0.00    +0.000 C 
DOCKED: ATOM      2  C   UNL     1      39.688  15.757 122.082 -0.32 -0.00    +0.000 C 
DOCKED: ENDROOT
DOCKED: BRANCH   1   3
DOCKED: ATOM      3  C   UNL     1      38.104  13.884 122.545 -0.48 -0.00    +0.000 C 
DOCKED: ATOM      4  C   UNL     1      37.032  13.262 123.080 -0.58 -0.00    +0.000 C 
DOCKED: ATOM      5  C   UNL     1      35.809  14.027 123.534 -0.54 -0.00    +0.000 C 
DOCKED: BRANCH   4   6
DOCKED: ATOM      6  C   UNL     1      37.064  11.779 123.171 -0.66 -0.00    +0.000 C 
DOCKED: ATOM      7  C   UNL     1      36.860  10.977 122.115 -0.59 -0.00    +0.000 C 
DOCKED: BRANCH   7   8
DOCKED: ATOM      8  C   UNL     1      36.894   9.502 122.193 -0.65 -0.00    +0.000 C 
DOCKED: ATOM      9  N   UNL     1      37.146   8.803 123.417 -0.61 -0.00    +0.000 N 
DOCKED: ATOM     10  O   UNL     1      37.063   7.453 123.458 -2.50 -0.00    +0.000 OA
DOCKED: ATOM     11  O   UNL     1      36.716   8.842 121.134 -2.62 -0.00    +0.000 OA
DOCKED: ATOM     12  H   UNL     1      37.380   9.307 124.232 -0.63 -0.00    +0.000 HD
DOCKED: ENDBRANCH   7   8
DOCKED: ENDBRANCH   4   6
DOCKED: ENDBRANCH   1   3
DOCKED: BRANCH   1  13
DOCKED: ATOM     13  C   UNL     1      37.360  15.845 121.194 -0.23 -0.00    +0.000 C 
DOCKED: ATOM     14  O   UNL     1      36.493  16.740 121.401 -0.22 -0.00    +0.000 OA
DOCKED: BRANCH  13  18
DOCKED: ATOM     15  C   UNL     1      37.686  14.089 117.257 -0.31 -0.00    +0.000 A 
DOCKED: ATOM     16  C   UNL     1      37.237  13.335 118.359 -0.37 -0.00    +0.000 A 
DOCKED: ATOM     17  C   UNL     1      37.136  13.910 119.628 -0.33 -0.00    +0.000 A 
DOCKED: ATOM     18  C   UNL     1      37.471  15.257 119.833 -0.21 -0.00    +0.000 A 
DOCKED: ATOM     19  C   UNL     1      37.932  16.012 118.741 -0.13 -0.00    +0.000 A 
DOCKED: ATOM     20  C   UNL     1      38.034  15.437 117.471 -0.16 -0.00    +0.000 A 
DOCKED: ATOM     21  CM  UNL     1      37.583  14.673 118.548 +0.00 -0.00    +0.000 AC
DOCKED: BRANCH  15  22
DOCKED: ATOM     22  C   UNL     1      36.755  13.732 114.924 -0.35 -0.00    +0.000 C 
DOCKED: ATOM     23  N   UNL     1      37.791  13.492 115.937 -0.41 -0.00    +0.000 N 
DOCKED: ATOM     24  C   UNL     1      38.934  12.639 115.593 -0.59 -0.00    +0.000 C 
DOCKED: ENDBRANCH  15  22
DOCKED: ENDBRANCH  13  18
DOCKED: ENDBRANCH   1  13
DOCKED: TORSDOF 6DOCKED: TER
DOCKED: ENDMDL
________________________________________________________________________________


	BEGINNING GENETIC ALGORITHM DOCKING 66 of 100
Run: 66 Seed: 823559114 1787326803 [ Run 66 of 100 GA/GALS ]
Beginning LAMARCKIAN GENETIC ALGORITHM (LGA), with a maximum of 2500000 energy evaluations.

Final-Value: -14.586


	FINAL GENETIC ALGORITHM DOCKED STATE
	_______________________________________________


Detailed state:  trans 36.843 14.614 120.971 quatxyzw -0.268415 -0.607426 -0.362298 0.654008 center -0.963 -0.416 0.212 ntor 6 -119.8240 2.5101 109.6058 2.1625 -94.6292 -73.6874
State:	 36.843  14.614 120.971  -0.355 -0.803 -0.479 98.311   -119.82    2.51  109.61    2.16  -94.63  -73.69

DOCKED: MODEL       66
DOCKED: USER    Run = 66
DOCKED: USER    DPF = ligand_dock.biased.dpf
DOCKED: USER  
DOCKED: USER    Estimated Free Energy of Binding    =  -11.50 kcal/mol  [=(1)+(2)+(3)-(4)]
DOCKED: USER    Estimated Inhibition Constant, Ki   =    3.71 nM (nanomolar)  [Temperature = 298.15 K]
DOCKED: USER    
DOCKED: USER    (1) Final Intermolecular Energy     =  -13.29 kcal/mol
DOCKED: USER        vdW + Hbond + desolv Energy     =  -13.29 kcal/mol
DOCKED: USER        Electrostatic Energy            =   +0.00 kcal/mol
DOCKED: USER    (2) Final Total Internal Energy     =   -1.29 kcal/mol
DOCKED: USER    (3) Torsional Free Energy           =   +1.79 kcal/mol
DOCKED: USER    (4) Unbound System's Energy  [=(2)] =   -1.29 kcal/mol
DOCKED: USER    
DOCKED: USER    
DOCKED: USER    NEWDPF move ligand.dum.pdbqt
DOCKED: USER    NEWDPF about -0.963000 -0.416000 0.212000
DOCKED: USER    NEWDPF tran0 36.843149 14.614016 120.970838
DOCKED: USER    NEWDPF quaternion0 -0.268415 -0.607426 -0.362298 0.654008
DOCKED: USER    NEWDPF axisangle0 -0.354817 -0.802956 -0.478922 98.311000
DOCKED: USER    NEWDPF quat0 -0.354817 -0.802956 -0.478922 98.311000
DOCKED: USER    NEWDPF dihe0 -119.82 2.51 109.61 2.16 -94.63 -73.69 
DOCKED: USER  keepresnum = 1 
DOCKED: USER  
DOCKED: REMARK  Name = 
DOCKED: REMARK  10 active torsions:
DOCKED: REMARK  status: ('A' for Active; 'I' for Inactive)
DOCKED: REMARK    1  A    between atoms: C_1  and  N_2
DOCKED: REMARK    2  A    between atoms: N_2  and  C_3
DOCKED: REMARK    3  A    between atoms: N_2  and  C_22
DOCKED: REMARK    4  A    between atoms: C_6  and  C_9
DOCKED: REMARK    5  A    between atoms: C_9  and  C_10
DOCKED: REMARK    6  A    between atoms: C_10  and  C_11
DOCKED: REMARK    7  A    between atoms: C_10  and  C_20
DOCKED: REMARK    8  A    between atoms: C_12  and  C_13
DOCKED: REMARK    9  A    between atoms: C_12  and  C_19
DOCKED: REMARK   10  A    between atoms: C_14  and  C_15
DOCKED: REMARK                            x       y       z     vdW  Elec       q    Type
DOCKED: REMARK                         _______ _______ _______ _____ _____    ______ ____
DOCKED: USER                              x       y       z     vdW  Elec       q    Type
DOCKED: USER                           _______ _______ _______ _____ _____    ______ ____
DOCKED: ROOT
DOCKED: ATOM      1  C   UNL     1      37.918  15.323 121.922 -0.32 -0.00    +0.000 C 
DOCKED: ATOM      2  C   UNL     1      39.002  15.916 122.824 -0.30 -0.00    +0.000 C 
DOCKED: ENDROOT
DOCKED: BRANCH   1   3
DOCKED: ATOM      3  C   UNL     1      37.783  13.835 122.179 -0.48 -0.00    +0.000 C 
DOCKED: ATOM      4  C   UNL     1      36.903  13.276 123.037 -0.58 -0.00    +0.000 C 
DOCKED: ATOM      5  C   UNL     1      35.928  14.110 123.836 -0.56 -0.00    +0.000 C 
DOCKED: BRANCH   4   6
DOCKED: ATOM      6  C   UNL     1      36.884  11.794 123.143 -0.67 -0.00    +0.000 C 
DOCKED: ATOM      7  C   UNL     1      36.936  10.984 122.075 -0.57 -0.00    +0.000 C 
DOCKED: BRANCH   7   8
DOCKED: ATOM      8  C   UNL     1      36.922   9.509 122.170 -0.65 -0.00    +0.000 C 
DOCKED: ATOM      9  N   UNL     1      37.166   8.816 123.399 -0.60 -0.00    +0.000 N 
DOCKED: ATOM     10  O   UNL     1      37.039   7.470 123.456 -2.50 -0.00    +0.000 OA
DOCKED: ATOM     11  O   UNL     1      36.709   8.844 121.121 -2.62 -0.00    +0.000 OA
DOCKED: ATOM     12  H   UNL     1      37.427   9.320 124.204 -0.63 -0.00    +0.000 HD
DOCKED: ENDBRANCH   7   8
DOCKED: ENDBRANCH   4   6
DOCKED: ENDBRANCH   1   3
DOCKED: BRANCH   1  13
DOCKED: ATOM     13  C   UNL     1      38.256  15.588 120.468 -0.22 -0.00    +0.000 C 
DOCKED: ATOM     14  O   UNL     1      39.332  16.189 120.189 -0.16 -0.00    +0.000 OA
DOCKED: BRANCH  13  18
DOCKED: ATOM     15  C   UNL     1      35.592  14.488 117.245 -0.30 -0.00    +0.000 A 
DOCKED: ATOM     16  C   UNL     1      35.829  15.838 117.570 -0.17 -0.00    +0.000 A 
DOCKED: ATOM     17  C   UNL     1      36.690  16.185 118.613 -0.14 -0.00    +0.000 A 
DOCKED: ATOM     18  C   UNL     1      37.349  15.194 119.359 -0.21 -0.00    +0.000 A 
DOCKED: ATOM     19  C   UNL     1      37.108  13.845 119.049 -0.35 -0.00    +0.000 A 
DOCKED: ATOM     20  C   UNL     1      36.245  13.497 118.006 -0.30 -0.00    +0.000 A 
DOCKED: ATOM     21  CM  UNL     1      36.469  14.842 118.307 +0.00 -0.00    +0.000 AC
DOCKED: BRANCH  15  22
DOCKED: ATOM     22  C   UNL     1      35.160  14.162 114.767 -0.27 -0.00    +0.000 C 
DOCKED: ATOM     23  N   UNL     1      34.697  14.127 116.160 -0.31 -0.00    +0.000 N 
DOCKED: ATOM     24  C   UNL     1      33.314  13.721 116.438 -0.39 -0.00    +0.000 C 
DOCKED: ENDBRANCH  15  22
DOCKED: ENDBRANCH  13  18
DOCKED: ENDBRANCH   1  13
DOCKED: TORSDOF 6DOCKED: TER
DOCKED: ENDMDL
________________________________________________________________________________


	BEGINNING GENETIC ALGORITHM DOCKING 67 of 100
Run: 67 Seed: 94684331 2053176919 [ Run 67 of 100 GA/GALS ]
Beginning LAMARCKIAN GENETIC ALGORITHM (LGA), with a maximum of 2500000 energy evaluations.

Final-Value: -14.508


	FINAL GENETIC ALGORITHM DOCKED STATE
	_______________________________________________


Detailed state:  trans 38.499 15.164 121.753 quatxyzw -0.195957 -0.244267 0.517830 -0.796107 center -0.963 -0.416 0.212 ntor 6 169.2556 156.2474 -164.9896 16.2148 140.1988 -65.3716
State:	 38.499  15.164 121.753  -0.324 -0.404  0.856 -74.480    169.26  156.25 -164.99   16.21  140.20  -65.37

DOCKED: MODEL       67
DOCKED: USER    Run = 67
DOCKED: USER    DPF = ligand_dock.biased.dpf
DOCKED: USER  
DOCKED: USER    Estimated Free Energy of Binding    =  -11.53 kcal/mol  [=(1)+(2)+(3)-(4)]
DOCKED: USER    Estimated Inhibition Constant, Ki   =    3.53 nM (nanomolar)  [Temperature = 298.15 K]
DOCKED: USER    
DOCKED: USER    (1) Final Intermolecular Energy     =  -13.32 kcal/mol
DOCKED: USER        vdW + Hbond + desolv Energy     =  -13.32 kcal/mol
DOCKED: USER        Electrostatic Energy            =   +0.00 kcal/mol
DOCKED: USER    (2) Final Total Internal Energy     =   -1.19 kcal/mol
DOCKED: USER    (3) Torsional Free Energy           =   +1.79 kcal/mol
DOCKED: USER    (4) Unbound System's Energy  [=(2)] =   -1.19 kcal/mol
DOCKED: USER    
DOCKED: USER    
DOCKED: USER    NEWDPF move ligand.dum.pdbqt
DOCKED: USER    NEWDPF about -0.963000 -0.416000 0.212000
DOCKED: USER    NEWDPF tran0 38.499433 15.163669 121.752723
DOCKED: USER    NEWDPF quaternion0 -0.195957 -0.244267 0.517830 -0.796107
DOCKED: USER    NEWDPF axisangle0 -0.323813 -0.403643 0.855697 -74.480101
DOCKED: USER    NEWDPF quat0 -0.323813 -0.403643 0.855697 -74.480101
DOCKED: USER    NEWDPF dihe0 169.26 156.25 -164.99 16.21 140.20 -65.37 
DOCKED: USER  keepresnum = 1 
DOCKED: USER  
DOCKED: REMARK  Name = 
DOCKED: REMARK  10 active torsions:
DOCKED: REMARK  status: ('A' for Active; 'I' for Inactive)
DOCKED: REMARK    1  A    between atoms: C_1  and  N_2
DOCKED: REMARK    2  A    between atoms: N_2  and  C_3
DOCKED: REMARK    3  A    between atoms: N_2  and  C_22
DOCKED: REMARK    4  A    between atoms: C_6  and  C_9
DOCKED: REMARK    5  A    between atoms: C_9  and  C_10
DOCKED: REMARK    6  A    between atoms: C_10  and  C_11
DOCKED: REMARK    7  A    between atoms: C_10  and  C_20
DOCKED: REMARK    8  A    between atoms: C_12  and  C_13
DOCKED: REMARK    9  A    between atoms: C_12  and  C_19
DOCKED: REMARK   10  A    between atoms: C_14  and  C_15
DOCKED: REMARK                            x       y       z     vdW  Elec       q    Type
DOCKED: REMARK                         _______ _______ _______ _____ _____    ______ ____
DOCKED: USER                              x       y       z     vdW  Elec       q    Type
DOCKED: USER                           _______ _______ _______ _____ _____    ______ ____
DOCKED: ROOT
DOCKED: ATOM      1  C   UNL     1      37.026  15.625 122.174 -0.31 -0.00    +0.000 C 
DOCKED: ATOM      2  C   UNL     1      35.614  15.987 122.640 -0.29 -0.00    +0.000 C 
DOCKED: ENDROOT
DOCKED: BRANCH   1   3
DOCKED: ATOM      3  C   UNL     1      37.183  14.119 122.108 -0.43 -0.00    +0.000 C 
DOCKED: ATOM      4  C   UNL     1      37.256  13.400 120.968 -0.44 -0.00    +0.000 C 
DOCKED: ATOM      5  C   UNL     1      37.201  14.055 119.606 -0.36 -0.00    +0.000 C 
DOCKED: BRANCH   4   6
DOCKED: ATOM      6  C   UNL     1      37.442  11.930 121.086 -0.50 -0.00    +0.000 C 
DOCKED: ATOM      7  C   UNL     1      36.796  11.182 121.993 -0.60 -0.00    +0.000 C 
DOCKED: BRANCH   7   8
DOCKED: ATOM      8  C   UNL     1      36.971   9.720 122.117 -0.61 -0.00    +0.000 C 
DOCKED: ATOM      9  N   UNL     1      37.063   9.063 123.386 -0.60 -0.00    +0.000 N 
DOCKED: ATOM     10  O   UNL     1      37.118   7.712 123.449 -2.68 -0.00    +0.000 OA
DOCKED: ATOM     11  O   UNL     1      37.065   9.037 121.063 -2.72 -0.00    +0.000 OA
DOCKED: ATOM     12  H   UNL     1      37.087   9.595 124.215 -0.58 -0.00    +0.000 HD
DOCKED: ENDBRANCH   7   8
DOCKED: ENDBRANCH   4   6
DOCKED: ENDBRANCH   1   3
DOCKED: BRANCH   1  13
DOCKED: ATOM     13  C   UNL     1      38.049  16.230 123.115 -0.29 -0.00    +0.000 C 
DOCKED: ATOM     14  O   UNL     1      37.655  16.743 124.201 -0.28 -0.00    +0.000 OA
DOCKED: BRANCH  13  18
DOCKED: ATOM     15  C   UNL     1      42.262  16.305 122.146 -0.34 -0.00    +0.000 A 
DOCKED: ATOM     16  C   UNL     1      41.358  15.508 121.417 -0.25 -0.00    +0.000 A 
DOCKED: ATOM     17  C   UNL     1      39.998  15.489 121.737 -0.29 -0.00    +0.000 A 
DOCKED: ATOM     18  C   UNL     1      39.499  16.272 122.790 -0.25 -0.00    +0.000 A 
DOCKED: ATOM     19  C   UNL     1      40.397  17.060 123.530 -0.24 -0.00    +0.000 A 
DOCKED: ATOM     20  C   UNL     1      41.757  17.078 123.211 -0.33 -0.00    +0.000 A 
DOCKED: ATOM     21  CM  UNL     1      40.878  16.285 122.472 +0.00 -0.00    +0.000 AC
DOCKED: BRANCH  15  22
DOCKED: ATOM     22  C   UNL     1      44.162  15.689 120.582 -0.28 -0.00    +0.000 C 
DOCKED: ATOM     23  N   UNL     1      43.675  16.326 121.813 -0.32 -0.00    +0.000 N 
DOCKED: ATOM     24  C   UNL     1      44.641  16.984 122.701 -0.33 -0.00    +0.000 C 
DOCKED: ENDBRANCH  15  22
DOCKED: ENDBRANCH  13  18
DOCKED: ENDBRANCH   1  13
DOCKED: TORSDOF 6DOCKED: TER
DOCKED: ENDMDL
________________________________________________________________________________


	BEGINNING GENETIC ALGORITHM DOCKING 68 of 100
Run: 68 Seed: 1585840308 453053314 [ Run 68 of 100 GA/GALS ]
Beginning LAMARCKIAN GENETIC ALGORITHM (LGA), with a maximum of 2500000 energy evaluations.

Final-Value: -14.670


	FINAL GENETIC ALGORITHM DOCKED STATE
	_______________________________________________


Detailed state:  trans 37.073 14.605 120.823 quatxyzw -0.157437 -0.477248 -0.436131 0.746484 center -0.963 -0.416 0.212 ntor 6 24.5893 -2.9293 110.5337 -16.5965 157.6623 -76.6324
State:	 37.073  14.605 120.823  -0.237 -0.717 -0.655 83.427     24.59   -2.93  110.53  -16.60  157.66  -76.63

DOCKED: MODEL       68
DOCKED: USER    Run = 68
DOCKED: USER    DPF = ligand_dock.biased.dpf
DOCKED: USER  
DOCKED: USER    Estimated Free Energy of Binding    =  -11.69 kcal/mol  [=(1)+(2)+(3)-(4)]
DOCKED: USER    Estimated Inhibition Constant, Ki   =    2.72 nM (nanomolar)  [Temperature = 298.15 K]
DOCKED: USER    
DOCKED: USER    (1) Final Intermolecular Energy     =  -13.48 kcal/mol
DOCKED: USER        vdW + Hbond + desolv Energy     =  -13.48 kcal/mol
DOCKED: USER        Electrostatic Energy            =   +0.00 kcal/mol
DOCKED: USER    (2) Final Total Internal Energy     =   -1.19 kcal/mol
DOCKED: USER    (3) Torsional Free Energy           =   +1.79 kcal/mol
DOCKED: USER    (4) Unbound System's Energy  [=(2)] =   -1.19 kcal/mol
DOCKED: USER    
DOCKED: USER    
DOCKED: USER    NEWDPF move ligand.dum.pdbqt
DOCKED: USER    NEWDPF about -0.963000 -0.416000 0.212000
DOCKED: USER    NEWDPF tran0 37.073364 14.605252 120.823267
DOCKED: USER    NEWDPF quaternion0 -0.157437 -0.477248 -0.436131 0.746484
DOCKED: USER    NEWDPF axisangle0 -0.236604 -0.717231 -0.655438 83.426523
DOCKED: USER    NEWDPF quat0 -0.236604 -0.717231 -0.655438 83.426523
DOCKED: USER    NEWDPF dihe0 24.59 -2.93 110.53 -16.60 157.66 -76.63 
DOCKED: USER  keepresnum = 1 
DOCKED: USER  
DOCKED: REMARK  Name = 
DOCKED: REMARK  10 active torsions:
DOCKED: REMARK  status: ('A' for Active; 'I' for Inactive)
DOCKED: REMARK    1  A    between atoms: C_1  and  N_2
DOCKED: REMARK    2  A    between atoms: N_2  and  C_3
DOCKED: REMARK    3  A    between atoms: N_2  and  C_22
DOCKED: REMARK    4  A    between atoms: C_6  and  C_9
DOCKED: REMARK    5  A    between atoms: C_9  and  C_10
DOCKED: REMARK    6  A    between atoms: C_10  and  C_11
DOCKED: REMARK    7  A    between atoms: C_10  and  C_20
DOCKED: REMARK    8  A    between atoms: C_12  and  C_13
DOCKED: REMARK    9  A    between atoms: C_12  and  C_19
DOCKED: REMARK   10  A    between atoms: C_14  and  C_15
DOCKED: REMARK                            x       y       z     vdW  Elec       q    Type
DOCKED: REMARK                         _______ _______ _______ _____ _____    ______ ____
DOCKED: USER                              x       y       z     vdW  Elec       q    Type
DOCKED: USER                           _______ _______ _______ _____ _____    ______ ____
DOCKED: ROOT
DOCKED: ATOM      1  C   UNL     1      37.617  15.404 122.099 -0.32 -0.00    +0.000 C 
DOCKED: ATOM      2  C   UNL     1      38.199  16.090 123.337 -0.28 -0.00    +0.000 C 
DOCKED: ENDROOT
DOCKED: BRANCH   1   3
DOCKED: ATOM      3  C   UNL     1      37.527  13.908 122.327 -0.48 -0.00    +0.000 C 
DOCKED: ATOM      4  C   UNL     1      36.604  13.299 123.101 -0.59 -0.00    +0.000 C 
DOCKED: ATOM      5  C   UNL     1      35.530  14.079 123.826 -0.55 -0.00    +0.000 C 
DOCKED: BRANCH   4   6
DOCKED: ATOM      6  C   UNL     1      36.641  11.817 123.188 -0.69 -0.00    +0.000 C 
DOCKED: ATOM      7  C   UNL     1      36.834  11.026 122.121 -0.60 -0.00    +0.000 C 
DOCKED: BRANCH   7   8
DOCKED: ATOM      8  C   UNL     1      36.876   9.551 122.196 -0.65 -0.00    +0.000 C 
DOCKED: ATOM      9  N   UNL     1      37.142   8.852 123.418 -0.60 -0.00    +0.000 N 
DOCKED: ATOM     10  O   UNL     1      37.067   7.502 123.457 -2.54 -0.00    +0.000 OA
DOCKED: ATOM     11  O   UNL     1      36.694   8.892 121.138 -2.62 -0.00    +0.000 OA
DOCKED: ATOM     12  H   UNL     1      37.380   9.355 124.231 -0.63 -0.00    +0.000 HD
DOCKED: ENDBRANCH   7   8
DOCKED: ENDBRANCH   4   6
DOCKED: ENDBRANCH   1   3
DOCKED: BRANCH   1  13
DOCKED: ATOM     13  C   UNL     1      38.476  15.712 120.888 -0.22 -0.00    +0.000 C 
DOCKED: ATOM     14  O   UNL     1      39.484  16.461 121.027 -0.16 -0.00    +0.000 OA
DOCKED: BRANCH  13  18
DOCKED: ATOM     15  C   UNL     1      37.509  14.159 116.971 -0.31 -0.00    +0.000 A 
DOCKED: ATOM     16  C   UNL     1      36.662  13.938 118.075 -0.35 -0.00    +0.000 A 
DOCKED: ATOM     17  C   UNL     1      36.983  14.442 119.338 -0.26 -0.00    +0.000 A 
DOCKED: ATOM     18  C   UNL     1      38.154  15.191 119.535 -0.20 -0.00    +0.000 A 
DOCKED: ATOM     19  C   UNL     1      39.010  15.405 118.441 -0.11 -0.00    +0.000 A 
DOCKED: ATOM     20  C   UNL     1      38.691  14.899 117.178 -0.18 -0.00    +0.000 A 
DOCKED: ATOM     21  CM  UNL     1      37.835  14.672 118.257 +0.00 -0.00    +0.000 AC
DOCKED: BRANCH  15  22
DOCKED: ATOM     22  C   UNL     1      38.197  12.966 114.841 -0.50 -0.00    +0.000 C 
DOCKED: ATOM     23  N   UNL     1      37.177  13.635 115.659 -0.36 -0.00    +0.000 N 
DOCKED: ATOM     24  C   UNL     1      35.815  13.765 115.126 -0.28 -0.00    +0.000 C 
DOCKED: ENDBRANCH  15  22
DOCKED: ENDBRANCH  13  18
DOCKED: ENDBRANCH   1  13
DOCKED: TORSDOF 6DOCKED: TER
DOCKED: ENDMDL
________________________________________________________________________________


	BEGINNING GENETIC ALGORITHM DOCKING 69 of 100
Run: 69 Seed: 1640547314 704892082 [ Run 69 of 100 GA/GALS ]
Beginning LAMARCKIAN GENETIC ALGORITHM (LGA), with a maximum of 2500000 energy evaluations.

Final-Value: -14.562


	FINAL GENETIC ALGORITHM DOCKED STATE
	_______________________________________________


Detailed state:  trans 36.155 14.478 124.353 quatxyzw -0.423714 -0.834466 0.033869 -0.350693 center -0.963 -0.416 0.212 ntor 6 -125.4170 146.9559 132.3176 -29.4195 5.5105 24.0776
State:	 36.155  14.478 124.353  -0.452 -0.891  0.036 -138.941   -125.42  146.96  132.32  -29.42    5.51   24.08

DOCKED: MODEL       69
DOCKED: USER    Run = 69
DOCKED: USER    DPF = ligand_dock.biased.dpf
DOCKED: USER  
DOCKED: USER    Estimated Free Energy of Binding    =  -11.83 kcal/mol  [=(1)+(2)+(3)-(4)]
DOCKED: USER    Estimated Inhibition Constant, Ki   =    2.13 nM (nanomolar)  [Temperature = 298.15 K]
DOCKED: USER    
DOCKED: USER    (1) Final Intermolecular Energy     =  -13.62 kcal/mol
DOCKED: USER        vdW + Hbond + desolv Energy     =  -13.62 kcal/mol
DOCKED: USER        Electrostatic Energy            =   +0.00 kcal/mol
DOCKED: USER    (2) Final Total Internal Energy     =   -0.94 kcal/mol
DOCKED: USER    (3) Torsional Free Energy           =   +1.79 kcal/mol
DOCKED: USER    (4) Unbound System's Energy  [=(2)] =   -0.94 kcal/mol
DOCKED: USER    
DOCKED: USER    
DOCKED: USER    NEWDPF move ligand.dum.pdbqt
DOCKED: USER    NEWDPF about -0.963000 -0.416000 0.212000
DOCKED: USER    NEWDPF tran0 36.154654 14.477869 124.353140
DOCKED: USER    NEWDPF quaternion0 -0.423714 -0.834466 0.033869 -0.350693
DOCKED: USER    NEWDPF axisangle0 -0.452449 -0.891057 0.036166 -138.940631
DOCKED: USER    NEWDPF quat0 -0.452449 -0.891057 0.036166 -138.940631
DOCKED: USER    NEWDPF dihe0 -125.42 146.96 132.32 -29.42 5.51 24.08 
DOCKED: USER  keepresnum = 1 
DOCKED: USER  
DOCKED: REMARK  Name = 
DOCKED: REMARK  10 active torsions:
DOCKED: REMARK  status: ('A' for Active; 'I' for Inactive)
DOCKED: REMARK    1  A    between atoms: C_1  and  N_2
DOCKED: REMARK    2  A    between atoms: N_2  and  C_3
DOCKED: REMARK    3  A    between atoms: N_2  and  C_22
DOCKED: REMARK    4  A    between atoms: C_6  and  C_9
DOCKED: REMARK    5  A    between atoms: C_9  and  C_10
DOCKED: REMARK    6  A    between atoms: C_10  and  C_11
DOCKED: REMARK    7  A    between atoms: C_10  and  C_20
DOCKED: REMARK    8  A    between atoms: C_12  and  C_13
DOCKED: REMARK    9  A    between atoms: C_12  and  C_19
DOCKED: REMARK   10  A    between atoms: C_14  and  C_15
DOCKED: REMARK                            x       y       z     vdW  Elec       q    Type
DOCKED: REMARK                         _______ _______ _______ _____ _____    ______ ____
DOCKED: USER                              x       y       z     vdW  Elec       q    Type
DOCKED: USER                           _______ _______ _______ _____ _____    ______ ____
DOCKED: ROOT
DOCKED: ATOM      1  C   UNL     1      36.089  15.420 123.062 -0.42 -0.00    +0.000 C 
DOCKED: ATOM      2  C   UNL     1      35.978  16.247 121.778 -0.18 -0.00    +0.000 C 
DOCKED: ENDROOT
DOCKED: BRANCH   1   3
DOCKED: ATOM      3  C   UNL     1      36.314  13.960 122.723 -0.43 -0.00    +0.000 C 
DOCKED: ATOM      4  C   UNL     1      37.386  13.477 122.059 -0.49 -0.00    +0.000 C 
DOCKED: ATOM      5  C   UNL     1      38.506  14.379 121.588 -0.40 -0.00    +0.000 C 
DOCKED: BRANCH   4   6
DOCKED: ATOM      6  C   UNL     1      37.463  12.010 121.840 -0.42 -0.00    +0.000 C 
DOCKED: ATOM      7  C   UNL     1      36.785  11.123 122.584 -0.64 -0.00    +0.000 C 
DOCKED: BRANCH   7   8
DOCKED: ATOM      8  C   UNL     1      36.851   9.662 122.372 -0.66 -0.00    +0.000 C 
DOCKED: ATOM      9  N   UNL     1      37.120   8.743 123.438 -0.62 -0.00    +0.000 N 
DOCKED: ATOM     10  O   UNL     1      37.066   7.410 123.214 -2.40 -0.00    +0.000 OA
DOCKED: ATOM     11  O   UNL     1      36.688   9.218 121.204 -2.62 -0.00    +0.000 OA
DOCKED: ATOM     12  H   UNL     1      37.343   9.083 124.336 -0.60 -0.00    +0.000 HD
DOCKED: ENDBRANCH   7   8
DOCKED: ENDBRANCH   4   6
DOCKED: ENDBRANCH   1   3
DOCKED: BRANCH   1  13
DOCKED: ATOM     13  C   UNL     1      34.833  15.592 123.893 -0.57 -0.00    +0.000 C 
DOCKED: ATOM     14  O   UNL     1      33.942  14.697 123.849 -0.65 -0.00    +0.000 OA
DOCKED: BRANCH  13  18
DOCKED: ATOM     15  C   UNL     1      34.107  19.067 126.360 -0.23 -0.00    +0.000 A 
DOCKED: ATOM     16  C   UNL     1      33.615  17.798 126.722 -0.31 -0.00    +0.000 A 
DOCKED: ATOM     17  C   UNL     1      33.854  16.680 125.919 -0.36 -0.00    +0.000 A 
DOCKED: ATOM     18  C   UNL     1      34.598  16.794 124.734 -0.42 -0.00    +0.000 A 
DOCKED: ATOM     19  C   UNL     1      35.081  18.060 124.360 -0.29 -0.00    +0.000 A 
DOCKED: ATOM     20  C   UNL     1      34.842  19.179 125.162 -0.22 -0.00    +0.000 A 
DOCKED: ATOM     21  CM  UNL     1      34.349  17.930 125.543 -0.32 -0.00    +0.000 AC
DOCKED: BRANCH  15  22
DOCKED: ATOM     22  C   UNL     1      34.600  20.419 128.450 -0.06 -0.00    +0.000 C 
DOCKED: ATOM     23  N   UNL     1      33.860  20.230 127.195 -0.13 -0.00    +0.000 N 
DOCKED: ATOM     24  C   UNL     1      32.867  21.235 126.798 -0.19 -0.00    +0.000 C 
DOCKED: ENDBRANCH  15  22
DOCKED: ENDBRANCH  13  18
DOCKED: ENDBRANCH   1  13
DOCKED: TORSDOF 6DOCKED: TER
DOCKED: ENDMDL
________________________________________________________________________________


	BEGINNING GENETIC ALGORITHM DOCKING 70 of 100
Run: 70 Seed: 683616653 1985822263 [ Run 70 of 100 GA/GALS ]
Beginning LAMARCKIAN GENETIC ALGORITHM (LGA), with a maximum of 2500000 energy evaluations.

Final-Value: -14.199


	FINAL GENETIC ALGORITHM DOCKED STATE
	_______________________________________________


Detailed state:  trans 36.277 14.991 121.747 quatxyzw -0.329412 -0.693473 -0.371240 0.522267 center -0.963 -0.416 0.212 ntor 6 107.8832 30.3854 91.4511 19.6536 172.5199 -18.8296
State:	 36.277  14.991 121.747  -0.386 -0.813 -0.435 117.031    107.88   30.39   91.45   19.65  172.52  -18.83

DOCKED: MODEL       70
DOCKED: USER    Run = 70
DOCKED: USER    DPF = ligand_dock.biased.dpf
DOCKED: USER  
DOCKED: USER    Estimated Free Energy of Binding    =  -11.26 kcal/mol  [=(1)+(2)+(3)-(4)]
DOCKED: USER    Estimated Inhibition Constant, Ki   =    5.55 nM (nanomolar)  [Temperature = 298.15 K]
DOCKED: USER    
DOCKED: USER    (1) Final Intermolecular Energy     =  -13.05 kcal/mol
DOCKED: USER        vdW + Hbond + desolv Energy     =  -13.05 kcal/mol
DOCKED: USER        Electrostatic Energy            =   +0.00 kcal/mol
DOCKED: USER    (2) Final Total Internal Energy     =   -1.15 kcal/mol
DOCKED: USER    (3) Torsional Free Energy           =   +1.79 kcal/mol
DOCKED: USER    (4) Unbound System's Energy  [=(2)] =   -1.15 kcal/mol
DOCKED: USER    
DOCKED: USER    
DOCKED: USER    NEWDPF move ligand.dum.pdbqt
DOCKED: USER    NEWDPF about -0.963000 -0.416000 0.212000
DOCKED: USER    NEWDPF tran0 36.276607 14.990798 121.747360
DOCKED: USER    NEWDPF quaternion0 -0.329412 -0.693473 -0.371240 0.522267
DOCKED: USER    NEWDPF axisangle0 -0.386280 -0.813189 -0.435329 117.031125
DOCKED: USER    NEWDPF quat0 -0.386280 -0.813189 -0.435329 117.031125
DOCKED: USER    NEWDPF dihe0 107.88 30.39 91.45 19.65 172.52 -18.83 
DOCKED: USER  keepresnum = 1 
DOCKED: USER  
DOCKED: REMARK  Name = 
DOCKED: REMARK  10 active torsions:
DOCKED: REMARK  status: ('A' for Active; 'I' for Inactive)
DOCKED: REMARK    1  A    between atoms: C_1  and  N_2
DOCKED: REMARK    2  A    between atoms: N_2  and  C_3
DOCKED: REMARK    3  A    between atoms: N_2  and  C_22
DOCKED: REMARK    4  A    between atoms: C_6  and  C_9
DOCKED: REMARK    5  A    between atoms: C_9  and  C_10
DOCKED: REMARK    6  A    between atoms: C_10  and  C_11
DOCKED: REMARK    7  A    between atoms: C_10  and  C_20
DOCKED: REMARK    8  A    between atoms: C_12  and  C_13
DOCKED: REMARK    9  A    between atoms: C_12  and  C_19
DOCKED: REMARK   10  A    between atoms: C_14  and  C_15
DOCKED: REMARK                            x       y       z     vdW  Elec       q    Type
DOCKED: REMARK                         _______ _______ _______ _____ _____    ______ ____
DOCKED: USER                              x       y       z     vdW  Elec       q    Type
DOCKED: USER                           _______ _______ _______ _____ _____    ______ ____
DOCKED: ROOT
DOCKED: ATOM      1  C   UNL     1      37.547  15.713 122.399 -0.31 -0.00    +0.000 C 
DOCKED: ATOM      2  C   UNL     1      38.819  16.327 122.989 -0.28 -0.00    +0.000 C 
DOCKED: ENDROOT
DOCKED: BRANCH   1   3
DOCKED: ATOM      3  C   UNL     1      37.593  14.203 122.520 -0.47 -0.00    +0.000 C 
DOCKED: ATOM      4  C   UNL     1      36.799  13.468 123.327 -0.58 -0.00    +0.000 C 
DOCKED: ATOM      5  C   UNL     1      35.745  14.105 124.205 -0.48 -0.00    +0.000 C 
DOCKED: BRANCH   4   6
DOCKED: ATOM      6  C   UNL     1      36.957  11.991 123.297 -0.67 -0.00    +0.000 C 
DOCKED: ATOM      7  C   UNL     1      36.736  11.254 122.198 -0.62 -0.00    +0.000 C 
DOCKED: BRANCH   7   8
DOCKED: ATOM      8  C   UNL     1      36.893   9.785 122.157 -0.63 -0.00    +0.000 C 
DOCKED: ATOM      9  N   UNL     1      37.034   8.994 123.342 -0.62 -0.00    +0.000 N 
DOCKED: ATOM     10  O   UNL     1      37.070   7.644 123.257 -2.55 -0.00    +0.000 OA
DOCKED: ATOM     11  O   UNL     1      36.928   9.219 121.032 -2.69 -0.00    +0.000 OA
DOCKED: ATOM     12  H   UNL     1      37.104   9.434 124.221 -0.58 -0.00    +0.000 HD
DOCKED: ENDBRANCH   7   8
DOCKED: ENDBRANCH   4   6
DOCKED: ENDBRANCH   1   3
DOCKED: BRANCH   1  13
DOCKED: ATOM     13  C   UNL     1      37.399  16.132 120.949 -0.20 -0.00    +0.000 C 
DOCKED: ATOM     14  O   UNL     1      38.334  15.877 120.139 -0.17 -0.00    +0.000 OA
DOCKED: BRANCH  13  18
DOCKED: ATOM     15  C   UNL     1      33.901  18.256 119.556 -0.25 -0.00    +0.000 A 
DOCKED: ATOM     16  C   UNL     1      34.230  18.208 120.925 -0.31 -0.00    +0.000 A 
DOCKED: ATOM     17  C   UNL     1      35.362  17.519 121.366 -0.25 -0.00    +0.000 A 
DOCKED: ATOM     18  C   UNL     1      36.204  16.864 120.454 -0.16 -0.00    +0.000 A 
DOCKED: ATOM     19  C   UNL     1      35.875  16.897 119.088 -0.13 -0.00    +0.000 A 
DOCKED: ATOM     20  C   UNL     1      34.742  17.585 118.646 -0.13 -0.00    +0.000 A 
DOCKED: ATOM     21  CM  UNL     1      35.052  17.555 120.006 +0.00 -0.00    +0.000 AC
DOCKED: BRANCH  15  22
DOCKED: ATOM     22  C   UNL     1      31.411  18.721 119.701 -0.50 -0.00    +0.000 C 
DOCKED: ATOM     23  N   UNL     1      32.725  18.973 119.095 -0.30 -0.00    +0.000 N 
DOCKED: ATOM     24  C   UNL     1      32.830  19.963 118.017 -0.19 -0.00    +0.000 C 
DOCKED: ENDBRANCH  15  22
DOCKED: ENDBRANCH  13  18
DOCKED: ENDBRANCH   1  13
DOCKED: TORSDOF 6DOCKED: TER
DOCKED: ENDMDL
________________________________________________________________________________


	BEGINNING GENETIC ALGORITHM DOCKING 71 of 100
Run: 71 Seed: 951282039 876156899 [ Run 71 of 100 GA/GALS ]
Beginning LAMARCKIAN GENETIC ALGORITHM (LGA), with a maximum of 2500000 energy evaluations.

Final-Value: -14.812


	FINAL GENETIC ALGORITHM DOCKED STATE
	_______________________________________________


Detailed state:  trans 35.718 15.113 121.511 quatxyzw 0.418530 0.740079 0.265570 -0.454520 center -0.963 -0.416 0.212 ntor 6 -105.1592 -33.1673 164.5946 20.5252 41.0800 -180.0000
State:	 35.718  15.113 121.511   0.470  0.831  0.298 -125.932   -105.16  -33.17  164.59   20.53   41.08 -180.00

DOCKED: MODEL       71
DOCKED: USER    Run = 71
DOCKED: USER    DPF = ligand_dock.biased.dpf
DOCKED: USER  
DOCKED: USER    Estimated Free Energy of Binding    =  -11.72 kcal/mol  [=(1)+(2)+(3)-(4)]
DOCKED: USER    Estimated Inhibition Constant, Ki   =    2.55 nM (nanomolar)  [Temperature = 298.15 K]
DOCKED: USER    
DOCKED: USER    (1) Final Intermolecular Energy     =  -13.51 kcal/mol
DOCKED: USER        vdW + Hbond + desolv Energy     =  -13.51 kcal/mol
DOCKED: USER        Electrostatic Energy            =   +0.00 kcal/mol
DOCKED: USER    (2) Final Total Internal Energy     =   -1.30 kcal/mol
DOCKED: USER    (3) Torsional Free Energy           =   +1.79 kcal/mol
DOCKED: USER    (4) Unbound System's Energy  [=(2)] =   -1.30 kcal/mol
DOCKED: USER    
DOCKED: USER    
DOCKED: USER    NEWDPF move ligand.dum.pdbqt
DOCKED: USER    NEWDPF about -0.963000 -0.416000 0.212000
DOCKED: USER    NEWDPF tran0 35.718308 15.112656 121.510833
DOCKED: USER    NEWDPF quaternion0 0.418530 0.740079 0.265570 -0.454520
DOCKED: USER    NEWDPF axisangle0 0.469869 0.830862 0.298146 -125.931948
DOCKED: USER    NEWDPF quat0 0.469869 0.830862 0.298146 -125.931948
DOCKED: USER    NEWDPF dihe0 -105.16 -33.17 164.59 20.53 41.08 -180.00 
DOCKED: USER  keepresnum = 1 
DOCKED: USER  
DOCKED: REMARK  Name = 
DOCKED: REMARK  10 active torsions:
DOCKED: REMARK  status: ('A' for Active; 'I' for Inactive)
DOCKED: REMARK    1  A    between atoms: C_1  and  N_2
DOCKED: REMARK    2  A    between atoms: N_2  and  C_3
DOCKED: REMARK    3  A    between atoms: N_2  and  C_22
DOCKED: REMARK    4  A    between atoms: C_6  and  C_9
DOCKED: REMARK    5  A    between atoms: C_9  and  C_10
DOCKED: REMARK    6  A    between atoms: C_10  and  C_11
DOCKED: REMARK    7  A    between atoms: C_10  and  C_20
DOCKED: REMARK    8  A    between atoms: C_12  and  C_13
DOCKED: REMARK    9  A    between atoms: C_12  and  C_19
DOCKED: REMARK   10  A    between atoms: C_14  and  C_15
DOCKED: REMARK                            x       y       z     vdW  Elec       q    Type
DOCKED: REMARK                         _______ _______ _______ _____ _____    ______ ____
DOCKED: USER                              x       y       z     vdW  Elec       q    Type
DOCKED: USER                           _______ _______ _______ _____ _____    ______ ____
DOCKED: ROOT
DOCKED: ATOM      1  C   UNL     1      37.211  15.641 121.745 -0.27 -0.00    +0.000 C 
DOCKED: ATOM      2  C   UNL     1      38.672  16.059 121.927 -0.24 -0.00    +0.000 C 
DOCKED: ENDROOT
DOCKED: BRANCH   1   3
DOCKED: ATOM      3  C   UNL     1      37.069  14.145 121.946 -0.40 -0.00    +0.000 C 
DOCKED: ATOM      4  C   UNL     1      36.419  13.562 122.975 -0.54 -0.00    +0.000 C 
DOCKED: ATOM      5  C   UNL     1      35.736  14.375 124.052 -0.52 -0.00    +0.000 C 
DOCKED: BRANCH   4   6
DOCKED: ATOM      6  C   UNL     1      36.349  12.078 122.999 -0.67 -0.00    +0.000 C 
DOCKED: ATOM      7  C   UNL     1      37.074  11.298 122.183 -0.56 -0.00    +0.000 C 
DOCKED: BRANCH   7   8
DOCKED: ATOM      8  C   UNL     1      37.015   9.822 122.201 -0.59 -0.00    +0.000 C 
DOCKED: ATOM      9  N   UNL     1      37.159   9.062 123.407 -0.56 -0.00    +0.000 N 
DOCKED: ATOM     10  O   UNL     1      36.993   7.719 123.387 -2.62 -0.00    +0.000 OA
DOCKED: ATOM     11  O   UNL     1      36.856   9.215 121.108 -2.67 -0.00    +0.000 OA
DOCKED: ATOM     12  H   UNL     1      37.378   9.518 124.253 -0.63 -0.00    +0.000 HD
DOCKED: ENDBRANCH   7   8
DOCKED: ENDBRANCH   4   6
DOCKED: ENDBRANCH   1   3
DOCKED: BRANCH   1  13
DOCKED: ATOM     13  C   UNL     1      36.727  16.046 120.367 -0.19 -0.00    +0.000 C 
DOCKED: ATOM     14  O   UNL     1      35.965  17.046 120.254 -0.20 -0.00    +0.000 OA
DOCKED: BRANCH  13  18
DOCKED: ATOM     15  C   UNL     1      37.799  13.875 116.784 -0.34 -0.00    +0.000 A 
DOCKED: ATOM     16  C   UNL     1      38.267  15.184 117.014 -0.18 -0.00    +0.000 A 
DOCKED: ATOM     17  C   UNL     1      37.915  15.878 118.174 -0.14 -0.00    +0.000 A 
DOCKED: ATOM     18  C   UNL     1      37.093  15.284 119.144 -0.20 -0.00    +0.000 A 
DOCKED: ATOM     19  C   UNL     1      36.611  13.984 118.915 -0.30 -0.00    +0.000 A 
DOCKED: ATOM     20  C   UNL     1      36.962  13.288 117.755 -0.33 -0.00    +0.000 A 
DOCKED: ATOM     21  CM  UNL     1      37.441  14.583 117.964 +0.00 -0.00    +0.000 AC
DOCKED: BRANCH  15  22
DOCKED: ATOM     22  C   UNL     1      39.301  12.222 115.582 -0.48 -0.00    +0.000 C 
DOCKED: ATOM     23  N   UNL     1      38.165  13.152 115.579 -0.48 -0.00    +0.000 N 
DOCKED: ATOM     24  C   UNL     1      37.404  13.339 114.338 -0.41 -0.00    +0.000 C 
DOCKED: ENDBRANCH  15  22
DOCKED: ENDBRANCH  13  18
DOCKED: ENDBRANCH   1  13
DOCKED: TORSDOF 6DOCKED: TER
DOCKED: ENDMDL
________________________________________________________________________________


	BEGINNING GENETIC ALGORITHM DOCKING 72 of 100
Run: 72 Seed: 1817640634 1841174016 [ Run 72 of 100 GA/GALS ]
Beginning LAMARCKIAN GENETIC ALGORITHM (LGA), with a maximum of 2500000 energy evaluations.

Final-Value: -13.569


	FINAL GENETIC ALGORITHM DOCKED STATE
	_______________________________________________


Detailed state:  trans 38.870 14.454 120.969 quatxyzw 0.012826 -0.039724 -0.450359 0.891871 center -0.963 -0.416 0.212 ntor 6 83.2420 -176.4912 171.8121 40.8216 125.9575 60.9933
State:	 38.870  14.454 120.969   0.028 -0.088 -0.996 53.781     83.24 -176.49  171.81   40.82  125.96   60.99

DOCKED: MODEL       72
DOCKED: USER    Run = 72
DOCKED: USER    DPF = ligand_dock.biased.dpf
DOCKED: USER  
DOCKED: USER    Estimated Free Energy of Binding    =  -10.77 kcal/mol  [=(1)+(2)+(3)-(4)]
DOCKED: USER    Estimated Inhibition Constant, Ki   =   12.82 nM (nanomolar)  [Temperature = 298.15 K]
DOCKED: USER    
DOCKED: USER    (1) Final Intermolecular Energy     =  -12.56 kcal/mol
DOCKED: USER        vdW + Hbond + desolv Energy     =  -12.56 kcal/mol
DOCKED: USER        Electrostatic Energy            =   +0.00 kcal/mol
DOCKED: USER    (2) Final Total Internal Energy     =   -1.01 kcal/mol
DOCKED: USER    (3) Torsional Free Energy           =   +1.79 kcal/mol
DOCKED: USER    (4) Unbound System's Energy  [=(2)] =   -1.01 kcal/mol
DOCKED: USER    
DOCKED: USER    
DOCKED: USER    NEWDPF move ligand.dum.pdbqt
DOCKED: USER    NEWDPF about -0.963000 -0.416000 0.212000
DOCKED: USER    NEWDPF tran0 38.869644 14.454182 120.968745
DOCKED: USER    NEWDPF quaternion0 0.012826 -0.039724 -0.450359 0.891871
DOCKED: USER    NEWDPF axisangle0 0.028358 -0.087828 -0.995732 53.781359
DOCKED: USER    NEWDPF quat0 0.028358 -0.087828 -0.995732 53.781359
DOCKED: USER    NEWDPF dihe0 83.24 -176.49 171.81 40.82 125.96 60.99 
DOCKED: USER  keepresnum = 1 
DOCKED: USER  
DOCKED: REMARK  Name = 
DOCKED: REMARK  10 active torsions:
DOCKED: REMARK  status: ('A' for Active; 'I' for Inactive)
DOCKED: REMARK    1  A    between atoms: C_1  and  N_2
DOCKED: REMARK    2  A    between atoms: N_2  and  C_3
DOCKED: REMARK    3  A    between atoms: N_2  and  C_22
DOCKED: REMARK    4  A    between atoms: C_6  and  C_9
DOCKED: REMARK    5  A    between atoms: C_9  and  C_10
DOCKED: REMARK    6  A    between atoms: C_10  and  C_11
DOCKED: REMARK    7  A    between atoms: C_10  and  C_20
DOCKED: REMARK    8  A    between atoms: C_12  and  C_13
DOCKED: REMARK    9  A    between atoms: C_12  and  C_19
DOCKED: REMARK   10  A    between atoms: C_14  and  C_15
DOCKED: REMARK                            x       y       z     vdW  Elec       q    Type
DOCKED: REMARK                         _______ _______ _______ _____ _____    ______ ____
DOCKED: USER                              x       y       z     vdW  Elec       q    Type
DOCKED: USER                           _______ _______ _______ _____ _____    ______ ____
DOCKED: ROOT
DOCKED: ATOM      1  C   UNL     1      38.125  15.126 122.216 -0.36 -0.00    +0.000 C 
DOCKED: ATOM      2  C   UNL     1      37.430  15.683 123.461 -0.35 -0.00    +0.000 C 
DOCKED: ENDROOT
DOCKED: BRANCH   1   3
DOCKED: ATOM      3  C   UNL     1      37.846  13.642 122.084 -0.48 -0.00    +0.000 C 
DOCKED: ATOM      4  C   UNL     1      37.452  13.028 120.948 -0.49 -0.00    +0.000 C 
DOCKED: ATOM      5  C   UNL     1      37.258  13.788 119.655 -0.39 -0.00    +0.000 C 
DOCKED: BRANCH   4   6
DOCKED: ATOM      6  C   UNL     1      37.254  11.556 120.989 -0.47 -0.00    +0.000 C 
DOCKED: ATOM      7  C   UNL     1      37.095  10.870 122.131 -0.50 -0.00    +0.000 C 
DOCKED: BRANCH   7   8
DOCKED: ATOM      8  C   UNL     1      36.894   9.408 122.183 -0.66 -0.00    +0.000 C 
DOCKED: ATOM      9  N   UNL     1      37.020   8.658 123.396 -0.65 -0.00    +0.000 N 
DOCKED: ATOM     10  O   UNL     1      36.724   7.337 123.412 -2.24 -0.00    +0.000 OA
DOCKED: ATOM     11  O   UNL     1      36.626   8.802 121.111 -2.50 -0.00    +0.000 OA
DOCKED: ATOM     12  H   UNL     1      37.321   9.104 124.221 -0.61 -0.00    +0.000 HD
DOCKED: ENDBRANCH   7   8
DOCKED: ENDBRANCH   4   6
DOCKED: ENDBRANCH   1   3
DOCKED: BRANCH   1  13
DOCKED: ATOM     13  C   UNL     1      39.616  15.387 122.299 -0.38 -0.00    +0.000 C 
DOCKED: ATOM     14  O   UNL     1      40.418  14.466 121.977 -1.07 -0.00    +0.000 OA
DOCKED: BRANCH  13  18
DOCKED: ATOM     15  C   UNL     1      41.192  19.173 123.669 -0.14 -0.00    +0.000 A 
DOCKED: ATOM     16  C   UNL     1      39.927  19.086 123.055 -0.08 -0.00    +0.000 A 
DOCKED: ATOM     17  C   UNL     1      39.426  17.859 122.615 -0.13 -0.00    +0.000 A 
DOCKED: ATOM     18  C   UNL     1      40.168  16.680 122.782 -0.25 -0.00    +0.000 A 
DOCKED: ATOM     19  C   UNL     1      41.436  16.760 123.382 -0.33 -0.00    +0.000 A 
DOCKED: ATOM     20  C   UNL     1      41.939  17.987 123.822 -0.23 -0.00    +0.000 A 
DOCKED: ATOM     21  CM  UNL     1      40.681  17.924 123.221 +0.00 -0.00    +0.000 AC
DOCKED: BRANCH  15  22
DOCKED: ATOM     22  C   UNL     1      42.251  21.423 123.171 -0.05 -0.00    +0.000 C 
DOCKED: ATOM     23  N   UNL     1      41.713  20.448 124.128 -0.10 -0.00    +0.000 N 
DOCKED: ATOM     24  C   UNL     1      41.712  20.784 125.557 -0.12 -0.00    +0.000 C 
DOCKED: ENDBRANCH  15  22
DOCKED: ENDBRANCH  13  18
DOCKED: ENDBRANCH   1  13
DOCKED: TORSDOF 6DOCKED: TER
DOCKED: ENDMDL
________________________________________________________________________________


	BEGINNING GENETIC ALGORITHM DOCKING 73 of 100
Run: 73 Seed: 1305953199 113748732 [ Run 73 of 100 GA/GALS ]
Beginning LAMARCKIAN GENETIC ALGORITHM (LGA), with a maximum of 2500000 energy evaluations.

Final-Value: -15.163


	FINAL GENETIC ALGORITHM DOCKED STATE
	_______________________________________________


Detailed state:  trans 36.459 14.839 122.418 quatxyzw 0.449874 0.793564 0.218541 -0.346567 center -0.963 -0.416 0.212 ntor 6 -78.9921 19.2030 86.5622 61.9377 -150.0496 170.1103
State:	 36.459  14.839 122.418   0.480  0.846  0.233 -139.445    -78.99   19.20   86.56   61.94 -150.05  170.11

DOCKED: MODEL       73
DOCKED: USER    Run = 73
DOCKED: USER    DPF = ligand_dock.biased.dpf
DOCKED: USER  
DOCKED: USER    Estimated Free Energy of Binding    =  -12.05 kcal/mol  [=(1)+(2)+(3)-(4)]
DOCKED: USER    Estimated Inhibition Constant, Ki   =    1.47 nM (nanomolar)  [Temperature = 298.15 K]
DOCKED: USER    
DOCKED: USER    (1) Final Intermolecular Energy     =  -13.84 kcal/mol
DOCKED: USER        vdW + Hbond + desolv Energy     =  -13.84 kcal/mol
DOCKED: USER        Electrostatic Energy            =   +0.00 kcal/mol
DOCKED: USER    (2) Final Total Internal Energy     =   -1.33 kcal/mol
DOCKED: USER    (3) Torsional Free Energy           =   +1.79 kcal/mol
DOCKED: USER    (4) Unbound System's Energy  [=(2)] =   -1.33 kcal/mol
DOCKED: USER    
DOCKED: USER    
DOCKED: USER    NEWDPF move ligand.dum.pdbqt
DOCKED: USER    NEWDPF about -0.963000 -0.416000 0.212000
DOCKED: USER    NEWDPF tran0 36.459260 14.838601 122.418279
DOCKED: USER    NEWDPF quaternion0 0.449874 0.793564 0.218541 -0.346567
DOCKED: USER    NEWDPF axisangle0 0.479597 0.845995 0.232980 -139.444983
DOCKED: USER    NEWDPF quat0 0.479597 0.845995 0.232980 -139.444983
DOCKED: USER    NEWDPF dihe0 -78.99 19.20 86.56 61.94 -150.05 170.11 
DOCKED: USER  keepresnum = 1 
DOCKED: USER  
DOCKED: REMARK  Name = 
DOCKED: REMARK  10 active torsions:
DOCKED: REMARK  status: ('A' for Active; 'I' for Inactive)
DOCKED: REMARK    1  A    between atoms: C_1  and  N_2
DOCKED: REMARK    2  A    between atoms: N_2  and  C_3
DOCKED: REMARK    3  A    between atoms: N_2  and  C_22
DOCKED: REMARK    4  A    between atoms: C_6  and  C_9
DOCKED: REMARK    5  A    between atoms: C_9  and  C_10
DOCKED: REMARK    6  A    between atoms: C_10  and  C_11
DOCKED: REMARK    7  A    between atoms: C_10  and  C_20
DOCKED: REMARK    8  A    between atoms: C_12  and  C_13
DOCKED: REMARK    9  A    between atoms: C_12  and  C_19
DOCKED: REMARK   10  A    between atoms: C_14  and  C_15
DOCKED: REMARK                            x       y       z     vdW  Elec       q    Type
DOCKED: REMARK                         _______ _______ _______ _____ _____    ______ ____
DOCKED: USER                              x       y       z     vdW  Elec       q    Type
DOCKED: USER                           _______ _______ _______ _____ _____    ______ ____
DOCKED: ROOT
DOCKED: ATOM      1  C   UNL     1      37.955  15.385 122.265 -0.34 -0.00    +0.000 C 
DOCKED: ATOM      2  C   UNL     1      39.409  15.823 122.067 -0.30 -0.00    +0.000 C 
DOCKED: ENDROOT
DOCKED: BRANCH   1   3
DOCKED: ATOM      3  C   UNL     1      37.887  13.884 122.463 -0.49 -0.00    +0.000 C 
DOCKED: ATOM      4  C   UNL     1      36.913  13.237 123.138 -0.59 -0.00    +0.000 C 
DOCKED: ATOM      5  C   UNL     1      35.754  13.976 123.770 -0.55 -0.00    +0.000 C 
DOCKED: BRANCH   4   6
DOCKED: ATOM      6  C   UNL     1      36.984  11.755 123.207 -0.67 -0.00    +0.000 C 
DOCKED: ATOM      7  C   UNL     1      36.833  10.964 122.133 -0.60 -0.00    +0.000 C 
DOCKED: BRANCH   7   8
DOCKED: ATOM      8  C   UNL     1      36.905   9.490 122.190 -0.65 -0.00    +0.000 C 
DOCKED: ATOM      9  N   UNL     1      37.111   8.778 123.415 -0.62 -0.00    +0.000 N 
DOCKED: ATOM     10  O   UNL     1      37.065   7.425 123.430 -2.48 -0.00    +0.000 OA
DOCKED: ATOM     11  O   UNL     1      36.803   8.844 121.113 -2.64 -0.00    +0.000 OA
DOCKED: ATOM     12  H   UNL     1      37.286   9.273 124.248 -0.61 -0.00    +0.000 HD
DOCKED: ENDBRANCH   7   8
DOCKED: ENDBRANCH   4   6
DOCKED: ENDBRANCH   1   3
DOCKED: BRANCH   1  13
DOCKED: ATOM     13  C   UNL     1      37.124  15.809 121.071 -0.23 -0.00    +0.000 C 
DOCKED: ATOM     14  O   UNL     1      36.215  16.672 121.232 -0.23 -0.00    +0.000 OA
DOCKED: BRANCH  13  18
DOCKED: ATOM     15  C   UNL     1      37.699  14.045 117.166 -0.31 -0.00    +0.000 A 
DOCKED: ATOM     16  C   UNL     1      37.421  13.249 118.294 -0.36 -0.00    +0.000 A 
DOCKED: ATOM     17  C   UNL     1      37.237  13.827 119.552 -0.34 -0.00    +0.000 A 
DOCKED: ATOM     18  C   UNL     1      37.317  15.218 119.721 -0.21 -0.00    +0.000 A 
DOCKED: ATOM     19  C   UNL     1      37.607  16.018 118.602 -0.14 -0.00    +0.000 A 
DOCKED: ATOM     20  C   UNL     1      37.793  15.440 117.343 -0.16 -0.00    +0.000 A 
DOCKED: ATOM     21  CM  UNL     1      37.513  14.632 118.447 +0.00 -0.00    +0.000 AC
DOCKED: BRANCH  15  22
DOCKED: ATOM     22  C   UNL     1      37.033  13.829 114.728 -0.36 -0.00    +0.000 C 
DOCKED: ATOM     23  N   UNL     1      37.890  13.445 115.857 -0.42 -0.00    +0.000 N 
DOCKED: ATOM     24  C   UNL     1      38.942  12.445 115.641 -0.55 -0.00    +0.000 C 
DOCKED: ENDBRANCH  15  22
DOCKED: ENDBRANCH  13  18
DOCKED: ENDBRANCH   1  13
DOCKED: TORSDOF 6DOCKED: TER
DOCKED: ENDMDL
________________________________________________________________________________


	BEGINNING GENETIC ALGORITHM DOCKING 74 of 100
Run: 74 Seed: 1305199775 1022006888 [ Run 74 of 100 GA/GALS ]
Beginning LAMARCKIAN GENETIC ALGORITHM (LGA), with a maximum of 2500000 energy evaluations.

Final-Value: -15.000


	FINAL GENETIC ALGORITHM DOCKED STATE
	_______________________________________________


Detailed state:  trans 36.793 14.950 123.525 quatxyzw 0.542736 0.827745 0.138586 0.032707 center -0.963 -0.416 0.212 ntor 6 -180.0000 171.5504 -168.7959 -148.8957 -102.0464 -40.7140
State:	 36.793  14.950 123.525   0.543  0.828  0.139 176.251   -180.00  171.55 -168.80 -148.90 -102.05  -40.71

DOCKED: MODEL       74
DOCKED: USER    Run = 74
DOCKED: USER    DPF = ligand_dock.biased.dpf
DOCKED: USER  
DOCKED: USER    Estimated Free Energy of Binding    =  -12.24 kcal/mol  [=(1)+(2)+(3)-(4)]
DOCKED: USER    Estimated Inhibition Constant, Ki   =    1.07 nM (nanomolar)  [Temperature = 298.15 K]
DOCKED: USER    
DOCKED: USER    (1) Final Intermolecular Energy     =  -14.03 kcal/mol
DOCKED: USER        vdW + Hbond + desolv Energy     =  -14.03 kcal/mol
DOCKED: USER        Electrostatic Energy            =   +0.00 kcal/mol
DOCKED: USER    (2) Final Total Internal Energy     =   -0.97 kcal/mol
DOCKED: USER    (3) Torsional Free Energy           =   +1.79 kcal/mol
DOCKED: USER    (4) Unbound System's Energy  [=(2)] =   -0.97 kcal/mol
DOCKED: USER    
DOCKED: USER    
DOCKED: USER    NEWDPF move ligand.dum.pdbqt
DOCKED: USER    NEWDPF about -0.963000 -0.416000 0.212000
DOCKED: USER    NEWDPF tran0 36.792638 14.950176 123.525022
DOCKED: USER    NEWDPF quaternion0 0.542736 0.827745 0.138586 0.032707
DOCKED: USER    NEWDPF axisangle0 0.543027 0.828188 0.138661 176.251381
DOCKED: USER    NEWDPF quat0 0.543027 0.828188 0.138661 176.251381
DOCKED: USER    NEWDPF dihe0 -180.00 171.55 -168.80 -148.90 -102.05 -40.71 
DOCKED: USER  keepresnum = 1 
DOCKED: USER  
DOCKED: REMARK  Name = 
DOCKED: REMARK  10 active torsions:
DOCKED: REMARK  status: ('A' for Active; 'I' for Inactive)
DOCKED: REMARK    1  A    between atoms: C_1  and  N_2
DOCKED: REMARK    2  A    between atoms: N_2  and  C_3
DOCKED: REMARK    3  A    between atoms: N_2  and  C_22
DOCKED: REMARK    4  A    between atoms: C_6  and  C_9
DOCKED: REMARK    5  A    between atoms: C_9  and  C_10
DOCKED: REMARK    6  A    between atoms: C_10  and  C_11
DOCKED: REMARK    7  A    between atoms: C_10  and  C_20
DOCKED: REMARK    8  A    between atoms: C_12  and  C_13
DOCKED: REMARK    9  A    between atoms: C_12  and  C_19
DOCKED: REMARK   10  A    between atoms: C_14  and  C_15
DOCKED: REMARK                            x       y       z     vdW  Elec       q    Type
DOCKED: REMARK                         _______ _______ _______ _____ _____    ______ ____
DOCKED: USER                              x       y       z     vdW  Elec       q    Type
DOCKED: USER                           _______ _______ _______ _____ _____    ______ ____
DOCKED: ROOT
DOCKED: ATOM      1  C   UNL     1      37.834  15.652 122.533 -0.33 -0.00    +0.000 C 
DOCKED: ATOM      2  C   UNL     1      38.802  16.257 121.513 -0.20 -0.00    +0.000 C 
DOCKED: ENDROOT
DOCKED: BRANCH   1   3
DOCKED: ATOM      3  C   UNL     1      37.763  14.148 122.356 -0.46 -0.00    +0.000 C 
DOCKED: ATOM      4  C   UNL     1      37.420  13.521 121.211 -0.45 -0.00    +0.000 C 
DOCKED: ATOM      5  C   UNL     1      37.075  14.287 119.953 -0.31 -0.00    +0.000 C 
DOCKED: BRANCH   4   6
DOCKED: ATOM      6  C   UNL     1      37.433  12.035 121.203 -0.50 -0.00    +0.000 C 
DOCKED: ATOM      7  C   UNL     1      37.041  11.295 122.251 -0.57 -0.00    +0.000 C 
DOCKED: BRANCH   7   8
DOCKED: ATOM      8  C   UNL     1      37.047   9.818 122.254 -0.59 -0.00    +0.000 C 
DOCKED: ATOM      9  N   UNL     1      37.163   9.052 123.459 -0.54 -0.00    +0.000 N 
DOCKED: ATOM     10  O   UNL     1      37.059   7.704 123.418 -2.67 -0.00    +0.000 OA
DOCKED: ATOM     11  O   UNL     1      36.971   9.217 121.149 -2.71 -0.00    +0.000 OA
DOCKED: ATOM     12  H   UNL     1      37.319   9.508 124.318 -0.61 -0.00    +0.000 HD
DOCKED: ENDBRANCH   7   8
DOCKED: ENDBRANCH   4   6
DOCKED: ENDBRANCH   1   3
DOCKED: BRANCH   1  13
DOCKED: ATOM     13  C   UNL     1      36.462  16.277 122.373 -0.29 -0.00    +0.000 C 
DOCKED: ATOM     14  O   UNL     1      36.065  16.597 121.217 -0.24 -0.00    +0.000 OA
DOCKED: BRANCH  13  18
DOCKED: ATOM     15  C   UNL     1      33.922  17.143 125.763 -0.37 -0.00    +0.000 A 
DOCKED: ATOM     16  C   UNL     1      34.628  18.165 125.098 -0.31 -0.00    +0.000 A 
DOCKED: ATOM     17  C   UNL     1      35.447  17.876 124.005 -0.28 -0.00    +0.000 A 
DOCKED: ATOM     18  C   UNL     1      35.580  16.560 123.535 -0.35 -0.00    +0.000 A 
DOCKED: ATOM     19  C   UNL     1      34.889  15.533 124.201 -0.51 -0.00    +0.000 A 
DOCKED: ATOM     20  C   UNL     1      34.070  15.821 125.297 -0.43 -0.00    +0.000 A 
DOCKED: ATOM     21  CM  UNL     1      34.756  16.850 124.650 -0.24 -0.00    +0.000 AC
DOCKED: BRANCH  15  22
DOCKED: ATOM     22  C   UNL     1      32.562  18.803 127.115 -0.27 -0.00    +0.000 C 
DOCKED: ATOM     23  N   UNL     1      33.070  17.442 126.900 -0.36 -0.00    +0.000 N 
DOCKED: ATOM     24  C   UNL     1      32.701  16.389 127.854 -0.45 -0.00    +0.000 C 
DOCKED: ENDBRANCH  15  22
DOCKED: ENDBRANCH  13  18
DOCKED: ENDBRANCH   1  13
DOCKED: TORSDOF 6DOCKED: TER
DOCKED: ENDMDL
________________________________________________________________________________


	BEGINNING GENETIC ALGORITHM DOCKING 75 of 100
Run: 75 Seed: 1126678287 1620653600 [ Run 75 of 100 GA/GALS ]
Beginning LAMARCKIAN GENETIC ALGORITHM (LGA), with a maximum of 2500000 energy evaluations.

Final-Value: -15.168


	FINAL GENETIC ALGORITHM DOCKED STATE
	_______________________________________________


Detailed state:  trans 36.565 14.881 121.974 quatxyzw -0.464574 -0.781852 -0.188153 0.370779 center -0.963 -0.416 0.212 ntor 6 79.5070 8.0089 109.5835 52.6205 56.0965 167.8319
State:	 36.565  14.881 121.974  -0.500 -0.842 -0.203 136.473     79.51    8.01  109.58   52.62   56.10  167.83

DOCKED: MODEL       75
DOCKED: USER    Run = 75
DOCKED: USER    DPF = ligand_dock.biased.dpf
DOCKED: USER  
DOCKED: USER    Estimated Free Energy of Binding    =  -11.97 kcal/mol  [=(1)+(2)+(3)-(4)]
DOCKED: USER    Estimated Inhibition Constant, Ki   =    1.69 nM (nanomolar)  [Temperature = 298.15 K]
DOCKED: USER    
DOCKED: USER    (1) Final Intermolecular Energy     =  -13.76 kcal/mol
DOCKED: USER        vdW + Hbond + desolv Energy     =  -13.76 kcal/mol
DOCKED: USER        Electrostatic Energy            =   +0.00 kcal/mol
DOCKED: USER    (2) Final Total Internal Energy     =   -1.41 kcal/mol
DOCKED: USER    (3) Torsional Free Energy           =   +1.79 kcal/mol
DOCKED: USER    (4) Unbound System's Energy  [=(2)] =   -1.41 kcal/mol
DOCKED: USER    
DOCKED: USER    
DOCKED: USER    NEWDPF move ligand.dum.pdbqt
DOCKED: USER    NEWDPF about -0.963000 -0.416000 0.212000
DOCKED: USER    NEWDPF tran0 36.565001 14.881355 121.974339
DOCKED: USER    NEWDPF quaternion0 -0.464574 -0.781852 -0.188153 0.370779
DOCKED: USER    NEWDPF axisangle0 -0.500230 -0.841858 -0.202594 136.472617
DOCKED: USER    NEWDPF quat0 -0.500230 -0.841858 -0.202594 136.472617
DOCKED: USER    NEWDPF dihe0 79.51 8.01 109.58 52.62 56.10 167.83 
DOCKED: USER  keepresnum = 1 
DOCKED: USER  
DOCKED: REMARK  Name = 
DOCKED: REMARK  10 active torsions:
DOCKED: REMARK  status: ('A' for Active; 'I' for Inactive)
DOCKED: REMARK    1  A    between atoms: C_1  and  N_2
DOCKED: REMARK    2  A    between atoms: N_2  and  C_3
DOCKED: REMARK    3  A    between atoms: N_2  and  C_22
DOCKED: REMARK    4  A    between atoms: C_6  and  C_9
DOCKED: REMARK    5  A    between atoms: C_9  and  C_10
DOCKED: REMARK    6  A    between atoms: C_10  and  C_11
DOCKED: REMARK    7  A    between atoms: C_10  and  C_20
DOCKED: REMARK    8  A    between atoms: C_12  and  C_13
DOCKED: REMARK    9  A    between atoms: C_12  and  C_19
DOCKED: REMARK   10  A    between atoms: C_14  and  C_15
DOCKED: REMARK                            x       y       z     vdW  Elec       q    Type
DOCKED: REMARK                         _______ _______ _______ _____ _____    ______ ____
DOCKED: USER                              x       y       z     vdW  Elec       q    Type
DOCKED: USER                           _______ _______ _______ _____ _____    ______ ____
DOCKED: ROOT
DOCKED: ATOM      1  C   UNL     1      38.096  15.320 121.814 -0.31 -0.00    +0.000 C 
DOCKED: ATOM      2  C   UNL     1      39.577  15.651 121.613 -0.29 -0.00    +0.000 C 
DOCKED: ENDROOT
DOCKED: BRANCH   1   3
DOCKED: ATOM      3  C   UNL     1      37.926  13.839 122.091 -0.47 -0.00    +0.000 C 
DOCKED: ATOM      4  C   UNL     1      37.011  13.311 122.931 -0.57 -0.00    +0.000 C 
DOCKED: ATOM      5  C   UNL     1      36.028  14.176 123.687 -0.55 -0.00    +0.000 C 
DOCKED: BRANCH   4   6
DOCKED: ATOM      6  C   UNL     1      36.961  11.831 123.060 -0.66 -0.00    +0.000 C 
DOCKED: ATOM      7  C   UNL     1      37.029  11.002 122.007 -0.55 -0.00    +0.000 C 
DOCKED: BRANCH   7   8
DOCKED: ATOM      8  C   UNL     1      36.984   9.530 122.125 -0.63 -0.00    +0.000 C 
DOCKED: ATOM      9  N   UNL     1      37.066   8.858 123.387 -0.63 -0.00    +0.000 N 
DOCKED: ATOM     10  O   UNL     1      36.915   7.515 123.451 -2.47 -0.00    +0.000 OA
DOCKED: ATOM     11  O   UNL     1      36.896   8.848 121.069 -2.66 -0.00    +0.000 OA
DOCKED: ATOM     12  H   UNL     1      37.231   9.374 124.209 -0.61 -0.00    +0.000 HD
DOCKED: ENDBRANCH   7   8
DOCKED: ENDBRANCH   4   6
DOCKED: ENDBRANCH   1   3
DOCKED: BRANCH   1  13
DOCKED: ATOM     13  C   UNL     1      37.306  15.731 120.586 -0.22 -0.00    +0.000 C 
DOCKED: ATOM     14  O   UNL     1      36.424  16.628 120.696 -0.21 -0.00    +0.000 OA
DOCKED: BRANCH  13  18
DOCKED: ATOM     15  C   UNL     1      37.913  13.908 116.713 -0.33 -0.00    +0.000 A 
DOCKED: ATOM     16  C   UNL     1      38.529  15.129 117.051 -0.19 -0.00    +0.000 A 
DOCKED: ATOM     17  C   UNL     1      38.327  15.711 118.304 -0.14 -0.00    +0.000 A 
DOCKED: ATOM     18  C   UNL     1      37.511  15.088 119.262 -0.21 -0.00    +0.000 A 
DOCKED: ATOM     19  C   UNL     1      36.883  13.876 118.927 -0.34 -0.00    +0.000 A 
DOCKED: ATOM     20  C   UNL     1      37.084  13.293 117.673 -0.35 -0.00    +0.000 A 
DOCKED: ATOM     21  CM  UNL     1      37.708  14.501 117.988 +0.00 -0.00    +0.000 AC
DOCKED: BRANCH  15  22
DOCKED: ATOM     22  C   UNL     1      37.380  13.776 114.236 -0.36 -0.00    +0.000 C 
DOCKED: ATOM     23  N   UNL     1      38.123  13.301 115.411 -0.46 -0.00    +0.000 N 
DOCKED: ATOM     24  C   UNL     1      39.082  12.202 115.245 -0.56 -0.00    +0.000 C 
DOCKED: ENDBRANCH  15  22
DOCKED: ENDBRANCH  13  18
DOCKED: ENDBRANCH   1  13
DOCKED: TORSDOF 6DOCKED: TER
DOCKED: ENDMDL
________________________________________________________________________________


	BEGINNING GENETIC ALGORITHM DOCKING 76 of 100
Run: 76 Seed: 1896546513 440466091 [ Run 76 of 100 GA/GALS ]
Beginning LAMARCKIAN GENETIC ALGORITHM (LGA), with a maximum of 2500000 energy evaluations.

Final-Value: -14.966


	FINAL GENETIC ALGORITHM DOCKED STATE
	_______________________________________________


Detailed state:  trans 36.637 14.951 123.422 quatxyzw -0.541954 -0.829854 -0.126299 -0.040959 center -0.963 -0.416 0.212 ntor 6 171.0812 180.0000 180.0000 -143.5640 -97.5911 -38.8556
State:	 36.637  14.951 123.422  -0.542 -0.831 -0.126 -175.305    171.08  180.00  180.00 -143.56  -97.59  -38.86

DOCKED: MODEL       76
DOCKED: USER    Run = 76
DOCKED: USER    DPF = ligand_dock.biased.dpf
DOCKED: USER  
DOCKED: USER    Estimated Free Energy of Binding    =  -12.24 kcal/mol  [=(1)+(2)+(3)-(4)]
DOCKED: USER    Estimated Inhibition Constant, Ki   =    1.07 nM (nanomolar)  [Temperature = 298.15 K]
DOCKED: USER    
DOCKED: USER    (1) Final Intermolecular Energy     =  -14.03 kcal/mol
DOCKED: USER        vdW + Hbond + desolv Energy     =  -14.03 kcal/mol
DOCKED: USER        Electrostatic Energy            =   +0.00 kcal/mol
DOCKED: USER    (2) Final Total Internal Energy     =   -0.94 kcal/mol
DOCKED: USER    (3) Torsional Free Energy           =   +1.79 kcal/mol
DOCKED: USER    (4) Unbound System's Energy  [=(2)] =   -0.94 kcal/mol
DOCKED: USER    
DOCKED: USER    
DOCKED: USER    NEWDPF move ligand.dum.pdbqt
DOCKED: USER    NEWDPF about -0.963000 -0.416000 0.212000
DOCKED: USER    NEWDPF tran0 36.637365 14.950597 123.422047
DOCKED: USER    NEWDPF quaternion0 -0.541954 -0.829854 -0.126299 -0.040959
DOCKED: USER    NEWDPF axisangle0 -0.542409 -0.830550 -0.126405 -175.305161
DOCKED: USER    NEWDPF quat0 -0.542409 -0.830550 -0.126405 -175.305161
DOCKED: USER    NEWDPF dihe0 171.08 180.00 180.00 -143.56 -97.59 -38.86 
DOCKED: USER  keepresnum = 1 
DOCKED: USER  
DOCKED: REMARK  Name = 
DOCKED: REMARK  10 active torsions:
DOCKED: REMARK  status: ('A' for Active; 'I' for Inactive)
DOCKED: REMARK    1  A    between atoms: C_1  and  N_2
DOCKED: REMARK    2  A    between atoms: N_2  and  C_3
DOCKED: REMARK    3  A    between atoms: N_2  and  C_22
DOCKED: REMARK    4  A    between atoms: C_6  and  C_9
DOCKED: REMARK    5  A    between atoms: C_9  and  C_10
DOCKED: REMARK    6  A    between atoms: C_10  and  C_11
DOCKED: REMARK    7  A    between atoms: C_10  and  C_20
DOCKED: REMARK    8  A    between atoms: C_12  and  C_13
DOCKED: REMARK    9  A    between atoms: C_12  and  C_19
DOCKED: REMARK   10  A    between atoms: C_14  and  C_15
DOCKED: REMARK                            x       y       z     vdW  Elec       q    Type
DOCKED: REMARK                         _______ _______ _______ _____ _____    ______ ____
DOCKED: USER                              x       y       z     vdW  Elec       q    Type
DOCKED: USER                           _______ _______ _______ _____ _____    ______ ____
DOCKED: ROOT
DOCKED: ATOM      1  C   UNL     1      37.647  15.648 122.394 -0.32 -0.00    +0.000 C 
DOCKED: ATOM      2  C   UNL     1      38.584  16.246 121.342 -0.19 -0.00    +0.000 C 
DOCKED: ENDROOT
DOCKED: BRANCH   1   3
DOCKED: ATOM      3  C   UNL     1      37.582  14.141 122.237 -0.45 -0.00    +0.000 C 
DOCKED: ATOM      4  C   UNL     1      37.312  13.496 121.082 -0.43 -0.00    +0.000 C 
DOCKED: ATOM      5  C   UNL     1      37.054  14.243 119.792 -0.31 -0.00    +0.000 C 
DOCKED: BRANCH   4   6
DOCKED: ATOM      6  C   UNL     1      37.320  12.011 121.099 -0.52 -0.00    +0.000 C 
DOCKED: ATOM      7  C   UNL     1      37.064  11.291 122.202 -0.57 -0.00    +0.000 C 
DOCKED: BRANCH   7   8
DOCKED: ATOM      8  C   UNL     1      37.066   9.814 122.230 -0.58 -0.00    +0.000 C 
DOCKED: ATOM      9  N   UNL     1      37.159   9.069 123.449 -0.54 -0.00    +0.000 N 
DOCKED: ATOM     10  O   UNL     1      37.051   7.720 123.430 -2.68 -0.00    +0.000 OA
DOCKED: ATOM     11  O   UNL     1      37.008   9.194 121.134 -2.72 -0.00    +0.000 OA
DOCKED: ATOM     12  H   UNL     1      37.300   9.539 124.303 -0.61 -0.00    +0.000 HD
DOCKED: ENDBRANCH   7   8
DOCKED: ENDBRANCH   4   6
DOCKED: ENDBRANCH   1   3
DOCKED: BRANCH   1  13
DOCKED: ATOM     13  C   UNL     1      36.267  16.262 122.264 -0.28 -0.00    +0.000 C 
DOCKED: ATOM     14  O   UNL     1      35.823  16.532 121.112 -0.23 -0.00    +0.000 OA
DOCKED: BRANCH  13  18
DOCKED: ATOM     15  C   UNL     1      33.858  17.262 125.712 -0.36 -0.00    +0.000 A 
DOCKED: ATOM     16  C   UNL     1      34.457  18.263 124.923 -0.31 -0.00    +0.000 A 
DOCKED: ATOM     17  C   UNL     1      35.235  17.931 123.811 -0.29 -0.00    +0.000 A 
DOCKED: ATOM     18  C   UNL     1      35.431  16.590 123.448 -0.36 -0.00    +0.000 A 
DOCKED: ATOM     19  C   UNL     1      34.846  15.585 124.237 -0.51 -0.00    +0.000 A 
DOCKED: ATOM     20  C   UNL     1      34.069  15.916 125.350 -0.44 -0.00    +0.000 A 
DOCKED: ATOM     21  CM  UNL     1      34.650  16.925 124.580 -0.25 -0.00    +0.000 AC
DOCKED: BRANCH  15  22
DOCKED: ATOM     22  C   UNL     1      32.625  18.993 127.096 -0.27 -0.00    +0.000 C 
DOCKED: ATOM     23  N   UNL     1      33.049  17.606 126.867 -0.35 -0.00    +0.000 N 
DOCKED: ATOM     24  C   UNL     1      32.640  16.572 127.826 -0.45 -0.00    +0.000 C 
DOCKED: ENDBRANCH  15  22
DOCKED: ENDBRANCH  13  18
DOCKED: ENDBRANCH   1  13
DOCKED: TORSDOF 6DOCKED: TER
DOCKED: ENDMDL
________________________________________________________________________________


	BEGINNING GENETIC ALGORITHM DOCKING 77 of 100
Run: 77 Seed: 1308439903 1632253001 [ Run 77 of 100 GA/GALS ]
Beginning LAMARCKIAN GENETIC ALGORITHM (LGA), with a maximum of 2500000 energy evaluations.

Final-Value: -14.580


	FINAL GENETIC ALGORITHM DOCKED STATE
	_______________________________________________


Detailed state:  trans 36.105 15.050 125.266 quatxyzw 0.466423 0.759350 -0.176885 0.417791 center -0.963 -0.416 0.212 ntor 6 121.7002 -9.7677 -43.6564 -33.0427 138.3309 37.4022
State:	 36.105  15.050 125.266   0.513  0.836 -0.195 130.610    121.70   -9.77  -43.66  -33.04  138.33   37.40

DOCKED: MODEL       77
DOCKED: USER    Run = 77
DOCKED: USER    DPF = ligand_dock.biased.dpf
DOCKED: USER  
DOCKED: USER    Estimated Free Energy of Binding    =  -11.90 kcal/mol  [=(1)+(2)+(3)-(4)]
DOCKED: USER    Estimated Inhibition Constant, Ki   =    1.88 nM (nanomolar)  [Temperature = 298.15 K]
DOCKED: USER    
DOCKED: USER    (1) Final Intermolecular Energy     =  -13.69 kcal/mol
DOCKED: USER        vdW + Hbond + desolv Energy     =  -13.69 kcal/mol
DOCKED: USER        Electrostatic Energy            =   +0.00 kcal/mol
DOCKED: USER    (2) Final Total Internal Energy     =   -0.89 kcal/mol
DOCKED: USER    (3) Torsional Free Energy           =   +1.79 kcal/mol
DOCKED: USER    (4) Unbound System's Energy  [=(2)] =   -0.89 kcal/mol
DOCKED: USER    
DOCKED: USER    
DOCKED: USER    NEWDPF move ligand.dum.pdbqt
DOCKED: USER    NEWDPF about -0.963000 -0.416000 0.212000
DOCKED: USER    NEWDPF tran0 36.105356 15.049920 125.265648
DOCKED: USER    NEWDPF quaternion0 0.466423 0.759350 -0.176885 0.417791
DOCKED: USER    NEWDPF axisangle0 0.513375 0.835788 -0.194691 130.609627
DOCKED: USER    NEWDPF quat0 0.513375 0.835788 -0.194691 130.609627
DOCKED: USER    NEWDPF dihe0 121.70 -9.77 -43.66 -33.04 138.33 37.40 
DOCKED: USER  keepresnum = 1 
DOCKED: USER  
DOCKED: REMARK  Name = 
DOCKED: REMARK  10 active torsions:
DOCKED: REMARK  status: ('A' for Active; 'I' for Inactive)
DOCKED: REMARK    1  A    between atoms: C_1  and  N_2
DOCKED: REMARK    2  A    between atoms: N_2  and  C_3
DOCKED: REMARK    3  A    between atoms: N_2  and  C_22
DOCKED: REMARK    4  A    between atoms: C_6  and  C_9
DOCKED: REMARK    5  A    between atoms: C_9  and  C_10
DOCKED: REMARK    6  A    between atoms: C_10  and  C_11
DOCKED: REMARK    7  A    between atoms: C_10  and  C_20
DOCKED: REMARK    8  A    between atoms: C_12  and  C_13
DOCKED: REMARK    9  A    between atoms: C_12  and  C_19
DOCKED: REMARK   10  A    between atoms: C_14  and  C_15
DOCKED: REMARK                            x       y       z     vdW  Elec       q    Type
DOCKED: REMARK                         _______ _______ _______ _____ _____    ______ ____
DOCKED: USER                              x       y       z     vdW  Elec       q    Type
DOCKED: USER                           _______ _______ _______ _____ _____    ______ ____
DOCKED: ROOT
DOCKED: ATOM      1  C   UNL     1      35.685  15.706 123.868 -0.47 -0.00    +0.000 C 
DOCKED: ATOM      2  C   UNL     1      35.222  16.253 122.515 -0.22 -0.00    +0.000 C 
DOCKED: ENDROOT
DOCKED: BRANCH   1   3
DOCKED: ATOM      3  C   UNL     1      35.794  14.195 123.808 -0.56 -0.00    +0.000 C 
DOCKED: ATOM      4  C   UNL     1      36.579  13.510 122.951 -0.55 -0.00    +0.000 C 
DOCKED: ATOM      5  C   UNL     1      37.464  14.212 121.945 -0.42 -0.00    +0.000 C 
DOCKED: BRANCH   4   6
DOCKED: ATOM      6  C   UNL     1      36.589  12.028 123.052 -0.67 -0.00    +0.000 C 
DOCKED: ATOM      7  C   UNL     1      37.048  11.231 122.075 -0.56 -0.00    +0.000 C 
DOCKED: BRANCH   7   8
DOCKED: ATOM      8  C   UNL     1      37.065   9.757 122.166 -0.59 -0.00    +0.000 C 
DOCKED: ATOM      9  N   UNL     1      37.151   9.066 123.418 -0.56 -0.00    +0.000 N 
DOCKED: ATOM     10  O   UNL     1      37.058   7.716 123.455 -2.69 -0.00    +0.000 OA
DOCKED: ATOM     11  O   UNL     1      37.027   9.090 121.097 -2.71 -0.00    +0.000 OA
DOCKED: ATOM     12  H   UNL     1      37.277   9.574 124.252 -0.61 -0.00    +0.000 HD
DOCKED: ENDBRANCH   7   8
DOCKED: ENDBRANCH   4   6
DOCKED: ENDBRANCH   1   3
DOCKED: BRANCH   1  13
DOCKED: ATOM     13  C   UNL     1      34.717  16.133 124.953 -0.48 -0.00    +0.000 C 
DOCKED: ATOM     14  O   UNL     1      34.017  15.254 125.531 -0.64 -0.00    +0.000 OA
DOCKED: BRANCH  13  18
DOCKED: ATOM     15  C   UNL     1      34.244  20.282 126.071 -0.17 -0.00    +0.000 A 
DOCKED: ATOM     16  C   UNL     1      35.346  19.852 125.306 -0.17 -0.00    +0.000 A 
DOCKED: ATOM     17  C   UNL     1      35.491  18.509 124.950 -0.23 -0.00    +0.000 A 
DOCKED: ATOM     18  C   UNL     1      34.537  17.556 125.339 -0.35 -0.00    +0.000 A 
DOCKED: ATOM     19  C   UNL     1      33.441  17.976 126.114 -0.30 -0.00    +0.000 A 
DOCKED: ATOM     20  C   UNL     1      33.296  19.319 126.471 -0.24 -0.00    +0.000 A 
DOCKED: ATOM     21  CM  UNL     1      34.393  18.916 125.709 -0.12 -0.00    +0.000 AC
DOCKED: BRANCH  15  22
DOCKED: ATOM     22  C   UNL     1      35.263  22.488 126.801 -0.07 -0.00    +0.000 C 
DOCKED: ATOM     23  N   UNL     1      34.091  21.678 126.441 -0.14 -0.00    +0.000 N 
DOCKED: ATOM     24  C   UNL     1      32.764  22.303 126.462 -0.19 -0.00    +0.000 C 
DOCKED: ENDBRANCH  15  22
DOCKED: ENDBRANCH  13  18
DOCKED: ENDBRANCH   1  13
DOCKED: TORSDOF 6DOCKED: TER
DOCKED: ENDMDL
________________________________________________________________________________


	BEGINNING GENETIC ALGORITHM DOCKING 78 of 100
Run: 78 Seed: 1844789685 605426008 [ Run 78 of 100 GA/GALS ]
Beginning LAMARCKIAN GENETIC ALGORITHM (LGA), with a maximum of 2500000 energy evaluations.

Final-Value: -14.497


	FINAL GENETIC ALGORITHM DOCKED STATE
	_______________________________________________


Detailed state:  trans 38.908 14.724 121.918 quatxyzw -0.353762 -0.262218 0.410195 -0.798645 center -0.963 -0.416 0.212 ntor 6 -170.6974 -32.0077 158.0257 -141.9351 114.1782 -39.4204
State:	 38.908  14.724 121.918  -0.588 -0.436  0.682 -73.998   -170.70  -32.01  158.03 -141.94  114.18  -39.42

DOCKED: MODEL       78
DOCKED: USER    Run = 78
DOCKED: USER    DPF = ligand_dock.biased.dpf
DOCKED: USER  
DOCKED: USER    Estimated Free Energy of Binding    =  -11.78 kcal/mol  [=(1)+(2)+(3)-(4)]
DOCKED: USER    Estimated Inhibition Constant, Ki   =    2.32 nM (nanomolar)  [Temperature = 298.15 K]
DOCKED: USER    
DOCKED: USER    (1) Final Intermolecular Energy     =  -13.57 kcal/mol
DOCKED: USER        vdW + Hbond + desolv Energy     =  -13.57 kcal/mol
DOCKED: USER        Electrostatic Energy            =   +0.00 kcal/mol
DOCKED: USER    (2) Final Total Internal Energy     =   -0.93 kcal/mol
DOCKED: USER    (3) Torsional Free Energy           =   +1.79 kcal/mol
DOCKED: USER    (4) Unbound System's Energy  [=(2)] =   -0.93 kcal/mol
DOCKED: USER    
DOCKED: USER    
DOCKED: USER    NEWDPF move ligand.dum.pdbqt
DOCKED: USER    NEWDPF about -0.963000 -0.416000 0.212000
DOCKED: USER    NEWDPF tran0 38.907844 14.723834 121.918199
DOCKED: USER    NEWDPF quaternion0 -0.353762 -0.262218 0.410195 -0.798645
DOCKED: USER    NEWDPF axisangle0 -0.587838 -0.435721 0.681611 -73.998115
DOCKED: USER    NEWDPF quat0 -0.587838 -0.435721 0.681611 -73.998115
DOCKED: USER    NEWDPF dihe0 -170.70 -32.01 158.03 -141.94 114.18 -39.42 
DOCKED: USER  keepresnum = 1 
DOCKED: USER  
DOCKED: REMARK  Name = 
DOCKED: REMARK  10 active torsions:
DOCKED: REMARK  status: ('A' for Active; 'I' for Inactive)
DOCKED: REMARK    1  A    between atoms: C_1  and  N_2
DOCKED: REMARK    2  A    between atoms: N_2  and  C_3
DOCKED: REMARK    3  A    between atoms: N_2  and  C_22
DOCKED: REMARK    4  A    between atoms: C_6  and  C_9
DOCKED: REMARK    5  A    between atoms: C_9  and  C_10
DOCKED: REMARK    6  A    between atoms: C_10  and  C_11
DOCKED: REMARK    7  A    between atoms: C_10  and  C_20
DOCKED: REMARK    8  A    between atoms: C_12  and  C_13
DOCKED: REMARK    9  A    between atoms: C_12  and  C_19
DOCKED: REMARK   10  A    between atoms: C_14  and  C_15
DOCKED: REMARK                            x       y       z     vdW  Elec       q    Type
DOCKED: REMARK                         _______ _______ _______ _____ _____    ______ ____
DOCKED: USER                              x       y       z     vdW  Elec       q    Type
DOCKED: USER                           _______ _______ _______ _____ _____    ______ ____
DOCKED: ROOT
DOCKED: ATOM      1  C   UNL     1      37.552  15.573 121.884 -0.29 -0.00    +0.000 C 
DOCKED: ATOM      2  C   UNL     1      36.217  16.322 121.923 -0.25 -0.00    +0.000 C 
DOCKED: ENDROOT
DOCKED: BRANCH   1   3
DOCKED: ATOM      3  C   UNL     1      37.320  14.087 122.082 -0.44 -0.00    +0.000 C 
DOCKED: ATOM      4  C   UNL     1      36.586  13.546 123.076 -0.56 -0.00    +0.000 C 
DOCKED: ATOM      5  C   UNL     1      35.892  14.400 124.113 -0.51 -0.00    +0.000 C 
DOCKED: BRANCH   4   6
DOCKED: ATOM      6  C   UNL     1      36.436  12.067 123.101 -0.67 -0.00    +0.000 C 
DOCKED: ATOM      7  C   UNL     1      37.066  11.254 122.240 -0.57 -0.00    +0.000 C 
DOCKED: BRANCH   7   8
DOCKED: ATOM      8  C   UNL     1      36.927   9.783 122.258 -0.62 -0.00    +0.000 C 
DOCKED: ATOM      9  N   UNL     1      37.078   9.012 123.456 -0.58 -0.00    +0.000 N 
DOCKED: ATOM     10  O   UNL     1      36.838   7.680 123.440 -2.53 -0.00    +0.000 OA
DOCKED: ATOM     11  O   UNL     1      36.690   9.191 121.171 -2.62 -0.00    +0.000 OA
DOCKED: ATOM     12  H   UNL     1      37.357   9.452 124.292 -0.62 -0.00    +0.000 HD
DOCKED: ENDBRANCH   7   8
DOCKED: ENDBRANCH   4   6
DOCKED: ENDBRANCH   1   3
DOCKED: BRANCH   1  13
DOCKED: ATOM     13  C   UNL     1      38.479  16.119 122.952 -0.29 -0.00    +0.000 C 
DOCKED: ATOM     14  O   UNL     1      37.992  16.484 124.059 -0.27 -0.00    +0.000 OA
DOCKED: BRANCH  13  18
DOCKED: ATOM     15  C   UNL     1      42.735  16.512 122.298 -0.35 -0.00    +0.000 A 
DOCKED: ATOM     16  C   UNL     1      42.021  15.398 121.816 -0.35 -0.00    +0.000 A 
DOCKED: ATOM     17  C   UNL     1      40.646  15.278 122.033 -0.38 -0.00    +0.000 A 
DOCKED: ATOM     18  C   UNL     1      39.941  16.271 122.729 -0.27 -0.00    +0.000 A 
DOCKED: ATOM     19  C   UNL     1      40.648  17.380 123.225 -0.25 -0.00    +0.000 A 
DOCKED: ATOM     20  C   UNL     1      42.024  17.500 123.010 -0.28 -0.00    +0.000 A 
DOCKED: ATOM     21  CM  UNL     1      41.336  16.389 122.518 +0.00 -0.00    +0.000 AC
DOCKED: BRANCH  15  22
DOCKED: ATOM     22  C   UNL     1      44.786  16.053 120.878 -0.27 +0.00    +0.000 C 
DOCKED: ATOM     23  N   UNL     1      44.164  16.638 122.073 -0.32 -0.00    +0.000 N 
DOCKED: ATOM     24  C   UNL     1      45.011  17.352 123.036 -0.28 -0.00    +0.000 C 
DOCKED: ENDBRANCH  15  22
DOCKED: ENDBRANCH  13  18
DOCKED: ENDBRANCH   1  13
DOCKED: TORSDOF 6DOCKED: TER
DOCKED: ENDMDL
________________________________________________________________________________


	BEGINNING GENETIC ALGORITHM DOCKING 79 of 100
Run: 79 Seed: 175494492 1370902045 [ Run 79 of 100 GA/GALS ]
Beginning LAMARCKIAN GENETIC ALGORITHM (LGA), with a maximum of 2500000 energy evaluations.

Final-Value: -14.375


	FINAL GENETIC ALGORITHM DOCKED STATE
	_______________________________________________


Detailed state:  trans 38.207 15.143 121.499 quatxyzw 0.096605 0.113723 -0.523603 0.838794 center -0.963 -0.416 0.212 ntor 6 -55.9357 173.2375 158.7087 51.8997 -149.9401 -69.4579
State:	 38.207  15.143 121.499   0.177  0.209 -0.962 65.974    -55.94  173.24  158.71   51.90 -149.94  -69.46

DOCKED: MODEL       79
DOCKED: USER    Run = 79
DOCKED: USER    DPF = ligand_dock.biased.dpf
DOCKED: USER  
DOCKED: USER    Estimated Free Energy of Binding    =  -11.21 kcal/mol  [=(1)+(2)+(3)-(4)]
DOCKED: USER    Estimated Inhibition Constant, Ki   =    6.10 nM (nanomolar)  [Temperature = 298.15 K]
DOCKED: USER    
DOCKED: USER    (1) Final Intermolecular Energy     =  -13.00 kcal/mol
DOCKED: USER        vdW + Hbond + desolv Energy     =  -13.00 kcal/mol
DOCKED: USER        Electrostatic Energy            =   +0.00 kcal/mol
DOCKED: USER    (2) Final Total Internal Energy     =   -1.38 kcal/mol
DOCKED: USER    (3) Torsional Free Energy           =   +1.79 kcal/mol
DOCKED: USER    (4) Unbound System's Energy  [=(2)] =   -1.38 kcal/mol
DOCKED: USER    
DOCKED: USER    
DOCKED: USER    NEWDPF move ligand.dum.pdbqt
DOCKED: USER    NEWDPF about -0.963000 -0.416000 0.212000
DOCKED: USER    NEWDPF tran0 38.206556 15.142715 121.499475
DOCKED: USER    NEWDPF quaternion0 0.096605 0.113723 -0.523603 0.838794
DOCKED: USER    NEWDPF axisangle0 0.177436 0.208878 -0.961710 65.974105
DOCKED: USER    NEWDPF quat0 0.177436 0.208878 -0.961710 65.974105
DOCKED: USER    NEWDPF dihe0 -55.94 173.24 158.71 51.90 -149.94 -69.46 
DOCKED: USER  keepresnum = 1 
DOCKED: USER  
DOCKED: REMARK  Name = 
DOCKED: REMARK  10 active torsions:
DOCKED: REMARK  status: ('A' for Active; 'I' for Inactive)
DOCKED: REMARK    1  A    between atoms: C_1  and  N_2
DOCKED: REMARK    2  A    between atoms: N_2  and  C_3
DOCKED: REMARK    3  A    between atoms: N_2  and  C_22
DOCKED: REMARK    4  A    between atoms: C_6  and  C_9
DOCKED: REMARK    5  A    between atoms: C_9  and  C_10
DOCKED: REMARK    6  A    between atoms: C_10  and  C_11
DOCKED: REMARK    7  A    between atoms: C_10  and  C_20
DOCKED: REMARK    8  A    between atoms: C_12  and  C_13
DOCKED: REMARK    9  A    between atoms: C_12  and  C_19
DOCKED: REMARK   10  A    between atoms: C_14  and  C_15
DOCKED: REMARK                            x       y       z     vdW  Elec       q    Type
DOCKED: REMARK                         _______ _______ _______ _____ _____    ______ ____
DOCKED: USER                              x       y       z     vdW  Elec       q    Type
DOCKED: USER                           _______ _______ _______ _____ _____    ______ ____
DOCKED: ROOT
DOCKED: ATOM      1  C   UNL     1      36.975  15.631 122.397 -0.33 -0.00    +0.000 C 
DOCKED: ATOM      2  C   UNL     1      35.811  16.016 123.313 -0.41 -0.00    +0.000 C 
DOCKED: ENDROOT
DOCKED: BRANCH   1   3
DOCKED: ATOM      3  C   UNL     1      37.035  14.125 122.237 -0.44 -0.00    +0.000 C 
DOCKED: ATOM      4  C   UNL     1      37.377  13.482 121.101 -0.44 -0.00    +0.000 C 
DOCKED: ATOM      5  C   UNL     1      37.757  14.231 119.843 -0.34 -0.00    +0.000 C 
DOCKED: BRANCH   4   6
DOCKED: ATOM      6  C   UNL     1      37.416  11.997 121.129 -0.51 -0.00    +0.000 C 
DOCKED: ATOM      7  C   UNL     1      37.030  11.276 122.193 -0.57 -0.00    +0.000 C 
DOCKED: BRANCH   7   8
DOCKED: ATOM      8  C   UNL     1      37.062   9.799 122.231 -0.58 -0.00    +0.000 C 
DOCKED: ATOM      9  N   UNL     1      37.149   9.064 123.457 -0.55 -0.00    +0.000 N 
DOCKED: ATOM     10  O   UNL     1      37.069   7.713 123.446 -2.69 -0.00    +0.000 OA
DOCKED: ATOM     11  O   UNL     1      37.035   9.171 121.139 -2.72 -0.00    +0.000 OA
DOCKED: ATOM     12  H   UNL     1      37.267   9.543 124.310 -0.60 -0.00    +0.000 HD
DOCKED: ENDBRANCH   7   8
DOCKED: ENDBRANCH   4   6
DOCKED: ENDBRANCH   1   3
DOCKED: BRANCH   1  13
DOCKED: ATOM     13  C   UNL     1      38.275  16.164 122.966 -0.30 -0.00    +0.000 C 
DOCKED: ATOM     14  O   UNL     1      38.267  16.713 124.104 -0.28 -0.00    +0.000 OA
DOCKED: BRANCH  13  18
DOCKED: ATOM     15  C   UNL     1      41.976  15.964 120.739 -0.20 -0.00    +0.000 A 
DOCKED: ATOM     16  C   UNL     1      40.835  16.596 120.206 -0.13 -0.00    +0.000 A 
DOCKED: ATOM     17  C   UNL     1      39.643  16.655 120.932 -0.13 -0.00    +0.000 A 
DOCKED: ATOM     18  C   UNL     1      39.556  16.093 122.216 -0.25 -0.00    +0.000 A 
DOCKED: ATOM     19  C   UNL     1      40.687  15.450 122.748 -0.37 -0.00    +0.000 A 
DOCKED: ATOM     20  C   UNL     1      41.879  15.390 122.022 -0.40 -0.00    +0.000 A 
DOCKED: ATOM     21  CM  UNL     1      40.762  16.025 121.477 +0.00 -0.00    +0.000 AC
DOCKED: BRANCH  15  22
DOCKED: ATOM     22  C   UNL     1      44.511  15.993 120.671 -0.28 +0.00    +0.000 C 
DOCKED: ATOM     23  N   UNL     1      43.215  15.903 119.985 -0.23 -0.00    +0.000 N 
DOCKED: ATOM     24  C   UNL     1      43.194  15.750 118.526 -0.25 -0.00    +0.000 C 
DOCKED: ENDBRANCH  15  22
DOCKED: ENDBRANCH  13  18
DOCKED: ENDBRANCH   1  13
DOCKED: TORSDOF 6DOCKED: TER
DOCKED: ENDMDL
________________________________________________________________________________


	BEGINNING GENETIC ALGORITHM DOCKING 80 of 100
Run: 80 Seed: 1958724831 1707320674 [ Run 80 of 100 GA/GALS ]
Beginning LAMARCKIAN GENETIC ALGORITHM (LGA), with a maximum of 2500000 energy evaluations.

Final-Value: -13.859


	FINAL GENETIC ALGORITHM DOCKED STATE
	_______________________________________________


Detailed state:  trans 36.767 15.259 122.455 quatxyzw 0.115943 0.075366 -0.640283 0.755589 center -0.963 -0.416 0.212 ntor 6 69.5558 63.7721 -102.1555 67.4787 74.9277 59.9499
State:	 36.767  15.259 122.455   0.177  0.115 -0.977 81.846     69.56   63.77 -102.16   67.48   74.93   59.95

DOCKED: MODEL       80
DOCKED: USER    Run = 80
DOCKED: USER    DPF = ligand_dock.biased.dpf
DOCKED: USER  
DOCKED: USER    Estimated Free Energy of Binding    =  -10.98 kcal/mol  [=(1)+(2)+(3)-(4)]
DOCKED: USER    Estimated Inhibition Constant, Ki   =    8.91 nM (nanomolar)  [Temperature = 298.15 K]
DOCKED: USER    
DOCKED: USER    (1) Final Intermolecular Energy     =  -12.77 kcal/mol
DOCKED: USER        vdW + Hbond + desolv Energy     =  -12.77 kcal/mol
DOCKED: USER        Electrostatic Energy            =   +0.00 kcal/mol
DOCKED: USER    (2) Final Total Internal Energy     =   -1.09 kcal/mol
DOCKED: USER    (3) Torsional Free Energy           =   +1.79 kcal/mol
DOCKED: USER    (4) Unbound System's Energy  [=(2)] =   -1.09 kcal/mol
DOCKED: USER    
DOCKED: USER    
DOCKED: USER    NEWDPF move ligand.dum.pdbqt
DOCKED: USER    NEWDPF about -0.963000 -0.416000 0.212000
DOCKED: USER    NEWDPF tran0 36.766851 15.258897 122.455280
DOCKED: USER    NEWDPF quaternion0 0.115943 0.075366 -0.640283 0.755589
DOCKED: USER    NEWDPF axisangle0 0.176999 0.115055 -0.977463 81.846239
DOCKED: USER    NEWDPF quat0 0.176999 0.115055 -0.977463 81.846239
DOCKED: USER    NEWDPF dihe0 69.56 63.77 -102.16 67.48 74.93 59.95 
DOCKED: USER  keepresnum = 1 
DOCKED: USER  
DOCKED: REMARK  Name = 
DOCKED: REMARK  10 active torsions:
DOCKED: REMARK  status: ('A' for Active; 'I' for Inactive)
DOCKED: REMARK    1  A    between atoms: C_1  and  N_2
DOCKED: REMARK    2  A    between atoms: N_2  and  C_3
DOCKED: REMARK    3  A    between atoms: N_2  and  C_22
DOCKED: REMARK    4  A    between atoms: C_6  and  C_9
DOCKED: REMARK    5  A    between atoms: C_9  and  C_10
DOCKED: REMARK    6  A    between atoms: C_10  and  C_11
DOCKED: REMARK    7  A    between atoms: C_10  and  C_20
DOCKED: REMARK    8  A    between atoms: C_12  and  C_13
DOCKED: REMARK    9  A    between atoms: C_12  and  C_19
DOCKED: REMARK   10  A    between atoms: C_14  and  C_15
DOCKED: REMARK                            x       y       z     vdW  Elec       q    Type
DOCKED: REMARK                         _______ _______ _______ _____ _____    ______ ____
DOCKED: USER                              x       y       z     vdW  Elec       q    Type
DOCKED: USER                           _______ _______ _______ _____ _____    ______ ____
DOCKED: ROOT
DOCKED: ATOM      1  C   UNL     1      35.478  15.508 123.371 -0.46 -0.00    +0.000 C 
DOCKED: ATOM      2  C   UNL     1      34.283  15.677 124.312 -0.59 -0.00    +0.000 C 
DOCKED: ENDROOT
DOCKED: BRANCH   1   3
DOCKED: ATOM      3  C   UNL     1      35.939  14.063 123.370 -0.52 -0.00    +0.000 C 
DOCKED: ATOM      4  C   UNL     1      36.674  13.487 122.395 -0.48 -0.00    +0.000 C 
DOCKED: ATOM      5  C   UNL     1      37.131  14.260 121.178 -0.32 -0.00    +0.000 C 
DOCKED: BRANCH   4   6
DOCKED: ATOM      6  C   UNL     1      37.067  12.065 122.572 -0.61 -0.00    +0.000 C 
DOCKED: ATOM      7  C   UNL     1      36.480  11.057 121.910 -0.59 -0.00    +0.000 C 
DOCKED: BRANCH   7   8
DOCKED: ATOM      8  C   UNL     1      36.864   9.640 122.075 -0.64 -0.00    +0.000 C 
DOCKED: ATOM      9  N   UNL     1      37.066   9.044 123.362 -0.61 -0.00    +0.000 N 
DOCKED: ATOM     10  O   UNL     1      37.315   7.718 123.464 -2.63 -0.00    +0.000 OA
DOCKED: ATOM     11  O   UNL     1      37.044   8.944 121.041 -2.70 -0.00    +0.000 OA
DOCKED: ATOM     12  H   UNL     1      37.022   9.601 124.174 -0.56 -0.00    +0.000 HD
DOCKED: ENDBRANCH   7   8
DOCKED: ENDBRANCH   4   6
DOCKED: ENDBRANCH   1   3
DOCKED: BRANCH   1  13
DOCKED: ATOM     13  C   UNL     1      36.603  16.430 123.796 -0.33 -0.00    +0.000 C 
DOCKED: ATOM     14  O   UNL     1      37.783  15.982 123.833 -0.36 -0.00    +0.000 OA
DOCKED: BRANCH  13  18
DOCKED: ATOM     15  C   UNL     1      35.914  20.542 124.942 -0.14 -0.00    +0.000 A 
DOCKED: ATOM     16  C   UNL     1      35.943  20.155 123.588 -0.15 -0.00    +0.000 A 
DOCKED: ATOM     17  C   UNL     1      36.167  18.825 123.226 -0.19 -0.00    +0.000 A 
DOCKED: ATOM     18  C   UNL     1      36.360  17.838 124.206 -0.22 -0.00    +0.000 A 
DOCKED: ATOM     19  C   UNL     1      36.346  18.219 125.559 -0.14 -0.00    +0.000 A 
DOCKED: ATOM     20  C   UNL     1      36.123  19.550 125.921 -0.14 -0.00    +0.000 A 
DOCKED: ATOM     21  CM  UNL     1      36.143  19.188 124.573 -0.04 -0.00    +0.000 AC
DOCKED: BRANCH  15  22
DOCKED: ATOM     22  C   UNL     1      36.806  22.857 125.473 -0.05 -0.00    +0.000 C 
DOCKED: ATOM     23  N   UNL     1      35.681  21.925 125.318 -0.12 -0.00    +0.000 N 
DOCKED: ATOM     24  C   UNL     1      34.317  22.415 125.551 -0.18 -0.00    +0.000 C 
DOCKED: ENDBRANCH  15  22
DOCKED: ENDBRANCH  13  18
DOCKED: ENDBRANCH   1  13
DOCKED: TORSDOF 6DOCKED: TER
DOCKED: ENDMDL
________________________________________________________________________________


	BEGINNING GENETIC ALGORITHM DOCKING 81 of 100
Run: 81 Seed: 2135487627 1952529091 [ Run 81 of 100 GA/GALS ]
Beginning LAMARCKIAN GENETIC ALGORITHM (LGA), with a maximum of 2500000 energy evaluations.

Final-Value: -14.702


	FINAL GENETIC ALGORITHM DOCKED STATE
	_______________________________________________


Detailed state:  trans 36.564 14.703 123.945 quatxyzw 0.532678 0.824229 0.188941 0.034659 center -0.963 -0.416 0.212 ntor 6 22.3398 175.9880 -175.0167 -148.4191 61.6066 -28.6948
State:	 36.564  14.703 123.945   0.533  0.825  0.189 176.028     22.34  175.99 -175.02 -148.42   61.61  -28.69

DOCKED: MODEL       81
DOCKED: USER    Run = 81
DOCKED: USER    DPF = ligand_dock.biased.dpf
DOCKED: USER  
DOCKED: USER    Estimated Free Energy of Binding    =  -12.07 kcal/mol  [=(1)+(2)+(3)-(4)]
DOCKED: USER    Estimated Inhibition Constant, Ki   =    1.43 nM (nanomolar)  [Temperature = 298.15 K]
DOCKED: USER    
DOCKED: USER    (1) Final Intermolecular Energy     =  -13.86 kcal/mol
DOCKED: USER        vdW + Hbond + desolv Energy     =  -13.86 kcal/mol
DOCKED: USER        Electrostatic Energy            =   +0.00 kcal/mol
DOCKED: USER    (2) Final Total Internal Energy     =   -0.84 kcal/mol
DOCKED: USER    (3) Torsional Free Energy           =   +1.79 kcal/mol
DOCKED: USER    (4) Unbound System's Energy  [=(2)] =   -0.84 kcal/mol
DOCKED: USER    
DOCKED: USER    
DOCKED: USER    NEWDPF move ligand.dum.pdbqt
DOCKED: USER    NEWDPF about -0.963000 -0.416000 0.212000
DOCKED: USER    NEWDPF tran0 36.563976 14.702991 123.945439
DOCKED: USER    NEWDPF quaternion0 0.532678 0.824229 0.188941 0.034659
DOCKED: USER    NEWDPF axisangle0 0.532998 0.824725 0.189055 176.027574
DOCKED: USER    NEWDPF quat0 0.532998 0.824725 0.189055 176.027574
DOCKED: USER    NEWDPF dihe0 22.34 175.99 -175.02 -148.42 61.61 -28.69 
DOCKED: USER  keepresnum = 1 
DOCKED: USER  
DOCKED: REMARK  Name = 
DOCKED: REMARK  10 active torsions:
DOCKED: REMARK  status: ('A' for Active; 'I' for Inactive)
DOCKED: REMARK    1  A    between atoms: C_1  and  N_2
DOCKED: REMARK    2  A    between atoms: N_2  and  C_3
DOCKED: REMARK    3  A    between atoms: N_2  and  C_22
DOCKED: REMARK    4  A    between atoms: C_6  and  C_9
DOCKED: REMARK    5  A    between atoms: C_9  and  C_10
DOCKED: REMARK    6  A    between atoms: C_10  and  C_11
DOCKED: REMARK    7  A    between atoms: C_10  and  C_20
DOCKED: REMARK    8  A    between atoms: C_12  and  C_13
DOCKED: REMARK    9  A    between atoms: C_12  and  C_19
DOCKED: REMARK   10  A    between atoms: C_14  and  C_15
DOCKED: REMARK                            x       y       z     vdW  Elec       q    Type
DOCKED: REMARK                         _______ _______ _______ _____ _____    ______ ____
DOCKED: USER                              x       y       z     vdW  Elec       q    Type
DOCKED: USER                           _______ _______ _______ _____ _____    ______ ____
DOCKED: ROOT
DOCKED: ATOM      1  C   UNL     1      37.648  15.497 123.076 -0.37 -0.00    +0.000 C 
DOCKED: ATOM      2  C   UNL     1      38.662  16.195 122.166 -0.25 -0.00    +0.000 C 
DOCKED: ENDROOT
DOCKED: BRANCH   1   3
DOCKED: ATOM      3  C   UNL     1      37.605  14.014 122.765 -0.50 -0.00    +0.000 C 
DOCKED: ATOM      4  C   UNL     1      37.341  13.486 121.551 -0.45 -0.00    +0.000 C 
DOCKED: ATOM      5  C   UNL     1      37.066  14.357 120.345 -0.29 -0.00    +0.000 C 
DOCKED: BRANCH   4   6
DOCKED: ATOM      6  C   UNL     1      37.371  12.007 121.416 -0.50 -0.00    +0.000 C 
DOCKED: ATOM      7  C   UNL     1      37.037  11.174 122.414 -0.58 -0.00    +0.000 C 
DOCKED: BRANCH   7   8
DOCKED: ATOM      8  C   UNL     1      37.062   9.703 122.290 -0.59 -0.00    +0.000 C 
DOCKED: ATOM      9  N   UNL     1      37.150   8.837 123.428 -0.60 -0.00    +0.000 N 
DOCKED: ATOM     10  O   UNL     1      37.063   7.496 123.269 -2.47 -0.00    +0.000 OA
DOCKED: ATOM     11  O   UNL     1      37.027   9.198 121.136 -2.72 -0.00    +0.000 OA
DOCKED: ATOM     12  H   UNL     1      37.274   9.219 124.328 -0.58 -0.00    +0.000 HD
DOCKED: ENDBRANCH   7   8
DOCKED: ENDBRANCH   4   6
DOCKED: ENDBRANCH   1   3
DOCKED: BRANCH   1  13
DOCKED: ATOM     13  C   UNL     1      36.279  16.123 122.897 -0.35 -0.00    +0.000 C 
DOCKED: ATOM     14  O   UNL     1      35.848  16.329 121.727 -0.27 -0.00    +0.000 OA
DOCKED: BRANCH  13  18
DOCKED: ATOM     15  C   UNL     1      33.801  17.289 126.242 -0.36 -0.00    +0.000 A 
DOCKED: ATOM     16  C   UNL     1      33.691  16.011 125.662 -0.26 -0.00    +0.000 A 
DOCKED: ATOM     17  C   UNL     1      34.495  15.642 124.580 -0.52 -0.00    +0.000 A 
DOCKED: ATOM     18  C   UNL     1      35.439  16.536 124.051 -0.38 -0.00    +0.000 A 
DOCKED: ATOM     19  C   UNL     1      35.545  17.819 124.617 -0.27 -0.00    +0.000 A 
DOCKED: ATOM     20  C   UNL     1      34.741  18.188 125.698 -0.28 -0.00    +0.000 A 
DOCKED: ATOM     21  CM  UNL     1      34.619  16.914 125.141 -0.27 -0.00    +0.000 AC
DOCKED: BRANCH  15  22
DOCKED: ATOM     22  C   UNL     1      32.344  19.003 127.416 -0.25 -0.00    +0.000 C 
DOCKED: ATOM     23  N   UNL     1      32.966  17.673 127.367 -0.32 -0.00    +0.000 N 
DOCKED: ATOM     24  C   UNL     1      32.730  16.739 128.474 -0.42 -0.00    +0.000 C 
DOCKED: ENDBRANCH  15  22
DOCKED: ENDBRANCH  13  18
DOCKED: ENDBRANCH   1  13
DOCKED: TORSDOF 6DOCKED: TER
DOCKED: ENDMDL
________________________________________________________________________________


	BEGINNING GENETIC ALGORITHM DOCKING 82 of 100
Run: 82 Seed: 1160487006 27401874 [ Run 82 of 100 GA/GALS ]
Beginning LAMARCKIAN GENETIC ALGORITHM (LGA), with a maximum of 2500000 energy evaluations.

Final-Value: -14.397


	FINAL GENETIC ALGORITHM DOCKED STATE
	_______________________________________________


Detailed state:  trans 37.634 15.288 122.347 quatxyzw -0.202243 -0.155376 0.577826 -0.775289 center -0.963 -0.416 0.212 ntor 6 -133.7242 56.8800 -86.8899 46.9368 -75.1991 -72.7593
State:	 37.634  15.288 122.347  -0.320 -0.246  0.915 -78.337   -133.72   56.88  -86.89   46.94  -75.20  -72.76

DOCKED: MODEL       82
DOCKED: USER    Run = 82
DOCKED: USER    DPF = ligand_dock.biased.dpf
DOCKED: USER  
DOCKED: USER    Estimated Free Energy of Binding    =  -11.52 kcal/mol  [=(1)+(2)+(3)-(4)]
DOCKED: USER    Estimated Inhibition Constant, Ki   =    3.58 nM (nanomolar)  [Temperature = 298.15 K]
DOCKED: USER    
DOCKED: USER    (1) Final Intermolecular Energy     =  -13.31 kcal/mol
DOCKED: USER        vdW + Hbond + desolv Energy     =  -13.31 kcal/mol
DOCKED: USER        Electrostatic Energy            =   +0.00 kcal/mol
DOCKED: USER    (2) Final Total Internal Energy     =   -1.09 kcal/mol
DOCKED: USER    (3) Torsional Free Energy           =   +1.79 kcal/mol
DOCKED: USER    (4) Unbound System's Energy  [=(2)] =   -1.09 kcal/mol
DOCKED: USER    
DOCKED: USER    
DOCKED: USER    NEWDPF move ligand.dum.pdbqt
DOCKED: USER    NEWDPF about -0.963000 -0.416000 0.212000
DOCKED: USER    NEWDPF tran0 37.634130 15.288252 122.346767
DOCKED: USER    NEWDPF quaternion0 -0.202243 -0.155376 0.577826 -0.775289
DOCKED: USER    NEWDPF axisangle0 -0.320205 -0.246001 0.914851 -78.337496
DOCKED: USER    NEWDPF quat0 -0.320205 -0.246001 0.914851 -78.337496
DOCKED: USER    NEWDPF dihe0 -133.72 56.88 -86.89 46.94 -75.20 -72.76 
DOCKED: USER  keepresnum = 1 
DOCKED: USER  
DOCKED: REMARK  Name = 
DOCKED: REMARK  10 active torsions:
DOCKED: REMARK  status: ('A' for Active; 'I' for Inactive)
DOCKED: REMARK    1  A    between atoms: C_1  and  N_2
DOCKED: REMARK    2  A    between atoms: N_2  and  C_3
DOCKED: REMARK    3  A    between atoms: N_2  and  C_22
DOCKED: REMARK    4  A    between atoms: C_6  and  C_9
DOCKED: REMARK    5  A    between atoms: C_9  and  C_10
DOCKED: REMARK    6  A    between atoms: C_10  and  C_11
DOCKED: REMARK    7  A    between atoms: C_10  and  C_20
DOCKED: REMARK    8  A    between atoms: C_12  and  C_13
DOCKED: REMARK    9  A    between atoms: C_12  and  C_19
DOCKED: REMARK   10  A    between atoms: C_14  and  C_15
DOCKED: REMARK                            x       y       z     vdW  Elec       q    Type
DOCKED: REMARK                         _______ _______ _______ _____ _____    ______ ____
DOCKED: USER                              x       y       z     vdW  Elec       q    Type
DOCKED: USER                           _______ _______ _______ _____ _____    ______ ____
DOCKED: ROOT
DOCKED: ATOM      1  C   UNL     1      36.201  15.704 122.924 -0.38 -0.00    +0.000 C 
DOCKED: ATOM      2  C   UNL     1      34.842  16.032 123.548 -0.50 -0.00    +0.000 C 
DOCKED: ENDROOT
DOCKED: BRANCH   1   3
DOCKED: ATOM      3  C   UNL     1      36.479  14.218 123.035 -0.50 -0.00    +0.000 C 
DOCKED: ATOM      4  C   UNL     1      37.027  13.460 122.061 -0.47 -0.00    +0.000 C 
DOCKED: ATOM      5  C   UNL     1      37.439  14.047 120.729 -0.38 -0.00    +0.000 C 
DOCKED: BRANCH   4   6
DOCKED: ATOM      6  C   UNL     1      37.261  12.022 122.351 -0.52 -0.00    +0.000 C 
DOCKED: ATOM      7  C   UNL     1      36.693  11.032 121.646 -0.54 -0.00    +0.000 C 
DOCKED: BRANCH   7   8
DOCKED: ATOM      8  C   UNL     1      36.921   9.599 121.924 -0.62 -0.00    +0.000 C 
DOCKED: ATOM      9  N   UNL     1      37.015   9.080 123.255 -0.63 -0.00    +0.000 N 
DOCKED: ATOM     10  O   UNL     1      37.120   7.746 123.458 -2.67 -0.00    +0.000 OA
DOCKED: ATOM     11  O   UNL     1      37.060   8.815 120.947 -2.68 -0.00    +0.000 OA
DOCKED: ATOM     12  H   UNL     1      37.003   9.696 124.025 -0.51 -0.00    +0.000 HD
DOCKED: ENDBRANCH   7   8
DOCKED: ENDBRANCH   4   6
DOCKED: ENDBRANCH   1   3
DOCKED: BRANCH   1  13
DOCKED: ATOM     13  C   UNL     1      37.289  16.508 123.608 -0.28 -0.00    +0.000 C 
DOCKED: ATOM     14  O   UNL     1      36.980  17.255 124.579 -0.26 -0.00    +0.000 OA
DOCKED: BRANCH  13  18
DOCKED: ATOM     15  C   UNL     1      41.399  16.454 122.271 -0.30 -0.00    +0.000 A 
DOCKED: ATOM     16  C   UNL     1      40.726  17.666 122.514 -0.17 -0.00    +0.000 A 
DOCKED: ATOM     17  C   UNL     1      39.397  17.675 122.945 -0.16 -0.00    +0.000 A 
DOCKED: ATOM     18  C   UNL     1      38.704  16.473 123.155 -0.23 -0.00    +0.000 A 
DOCKED: ATOM     19  C   UNL     1      39.365  15.259 122.902 -0.17 -0.00    +0.000 A 
DOCKED: ATOM     20  C   UNL     1      40.694  15.250 122.469 -0.42 -0.00    +0.000 A 
DOCKED: ATOM     21  CM  UNL     1      40.047  16.463 122.709 +0.00 -0.00    +0.000 AC
DOCKED: BRANCH  15  22
DOCKED: ATOM     22  C   UNL     1      43.856  16.913 122.707 -0.37 -0.00    +0.000 C 
DOCKED: ATOM     23  N   UNL     1      42.781  16.444 121.823 -0.30 -0.00    +0.000 N 
DOCKED: ATOM     24  C   UNL     1      43.126  15.965 120.480 -0.26 -0.00    +0.000 C 
DOCKED: ENDBRANCH  15  22
DOCKED: ENDBRANCH  13  18
DOCKED: ENDBRANCH   1  13
DOCKED: TORSDOF 6DOCKED: TER
DOCKED: ENDMDL
________________________________________________________________________________


	BEGINNING GENETIC ALGORITHM DOCKING 83 of 100
Run: 83 Seed: 334751191 573510841 [ Run 83 of 100 GA/GALS ]
Beginning LAMARCKIAN GENETIC ALGORITHM (LGA), with a maximum of 2500000 energy evaluations.

Final-Value: -14.438


	FINAL GENETIC ALGORITHM DOCKED STATE
	_______________________________________________


Detailed state:  trans 38.737 14.932 121.323 quatxyzw 0.189362 0.191328 -0.484741 0.832203 center -0.963 -0.416 0.212 ntor 6 -65.4556 177.1994 172.1447 20.0541 -170.2816 -62.4199
State:	 38.737  14.932 121.323   0.342  0.345 -0.874 67.349    -65.46  177.20  172.14   20.05 -170.28  -62.42

DOCKED: MODEL       83
DOCKED: USER    Run = 83
DOCKED: USER    DPF = ligand_dock.biased.dpf
DOCKED: USER  
DOCKED: USER    Estimated Free Energy of Binding    =  -11.39 kcal/mol  [=(1)+(2)+(3)-(4)]
DOCKED: USER    Estimated Inhibition Constant, Ki   =    4.44 nM (nanomolar)  [Temperature = 298.15 K]
DOCKED: USER    
DOCKED: USER    (1) Final Intermolecular Energy     =  -13.18 kcal/mol
DOCKED: USER        vdW + Hbond + desolv Energy     =  -13.18 kcal/mol
DOCKED: USER        Electrostatic Energy            =   +0.00 kcal/mol
DOCKED: USER    (2) Final Total Internal Energy     =   -1.25 kcal/mol
DOCKED: USER    (3) Torsional Free Energy           =   +1.79 kcal/mol
DOCKED: USER    (4) Unbound System's Energy  [=(2)] =   -1.25 kcal/mol
DOCKED: USER    
DOCKED: USER    
DOCKED: USER    NEWDPF move ligand.dum.pdbqt
DOCKED: USER    NEWDPF about -0.963000 -0.416000 0.212000
DOCKED: USER    NEWDPF tran0 38.737010 14.932158 121.323012
DOCKED: USER    NEWDPF quaternion0 0.189362 0.191328 -0.484741 0.832203
DOCKED: USER    NEWDPF axisangle0 0.341518 0.345064 -0.874240 67.348592
DOCKED: USER    NEWDPF quat0 0.341518 0.345064 -0.874240 67.348592
DOCKED: USER    NEWDPF dihe0 -65.46 177.20 172.14 20.05 -170.28 -62.42 
DOCKED: USER  keepresnum = 1 
DOCKED: USER  
DOCKED: REMARK  Name = 
DOCKED: REMARK  10 active torsions:
DOCKED: REMARK  status: ('A' for Active; 'I' for Inactive)
DOCKED: REMARK    1  A    between atoms: C_1  and  N_2
DOCKED: REMARK    2  A    between atoms: N_2  and  C_3
DOCKED: REMARK    3  A    between atoms: N_2  and  C_22
DOCKED: REMARK    4  A    between atoms: C_6  and  C_9
DOCKED: REMARK    5  A    between atoms: C_9  and  C_10
DOCKED: REMARK    6  A    between atoms: C_10  and  C_11
DOCKED: REMARK    7  A    between atoms: C_10  and  C_20
DOCKED: REMARK    8  A    between atoms: C_12  and  C_13
DOCKED: REMARK    9  A    between atoms: C_12  and  C_19
DOCKED: REMARK   10  A    between atoms: C_14  and  C_15
DOCKED: REMARK                            x       y       z     vdW  Elec       q    Type
DOCKED: REMARK                         _______ _______ _______ _____ _____    ______ ____
DOCKED: USER                              x       y       z     vdW  Elec       q    Type
DOCKED: USER                           _______ _______ _______ _____ _____    ______ ____
DOCKED: ROOT
DOCKED: ATOM      1  C   UNL     1      37.369  15.554 121.873 -0.29 -0.00    +0.000 C 
DOCKED: ATOM      2  C   UNL     1      36.055  16.070 122.464 -0.30 -0.00    +0.000 C 
DOCKED: ENDROOT
DOCKED: BRANCH   1   3
DOCKED: ATOM      3  C   UNL     1      37.357  14.039 121.821 -0.42 -0.00    +0.000 C 
DOCKED: ATOM      4  C   UNL     1      37.317  13.306 120.688 -0.45 -0.00    +0.000 C 
DOCKED: ATOM      5  C   UNL     1      37.294  13.950 119.320 -0.37 -0.00    +0.000 C 
DOCKED: BRANCH   4   6
DOCKED: ATOM      6  C   UNL     1      37.343  11.826 120.819 -0.52 -0.00    +0.000 C 
DOCKED: ATOM      7  C   UNL     1      37.041  11.187 121.960 -0.55 -0.00    +0.000 C 
DOCKED: BRANCH   7   8
DOCKED: ATOM      8  C   UNL     1      37.061   9.716 122.100 -0.59 -0.00    +0.000 C 
DOCKED: ATOM      9  N   UNL     1      37.160   9.068 123.374 -0.56 -0.00    +0.000 N 
DOCKED: ATOM     10  O   UNL     1      37.069   7.720 123.458 -2.70 -0.00    +0.000 OA
DOCKED: ATOM     11  O   UNL     1      37.013   9.014 121.055 -2.70 -0.00    +0.000 OA
DOCKED: ATOM     12  H   UNL     1      37.294   9.604 124.189 -0.61 -0.00    +0.000 HD
DOCKED: ENDBRANCH   7   8
DOCKED: ENDBRANCH   4   6
DOCKED: ENDBRANCH   1   3
DOCKED: BRANCH   1  13
DOCKED: ATOM     13  C   UNL     1      38.536  16.053 122.702 -0.30 -0.00    +0.000 C 
DOCKED: ATOM     14  O   UNL     1      38.310  16.564 123.834 -0.32 -0.00    +0.000 OA
DOCKED: BRANCH  13  18
DOCKED: ATOM     15  C   UNL     1      42.597  15.869 121.230 -0.27 -0.00    +0.000 A 
DOCKED: ATOM     16  C   UNL     1      41.518  16.138 120.366 -0.16 -0.00    +0.000 A 
DOCKED: ATOM     17  C   UNL     1      40.209  16.195 120.849 -0.17 -0.00    +0.000 A 
DOCKED: ATOM     18  C   UNL     1      39.938  15.994 122.212 -0.28 -0.00    +0.000 A 
DOCKED: ATOM     19  C   UNL     1      41.009  15.712 123.078 -0.32 -0.00    +0.000 A 
DOCKED: ATOM     20  C   UNL     1      42.319  15.654 122.595 -0.44 -0.00    +0.000 A 
DOCKED: ATOM     21  CM  UNL     1      41.265  15.927 121.721 +0.00 -0.00    +0.000 AC
DOCKED: BRANCH  15  22
DOCKED: ATOM     22  C   UNL     1      45.050  16.476 121.450 -0.26 +0.00    +0.000 C 
DOCKED: ATOM     23  N   UNL     1      43.959  15.810 120.728 -0.28 -0.00    +0.000 N 
DOCKED: ATOM     24  C   UNL     1      44.267  15.084 119.490 -0.33 -0.00    +0.000 C 
DOCKED: ENDBRANCH  15  22
DOCKED: ENDBRANCH  13  18
DOCKED: ENDBRANCH   1  13
DOCKED: TORSDOF 6DOCKED: TER
DOCKED: ENDMDL
________________________________________________________________________________


	BEGINNING GENETIC ALGORITHM DOCKING 84 of 100
Run: 84 Seed: 8706223 75255600 [ Run 84 of 100 GA/GALS ]
Beginning LAMARCKIAN GENETIC ALGORITHM (LGA), with a maximum of 2500000 energy evaluations.

Final-Value: -14.506


	FINAL GENETIC ALGORITHM DOCKED STATE
	_______________________________________________


Detailed state:  trans 36.747 14.672 121.120 quatxyzw 0.232946 0.609692 0.422325 -0.629010 center -0.963 -0.416 0.212 ntor 6 78.3529 43.5185 68.8866 10.1728 77.2222 -71.1307
State:	 36.747  14.672 121.120   0.300  0.784  0.543 -102.046     78.35   43.52   68.89   10.17   77.22  -71.13

DOCKED: MODEL       84
DOCKED: USER    Run = 84
DOCKED: USER    DPF = ligand_dock.biased.dpf
DOCKED: USER  
DOCKED: USER    Estimated Free Energy of Binding    =  -11.42 kcal/mol  [=(1)+(2)+(3)-(4)]
DOCKED: USER    Estimated Inhibition Constant, Ki   =    4.28 nM (nanomolar)  [Temperature = 298.15 K]
DOCKED: USER    
DOCKED: USER    (1) Final Intermolecular Energy     =  -13.21 kcal/mol
DOCKED: USER        vdW + Hbond + desolv Energy     =  -13.21 kcal/mol
DOCKED: USER        Electrostatic Energy            =   +0.00 kcal/mol
DOCKED: USER    (2) Final Total Internal Energy     =   -1.30 kcal/mol
DOCKED: USER    (3) Torsional Free Energy           =   +1.79 kcal/mol
DOCKED: USER    (4) Unbound System's Energy  [=(2)] =   -1.30 kcal/mol
DOCKED: USER    
DOCKED: USER    
DOCKED: USER    NEWDPF move ligand.dum.pdbqt
DOCKED: USER    NEWDPF about -0.963000 -0.416000 0.212000
DOCKED: USER    NEWDPF tran0 36.747024 14.672445 121.120383
DOCKED: USER    NEWDPF quaternion0 0.232946 0.609692 0.422325 -0.629010
DOCKED: USER    NEWDPF axisangle0 0.299649 0.784274 0.543255 -102.045738
DOCKED: USER    NEWDPF quat0 0.299649 0.784274 0.543255 -102.045738
DOCKED: USER    NEWDPF dihe0 78.35 43.52 68.89 10.17 77.22 -71.13 
DOCKED: USER  keepresnum = 1 
DOCKED: USER  
DOCKED: REMARK  Name = 
DOCKED: REMARK  10 active torsions:
DOCKED: REMARK  status: ('A' for Active; 'I' for Inactive)
DOCKED: REMARK    1  A    between atoms: C_1  and  N_2
DOCKED: REMARK    2  A    between atoms: N_2  and  C_3
DOCKED: REMARK    3  A    between atoms: N_2  and  C_22
DOCKED: REMARK    4  A    between atoms: C_6  and  C_9
DOCKED: REMARK    5  A    between atoms: C_9  and  C_10
DOCKED: REMARK    6  A    between atoms: C_10  and  C_11
DOCKED: REMARK    7  A    between atoms: C_10  and  C_20
DOCKED: REMARK    8  A    between atoms: C_12  and  C_13
DOCKED: REMARK    9  A    between atoms: C_12  and  C_19
DOCKED: REMARK   10  A    between atoms: C_14  and  C_15
DOCKED: REMARK                            x       y       z     vdW  Elec       q    Type
DOCKED: REMARK                         _______ _______ _______ _____ _____    ______ ____
DOCKED: USER                              x       y       z     vdW  Elec       q    Type
DOCKED: USER                           _______ _______ _______ _____ _____    ______ ____
DOCKED: ROOT
DOCKED: ATOM      1  C   UNL     1      37.690  15.486 122.125 -0.31 -0.00    +0.000 C 
DOCKED: ATOM      2  C   UNL     1      38.660  16.189 123.078 -0.29 -0.00    +0.000 C 
DOCKED: ENDROOT
DOCKED: BRANCH   1   3
DOCKED: ATOM      3  C   UNL     1      37.761  13.985 122.325 -0.47 -0.00    +0.000 C 
DOCKED: ATOM      4  C   UNL     1      36.859  13.254 123.013 -0.58 -0.00    +0.000 C 
DOCKED: ATOM      5  C   UNL     1      35.646  13.885 123.660 -0.53 -0.00    +0.000 C 
DOCKED: BRANCH   4   6
DOCKED: ATOM      6  C   UNL     1      37.066  11.784 123.083 -0.66 -0.00    +0.000 C 
DOCKED: ATOM      7  C   UNL     1      36.650  10.941 122.126 -0.63 -0.00    +0.000 C 
DOCKED: BRANCH   7   8
DOCKED: ATOM      8  C   UNL     1      36.853   9.479 122.183 -0.67 -0.00    +0.000 C 
DOCKED: ATOM      9  N   UNL     1      36.999   8.772 123.420 -0.63 -0.00    +0.000 N 
DOCKED: ATOM     10  O   UNL     1      37.078   7.421 123.424 -2.47 -0.00    +0.000 OA
DOCKED: ATOM     11  O   UNL     1      36.923   8.841 121.099 -2.66 -0.00    +0.000 OA
DOCKED: ATOM     12  H   UNL     1      37.042   9.270 124.269 -0.54 -0.00    +0.000 HD
DOCKED: ENDBRANCH   7   8
DOCKED: ENDBRANCH   4   6
DOCKED: ENDBRANCH   1   3
DOCKED: BRANCH   1  13
DOCKED: ATOM     13  C   UNL     1      38.019  15.854 120.692 -0.21 -0.00    +0.000 C 
DOCKED: ATOM     14  O   UNL     1      39.034  16.570 120.461 -0.13 -0.00    +0.000 OA
DOCKED: BRANCH  13  18
DOCKED: ATOM     15  C   UNL     1      35.580  14.577 117.358 -0.29 -0.00    +0.000 A 
DOCKED: ATOM     16  C   UNL     1      36.461  13.687 118.003 -0.36 -0.00    +0.000 A 
DOCKED: ATOM     17  C   UNL     1      37.246  14.108 119.079 -0.32 -0.00    +0.000 A 
DOCKED: ATOM     18  C   UNL     1      37.170  15.428 119.549 -0.19 -0.00    +0.000 A 
DOCKED: ATOM     19  C   UNL     1      36.302  16.325 118.903 -0.15 -0.00    +0.000 A 
DOCKED: ATOM     20  C   UNL     1      35.517  15.905 117.826 -0.15 -0.00    +0.000 A 
DOCKED: ATOM     21  CM  UNL     1      36.380  15.005 118.453 +0.00 -0.00    +0.000 AC
DOCKED: BRANCH  15  22
DOCKED: ATOM     22  C   UNL     1      35.329  14.062 114.887 -0.28 -0.00    +0.000 C 
DOCKED: ATOM     23  N   UNL     1      34.763  14.140 116.240 -0.31 -0.00    +0.000 N 
DOCKED: ATOM     24  C   UNL     1      33.358  13.769 116.444 -0.38 -0.00    +0.000 C 
DOCKED: ENDBRANCH  15  22
DOCKED: ENDBRANCH  13  18
DOCKED: ENDBRANCH   1  13
DOCKED: TORSDOF 6DOCKED: TER
DOCKED: ENDMDL
________________________________________________________________________________


	BEGINNING GENETIC ALGORITHM DOCKING 85 of 100
Run: 85 Seed: 911782142 1432973878 [ Run 85 of 100 GA/GALS ]
Beginning LAMARCKIAN GENETIC ALGORITHM (LGA), with a maximum of 2500000 energy evaluations.

Final-Value: -14.949


	FINAL GENETIC ALGORITHM DOCKED STATE
	_______________________________________________


Detailed state:  trans 35.791 15.014 121.633 quatxyzw 0.407654 0.764802 0.251298 -0.430982 center -0.963 -0.416 0.212 ntor 6 -99.9155 -11.6312 148.1044 21.7050 52.2390 174.8599
State:	 35.791  15.014 121.633   0.452  0.848  0.278 -128.940    -99.92  -11.63  148.10   21.71   52.24  174.86

DOCKED: MODEL       85
DOCKED: USER    Run = 85
DOCKED: USER    DPF = ligand_dock.biased.dpf
DOCKED: USER  
DOCKED: USER    Estimated Free Energy of Binding    =  -11.81 kcal/mol  [=(1)+(2)+(3)-(4)]
DOCKED: USER    Estimated Inhibition Constant, Ki   =    2.20 nM (nanomolar)  [Temperature = 298.15 K]
DOCKED: USER    
DOCKED: USER    (1) Final Intermolecular Energy     =  -13.60 kcal/mol
DOCKED: USER        vdW + Hbond + desolv Energy     =  -13.60 kcal/mol
DOCKED: USER        Electrostatic Energy            =   +0.00 kcal/mol
DOCKED: USER    (2) Final Total Internal Energy     =   -1.35 kcal/mol
DOCKED: USER    (3) Torsional Free Energy           =   +1.79 kcal/mol
DOCKED: USER    (4) Unbound System's Energy  [=(2)] =   -1.35 kcal/mol
DOCKED: USER    
DOCKED: USER    
DOCKED: USER    NEWDPF move ligand.dum.pdbqt
DOCKED: USER    NEWDPF about -0.963000 -0.416000 0.212000
DOCKED: USER    NEWDPF tran0 35.791269 15.014467 121.633002
DOCKED: USER    NEWDPF quaternion0 0.407654 0.764802 0.251298 -0.430982
DOCKED: USER    NEWDPF axisangle0 0.451764 0.847557 0.278489 -128.940165
DOCKED: USER    NEWDPF quat0 0.451764 0.847557 0.278489 -128.940165
DOCKED: USER    NEWDPF dihe0 -99.92 -11.63 148.10 21.71 52.24 174.86 
DOCKED: USER  keepresnum = 1 
DOCKED: USER  
DOCKED: REMARK  Name = 
DOCKED: REMARK  10 active torsions:
DOCKED: REMARK  status: ('A' for Active; 'I' for Inactive)
DOCKED: REMARK    1  A    between atoms: C_1  and  N_2
DOCKED: REMARK    2  A    between atoms: N_2  and  C_3
DOCKED: REMARK    3  A    between atoms: N_2  and  C_22
DOCKED: REMARK    4  A    between atoms: C_6  and  C_9
DOCKED: REMARK    5  A    between atoms: C_9  and  C_10
DOCKED: REMARK    6  A    between atoms: C_10  and  C_11
DOCKED: REMARK    7  A    between atoms: C_10  and  C_20
DOCKED: REMARK    8  A    between atoms: C_12  and  C_13
DOCKED: REMARK    9  A    between atoms: C_12  and  C_19
DOCKED: REMARK   10  A    between atoms: C_14  and  C_15
DOCKED: REMARK                            x       y       z     vdW  Elec       q    Type
DOCKED: REMARK                         _______ _______ _______ _____ _____    ______ ____
DOCKED: USER                              x       y       z     vdW  Elec       q    Type
DOCKED: USER                           _______ _______ _______ _____ _____    ______ ____
DOCKED: ROOT
DOCKED: ATOM      1  C   UNL     1      37.275  15.601 121.759 -0.28 -0.00    +0.000 C 
DOCKED: ATOM      2  C   UNL     1      38.728  16.076 121.837 -0.24 -0.00    +0.000 C 
DOCKED: ENDROOT
DOCKED: BRANCH   1   3
DOCKED: ATOM      3  C   UNL     1      37.202  14.106 122.003 -0.42 -0.00    +0.000 C 
DOCKED: ATOM      4  C   UNL     1      36.619  13.526 123.074 -0.57 -0.00    +0.000 C 
DOCKED: ATOM      5  C   UNL     1      35.952  14.341 124.159 -0.49 -0.00    +0.000 C 
DOCKED: BRANCH   4   6
DOCKED: ATOM      6  C   UNL     1      36.610  12.042 123.139 -0.68 -0.00    +0.000 C 
DOCKED: ATOM      7  C   UNL     1      37.057  11.264 122.141 -0.56 -0.00    +0.000 C 
DOCKED: BRANCH   7   8
DOCKED: ATOM      8  C   UNL     1      37.055   9.787 122.196 -0.59 -0.00    +0.000 C 
DOCKED: ATOM      9  N   UNL     1      37.173   9.065 123.427 -0.54 -0.00    +0.000 N 
DOCKED: ATOM     10  O   UNL     1      37.062   7.716 123.436 -2.69 -0.00    +0.000 OA
DOCKED: ATOM     11  O   UNL     1      36.970   9.148 121.114 -2.70 -0.00    +0.000 OA
DOCKED: ATOM     12  H   UNL     1      37.336   9.550 124.269 -0.62 -0.00    +0.000 HD
DOCKED: ENDBRANCH   7   8
DOCKED: ENDBRANCH   4   6
DOCKED: ENDBRANCH   1   3
DOCKED: BRANCH   1  13
DOCKED: ATOM     13  C   UNL     1      36.691  15.953 120.405 -0.19 -0.00    +0.000 C 
DOCKED: ATOM     14  O   UNL     1      35.813  16.858 120.333 -0.22 -0.00    +0.000 OA
DOCKED: BRANCH  13  18
DOCKED: ATOM     15  C   UNL     1      37.869  13.940 116.765 -0.33 -0.00    +0.000 A 
DOCKED: ATOM     16  C   UNL     1      38.379  15.211 117.096 -0.18 -0.00    +0.000 A 
DOCKED: ATOM     17  C   UNL     1      37.992  15.855 118.273 -0.14 -0.00    +0.000 A 
DOCKED: ATOM     18  C   UNL     1      37.092  15.246 119.161 -0.21 -0.00    +0.000 A 
DOCKED: ATOM     19  C   UNL     1      36.569  13.983 118.832 -0.30 -0.00    +0.000 A 
DOCKED: ATOM     20  C   UNL     1      36.954  13.339 117.653 -0.35 -0.00    +0.000 A 
DOCKED: ATOM     21  CM  UNL     1      37.476  14.596 117.963 +0.00 -0.00    +0.000 AC
DOCKED: BRANCH  15  22
DOCKED: ATOM     22  C   UNL     1      39.285  12.207 115.570 -0.48 -0.00    +0.000 C 
DOCKED: ATOM     23  N   UNL     1      38.271  13.270 115.541 -0.47 -0.00    +0.000 N 
DOCKED: ATOM     24  C   UNL     1      37.671  13.642 114.255 -0.37 -0.00    +0.000 C 
DOCKED: ENDBRANCH  15  22
DOCKED: ENDBRANCH  13  18
DOCKED: ENDBRANCH   1  13
DOCKED: TORSDOF 6DOCKED: TER
DOCKED: ENDMDL
________________________________________________________________________________


	BEGINNING GENETIC ALGORITHM DOCKING 86 of 100
Run: 86 Seed: 570773240 874919535 [ Run 86 of 100 GA/GALS ]
Beginning LAMARCKIAN GENETIC ALGORITHM (LGA), with a maximum of 2500000 energy evaluations.

Final-Value: -13.642


	FINAL GENETIC ALGORITHM DOCKED STATE
	_______________________________________________


Detailed state:  trans 37.001 14.891 122.969 quatxyzw -0.581227 -0.809483 -0.055022 -0.062334 center -0.963 -0.416 0.212 ntor 6 133.7257 155.1138 180.0000 -133.5906 94.8420 -46.9192
State:	 37.001  14.891 122.969  -0.582 -0.811 -0.055 -172.852    133.73  155.11  180.00 -133.59   94.84  -46.92

DOCKED: MODEL       86
DOCKED: USER    Run = 86
DOCKED: USER    DPF = ligand_dock.biased.dpf
DOCKED: USER  
DOCKED: USER    Estimated Free Energy of Binding    =  -11.07 kcal/mol  [=(1)+(2)+(3)-(4)]
DOCKED: USER    Estimated Inhibition Constant, Ki   =    7.62 nM (nanomolar)  [Temperature = 298.15 K]
DOCKED: USER    
DOCKED: USER    (1) Final Intermolecular Energy     =  -12.86 kcal/mol
DOCKED: USER        vdW + Hbond + desolv Energy     =  -12.86 kcal/mol
DOCKED: USER        Electrostatic Energy            =   +0.00 kcal/mol
DOCKED: USER    (2) Final Total Internal Energy     =   -0.78 kcal/mol
DOCKED: USER    (3) Torsional Free Energy           =   +1.79 kcal/mol
DOCKED: USER    (4) Unbound System's Energy  [=(2)] =   -0.78 kcal/mol
DOCKED: USER    
DOCKED: USER    
DOCKED: USER    NEWDPF move ligand.dum.pdbqt
DOCKED: USER    NEWDPF about -0.963000 -0.416000 0.212000
DOCKED: USER    NEWDPF tran0 37.001484 14.891386 122.968902
DOCKED: USER    NEWDPF quaternion0 -0.581227 -0.809483 -0.055022 -0.062334
DOCKED: USER    NEWDPF axisangle0 -0.582359 -0.811060 -0.055129 -172.852473
DOCKED: USER    NEWDPF quat0 -0.582359 -0.811060 -0.055129 -172.852473
DOCKED: USER    NEWDPF dihe0 133.73 155.11 180.00 -133.59 94.84 -46.92 
DOCKED: USER  keepresnum = 1 
DOCKED: USER  
DOCKED: REMARK  Name = 
DOCKED: REMARK  10 active torsions:
DOCKED: REMARK  status: ('A' for Active; 'I' for Inactive)
DOCKED: REMARK    1  A    between atoms: C_1  and  N_2
DOCKED: REMARK    2  A    between atoms: N_2  and  C_3
DOCKED: REMARK    3  A    between atoms: N_2  and  C_22
DOCKED: REMARK    4  A    between atoms: C_6  and  C_9
DOCKED: REMARK    5  A    between atoms: C_9  and  C_10
DOCKED: REMARK    6  A    between atoms: C_10  and  C_11
DOCKED: REMARK    7  A    between atoms: C_10  and  C_20
DOCKED: REMARK    8  A    between atoms: C_12  and  C_13
DOCKED: REMARK    9  A    between atoms: C_12  and  C_19
DOCKED: REMARK   10  A    between atoms: C_14  and  C_15
DOCKED: REMARK                            x       y       z     vdW  Elec       q    Type
DOCKED: REMARK                         _______ _______ _______ _____ _____    ______ ____
DOCKED: USER                              x       y       z     vdW  Elec       q    Type
DOCKED: USER                           _______ _______ _______ _____ _____    ______ ____
DOCKED: ROOT
DOCKED: ATOM      1  C   UNL     1      37.918  15.410 121.764 -0.30 -0.00    +0.000 C 
DOCKED: ATOM      2  C   UNL     1      38.753  15.835 120.553 -0.20 -0.00    +0.000 C 
DOCKED: ENDROOT
DOCKED: BRANCH   1   3
DOCKED: ATOM      3  C   UNL     1      37.728  13.906 121.763 -0.44 -0.00    +0.000 C 
DOCKED: ATOM      4  C   UNL     1      37.454  13.163 120.670 -0.47 -0.00    +0.000 C 
DOCKED: ATOM      5  C   UNL     1      37.320  13.782 119.297 -0.39 -0.00    +0.000 C 
DOCKED: BRANCH   4   6
DOCKED: ATOM      6  C   UNL     1      37.331  11.693 120.845 -0.49 -0.00    +0.000 C 
DOCKED: ATOM      7  C   UNL     1      36.965  11.122 122.002 -0.57 -0.00    +0.000 C 
DOCKED: BRANCH   7   8
DOCKED: ATOM      8  C   UNL     1      36.836   9.662 122.186 -0.65 -0.00    +0.000 C 
DOCKED: ATOM      9  N   UNL     1      37.312   8.990 123.358 -0.52 -0.00    +0.000 N 
DOCKED: ATOM     10  O   UNL     1      37.077   7.668 123.525 -2.61 -0.00    +0.000 OA
DOCKED: ATOM     11  O   UNL     1      36.308   8.986 121.262 -2.14 -0.00    +0.000 OA
DOCKED: ATOM     12  H   UNL     1      37.811   9.492 124.044 -0.49 -0.00    +0.000 HD
DOCKED: ENDBRANCH   7   8
DOCKED: ENDBRANCH   4   6
DOCKED: ENDBRANCH   1   3
DOCKED: BRANCH   1  13
DOCKED: ATOM     13  C   UNL     1      36.579  16.121 121.741 -0.24 -0.00    +0.000 C 
DOCKED: ATOM     14  O   UNL     1      36.085  16.461 120.630 -0.22 -0.00    +0.000 OA
DOCKED: BRANCH  13  18
DOCKED: ATOM     15  C   UNL     1      34.417  17.069 125.363 -0.39 -0.00    +0.000 A 
DOCKED: ATOM     16  C   UNL     1      34.760  15.741 125.043 -0.31 -0.00    +0.000 A 
DOCKED: ATOM     17  C   UNL     1      35.458  15.443 123.870 -0.46 -0.00    +0.000 A 
DOCKED: ATOM     18  C   UNL     1      35.843  16.463 122.986 -0.31 -0.00    +0.000 A 
DOCKED: ATOM     19  C   UNL     1      35.493  17.790 123.293 -0.27 -0.00    +0.000 A 
DOCKED: ATOM     20  C   UNL     1      34.794  18.088 124.465 -0.31 -0.00    +0.000 A 
DOCKED: ATOM     21  CM  UNL     1      35.127  16.765 124.170 -0.14 -0.00    +0.000 AC
DOCKED: BRANCH  15  22
DOCKED: ATOM     22  C   UNL     1      32.826  16.374 127.213 -0.32 -0.00    +0.000 C 
DOCKED: ATOM     23  N   UNL     1      33.692  17.379 126.583 -0.38 -0.00    +0.000 N 
DOCKED: ATOM     24  C   UNL     1      33.813  18.703 127.206 -0.24 -0.00    +0.000 C 
DOCKED: ENDBRANCH  15  22
DOCKED: ENDBRANCH  13  18
DOCKED: ENDBRANCH   1  13
DOCKED: TORSDOF 6DOCKED: TER
DOCKED: ENDMDL
________________________________________________________________________________


	BEGINNING GENETIC ALGORITHM DOCKING 87 of 100
Run: 87 Seed: 1278682425 1898369120 [ Run 87 of 100 GA/GALS ]
Beginning LAMARCKIAN GENETIC ALGORITHM (LGA), with a maximum of 2500000 energy evaluations.

Final-Value: -13.713


	FINAL GENETIC ALGORITHM DOCKED STATE
	_______________________________________________


Detailed state:  trans 36.664 15.126 122.459 quatxyzw -0.114377 -0.031761 0.604118 -0.788004 center -0.963 -0.416 0.212 ntor 6 31.7045 29.5029 -82.4803 84.3378 103.3132 54.8182
State:	 36.664  15.126 122.459  -0.186 -0.052  0.981 -76.001     31.70   29.50  -82.48   84.34  103.31   54.82

DOCKED: MODEL       87
DOCKED: USER    Run = 87
DOCKED: USER    DPF = ligand_dock.biased.dpf
DOCKED: USER  
DOCKED: USER    Estimated Free Energy of Binding    =  -11.02 kcal/mol  [=(1)+(2)+(3)-(4)]
DOCKED: USER    Estimated Inhibition Constant, Ki   =    8.36 nM (nanomolar)  [Temperature = 298.15 K]
DOCKED: USER    
DOCKED: USER    (1) Final Intermolecular Energy     =  -12.81 kcal/mol
DOCKED: USER        vdW + Hbond + desolv Energy     =  -12.81 kcal/mol
DOCKED: USER        Electrostatic Energy            =   +0.00 kcal/mol
DOCKED: USER    (2) Final Total Internal Energy     =   -0.90 kcal/mol
DOCKED: USER    (3) Torsional Free Energy           =   +1.79 kcal/mol
DOCKED: USER    (4) Unbound System's Energy  [=(2)] =   -0.90 kcal/mol
DOCKED: USER    
DOCKED: USER    
DOCKED: USER    NEWDPF move ligand.dum.pdbqt
DOCKED: USER    NEWDPF about -0.963000 -0.416000 0.212000
DOCKED: USER    NEWDPF tran0 36.663763 15.125630 122.459298
DOCKED: USER    NEWDPF quaternion0 -0.114377 -0.031761 0.604118 -0.788004
DOCKED: USER    NEWDPF axisangle0 -0.185777 -0.051588 0.981237 -76.001170
DOCKED: USER    NEWDPF quat0 -0.185777 -0.051588 0.981237 -76.001170
DOCKED: USER    NEWDPF dihe0 31.70 29.50 -82.48 84.34 103.31 54.82 
DOCKED: USER  keepresnum = 1 
DOCKED: USER  
DOCKED: REMARK  Name = 
DOCKED: REMARK  10 active torsions:
DOCKED: REMARK  status: ('A' for Active; 'I' for Inactive)
DOCKED: REMARK    1  A    between atoms: C_1  and  N_2
DOCKED: REMARK    2  A    between atoms: N_2  and  C_3
DOCKED: REMARK    3  A    between atoms: N_2  and  C_22
DOCKED: REMARK    4  A    between atoms: C_6  and  C_9
DOCKED: REMARK    5  A    between atoms: C_9  and  C_10
DOCKED: REMARK    6  A    between atoms: C_10  and  C_11
DOCKED: REMARK    7  A    between atoms: C_10  and  C_20
DOCKED: REMARK    8  A    between atoms: C_12  and  C_13
DOCKED: REMARK    9  A    between atoms: C_12  and  C_19
DOCKED: REMARK   10  A    between atoms: C_14  and  C_15
DOCKED: REMARK                            x       y       z     vdW  Elec       q    Type
DOCKED: REMARK                         _______ _______ _______ _____ _____    ______ ____
DOCKED: USER                              x       y       z     vdW  Elec       q    Type
DOCKED: USER                           _______ _______ _______ _____ _____    ______ ____
DOCKED: ROOT
DOCKED: ATOM      1  C   UNL     1      35.472  15.545 123.441 -0.48 -0.00    +0.000 C 
DOCKED: ATOM      2  C   UNL     1      34.366  15.876 124.446 -0.58 -0.00    +0.000 C 
DOCKED: ENDROOT
DOCKED: BRANCH   1   3
DOCKED: ATOM      3  C   UNL     1      35.778  14.060 123.475 -0.53 -0.00    +0.000 C 
DOCKED: ATOM      4  C   UNL     1      36.649  13.433 122.658 -0.52 -0.00    +0.000 C 
DOCKED: ATOM      5  C   UNL     1      37.437  14.180 121.605 -0.40 -0.00    +0.000 C 
DOCKED: BRANCH   4   6
DOCKED: ATOM      6  C   UNL     1      36.853  11.973 122.851 -0.65 -0.00    +0.000 C 
DOCKED: ATOM      7  C   UNL     1      36.677  11.074 121.870 -0.60 -0.00    +0.000 C 
DOCKED: BRANCH   7   8
DOCKED: ATOM      8  C   UNL     1      36.880   9.622 122.050 -0.64 -0.00    +0.000 C 
DOCKED: ATOM      9  N   UNL     1      37.040   9.023 123.342 -0.61 -0.00    +0.000 N 
DOCKED: ATOM     10  O   UNL     1      37.118   7.678 123.461 -2.66 -0.00    +0.000 OA
DOCKED: ATOM     11  O   UNL     1      36.938   8.894 121.024 -2.67 -0.00    +0.000 OA
DOCKED: ATOM     12  H   UNL     1      37.092   9.592 124.145 -0.57 -0.00    +0.000 HD
DOCKED: ENDBRANCH   7   8
DOCKED: ENDBRANCH   4   6
DOCKED: ENDBRANCH   1   3
DOCKED: BRANCH   1  13
DOCKED: ATOM     13  C   UNL     1      36.712  16.357 123.755 -0.32 -0.00    +0.000 C 
DOCKED: ATOM     14  O   UNL     1      37.827  15.767 123.835 -0.35 -0.00    +0.000 OA
DOCKED: BRANCH  13  18
DOCKED: ATOM     15  C   UNL     1      36.548  20.623 124.439 -0.12 -0.00    +0.000 A 
DOCKED: ATOM     16  C   UNL     1      35.942  20.040 123.309 -0.14 -0.00    +0.000 A 
DOCKED: ATOM     17  C   UNL     1      36.001  18.660 123.095 -0.20 -0.00    +0.000 A 
DOCKED: ATOM     18  C   UNL     1      36.658  17.821 124.008 -0.21 -0.00    +0.000 A 
DOCKED: ATOM     19  C   UNL     1      37.276  18.397 125.131 -0.14 -0.00    +0.000 A 
DOCKED: ATOM     20  C   UNL     1      37.219  19.777 125.345 -0.11 -0.00    +0.000 A 
DOCKED: ATOM     21  CM  UNL     1      36.608  19.219 124.221 -0.01 -0.00    +0.000 AC
DOCKED: BRANCH  15  22
DOCKED: ATOM     22  C   UNL     1      37.713  22.826 124.915 -0.03 -0.00    +0.000 C 
DOCKED: ATOM     23  N   UNL     1      36.487  22.056 124.663 -0.09 -0.00    +0.000 N 
DOCKED: ATOM     24  C   UNL     1      35.200  22.761 124.640 -0.17 -0.00    +0.000 C 
DOCKED: ENDBRANCH  15  22
DOCKED: ENDBRANCH  13  18
DOCKED: ENDBRANCH   1  13
DOCKED: TORSDOF 6DOCKED: TER
DOCKED: ENDMDL
________________________________________________________________________________


	BEGINNING GENETIC ALGORITHM DOCKING 88 of 100
Run: 88 Seed: 1919322012 1455089051 [ Run 88 of 100 GA/GALS ]
Beginning LAMARCKIAN GENETIC ALGORITHM (LGA), with a maximum of 2500000 energy evaluations.

Final-Value: -15.237


	FINAL GENETIC ALGORITHM DOCKED STATE
	_______________________________________________


Detailed state:  trans 36.544 14.983 122.345 quatxyzw 0.465153 0.770552 0.219005 -0.376722 center -0.963 -0.416 0.212 ntor 6 59.0501 -0.7371 106.0887 57.4148 47.0639 175.4579
State:	 36.544  14.983 122.345   0.502  0.832  0.236 -135.738     59.05   -0.74  106.09   57.41   47.06  175.46

DOCKED: MODEL       88
DOCKED: USER    Run = 88
DOCKED: USER    DPF = ligand_dock.biased.dpf
DOCKED: USER  
DOCKED: USER    Estimated Free Energy of Binding    =  -12.00 kcal/mol  [=(1)+(2)+(3)-(4)]
DOCKED: USER    Estimated Inhibition Constant, Ki   =    1.60 nM (nanomolar)  [Temperature = 298.15 K]
DOCKED: USER    
DOCKED: USER    (1) Final Intermolecular Energy     =  -13.79 kcal/mol
DOCKED: USER        vdW + Hbond + desolv Energy     =  -13.79 kcal/mol
DOCKED: USER        Electrostatic Energy            =   +0.00 kcal/mol
DOCKED: USER    (2) Final Total Internal Energy     =   -1.45 kcal/mol
DOCKED: USER    (3) Torsional Free Energy           =   +1.79 kcal/mol
DOCKED: USER    (4) Unbound System's Energy  [=(2)] =   -1.45 kcal/mol
DOCKED: USER    
DOCKED: USER    
DOCKED: USER    NEWDPF move ligand.dum.pdbqt
DOCKED: USER    NEWDPF about -0.963000 -0.416000 0.212000
DOCKED: USER    NEWDPF tran0 36.543947 14.983330 122.344915
DOCKED: USER    NEWDPF quaternion0 0.465153 0.770552 0.219005 -0.376722
DOCKED: USER    NEWDPF axisangle0 0.502149 0.831836 0.236423 -135.738427
DOCKED: USER    NEWDPF quat0 0.502149 0.831836 0.236423 -135.738427
DOCKED: USER    NEWDPF dihe0 59.05 -0.74 106.09 57.41 47.06 175.46 
DOCKED: USER  keepresnum = 1 
DOCKED: USER  
DOCKED: REMARK  Name = 
DOCKED: REMARK  10 active torsions:
DOCKED: REMARK  status: ('A' for Active; 'I' for Inactive)
DOCKED: REMARK    1  A    between atoms: C_1  and  N_2
DOCKED: REMARK    2  A    between atoms: N_2  and  C_3
DOCKED: REMARK    3  A    between atoms: N_2  and  C_22
DOCKED: REMARK    4  A    between atoms: C_6  and  C_9
DOCKED: REMARK    5  A    between atoms: C_9  and  C_10
DOCKED: REMARK    6  A    between atoms: C_10  and  C_11
DOCKED: REMARK    7  A    between atoms: C_10  and  C_20
DOCKED: REMARK    8  A    between atoms: C_12  and  C_13
DOCKED: REMARK    9  A    between atoms: C_12  and  C_19
DOCKED: REMARK   10  A    between atoms: C_14  and  C_15
DOCKED: REMARK                            x       y       z     vdW  Elec       q    Type
DOCKED: REMARK                         _______ _______ _______ _____ _____    ______ ____
DOCKED: USER                              x       y       z     vdW  Elec       q    Type
DOCKED: USER                           _______ _______ _______ _____ _____    ______ ____
DOCKED: ROOT
DOCKED: ATOM      1  C   UNL     1      38.076  15.442 122.276 -0.33 -0.00    +0.000 C 
DOCKED: ATOM      2  C   UNL     1      39.561  15.794 122.161 -0.32 -0.00    +0.000 C 
DOCKED: ENDROOT
DOCKED: BRANCH   1   3
DOCKED: ATOM      3  C   UNL     1      37.909  13.948 122.475 -0.48 -0.00    +0.000 C 
DOCKED: ATOM      4  C   UNL     1      36.907  13.369 123.171 -0.58 -0.00    +0.000 C 
DOCKED: ATOM      5  C   UNL     1      35.815  14.184 123.826 -0.56 -0.00    +0.000 C 
DOCKED: BRANCH   4   6
DOCKED: ATOM      6  C   UNL     1      36.879  11.885 123.239 -0.68 -0.00    +0.000 C 
DOCKED: ATOM      7  C   UNL     1      37.033  11.100 122.161 -0.56 -0.00    +0.000 C 
DOCKED: BRANCH   7   8
DOCKED: ATOM      8  C   UNL     1      37.010   9.624 122.218 -0.61 -0.00    +0.000 C 
DOCKED: ATOM      9  N   UNL     1      37.203   8.899 123.438 -0.57 -0.00    +0.000 N 
DOCKED: ATOM     10  O   UNL     1      37.068   7.553 123.456 -2.58 -0.00    +0.000 OA
DOCKED: ATOM     11  O   UNL     1      36.836   8.986 121.145 -2.65 -0.00    +0.000 OA
DOCKED: ATOM     12  H   UNL     1      37.433   9.382 124.265 -0.64 -0.00    +0.000 HD
DOCKED: ENDBRANCH   7   8
DOCKED: ENDBRANCH   4   6
DOCKED: ENDBRANCH   1   3
DOCKED: BRANCH   1  13
DOCKED: ATOM     13  C   UNL     1      37.339  15.904 121.034 -0.22 -0.00    +0.000 C 
DOCKED: ATOM     14  O   UNL     1      36.550  16.886 121.119 -0.20 -0.00    +0.000 OA
DOCKED: BRANCH  13  18
DOCKED: ATOM     15  C   UNL     1      37.781  13.954 117.200 -0.32 -0.00    +0.000 A 
DOCKED: ATOM     16  C   UNL     1      38.365  15.211 117.453 -0.17 -0.00    +0.000 A 
DOCKED: ATOM     17  C   UNL     1      38.217  15.834 118.694 -0.14 -0.00    +0.000 A 
DOCKED: ATOM     18  C   UNL     1      37.488  15.218 119.724 -0.21 -0.00    +0.000 A 
DOCKED: ATOM     19  C   UNL     1      36.892  13.970 119.475 -0.28 -0.00    +0.000 A 
DOCKED: ATOM     20  C   UNL     1      37.039  13.346 118.233 -0.37 -0.00    +0.000 A 
DOCKED: ATOM     21  CM  UNL     1      37.630  14.589 118.463 +0.00 -0.00    +0.000 AC
DOCKED: BRANCH  15  22
DOCKED: ATOM     22  C   UNL     1      36.857  13.357 114.915 -0.34 -0.00    +0.000 C 
DOCKED: ATOM     23  N   UNL     1      37.935  13.305 115.911 -0.44 -0.00    +0.000 N 
DOCKED: ATOM     24  C   UNL     1      39.172  12.586 115.580 -0.54 -0.00    +0.000 C 
DOCKED: ENDBRANCH  15  22
DOCKED: ENDBRANCH  13  18
DOCKED: ENDBRANCH   1  13
DOCKED: TORSDOF 6DOCKED: TER
DOCKED: ENDMDL
________________________________________________________________________________


	BEGINNING GENETIC ALGORITHM DOCKING 89 of 100
Run: 89 Seed: 1042573419 320122823 [ Run 89 of 100 GA/GALS ]
Beginning LAMARCKIAN GENETIC ALGORITHM (LGA), with a maximum of 2500000 energy evaluations.

Final-Value: -14.631


	FINAL GENETIC ALGORITHM DOCKED STATE
	_______________________________________________


Detailed state:  trans 36.069 15.108 121.911 quatxyzw 0.458201 0.721707 0.281353 -0.435926 center -0.963 -0.416 0.212 ntor 6 -140.1433 -31.1778 153.3127 36.6860 54.9629 -175.7388
State:	 36.069  15.108 121.911   0.509  0.802  0.313 -128.312   -140.14  -31.18  153.31   36.69   54.96 -175.74

DOCKED: MODEL       89
DOCKED: USER    Run = 89
DOCKED: USER    DPF = ligand_dock.biased.dpf
DOCKED: USER  
DOCKED: USER    Estimated Free Energy of Binding    =  -11.43 kcal/mol  [=(1)+(2)+(3)-(4)]
DOCKED: USER    Estimated Inhibition Constant, Ki   =    4.18 nM (nanomolar)  [Temperature = 298.15 K]
DOCKED: USER    
DOCKED: USER    (1) Final Intermolecular Energy     =  -13.22 kcal/mol
DOCKED: USER        vdW + Hbond + desolv Energy     =  -13.22 kcal/mol
DOCKED: USER        Electrostatic Energy            =   +0.00 kcal/mol
DOCKED: USER    (2) Final Total Internal Energy     =   -1.41 kcal/mol
DOCKED: USER    (3) Torsional Free Energy           =   +1.79 kcal/mol
DOCKED: USER    (4) Unbound System's Energy  [=(2)] =   -1.41 kcal/mol
DOCKED: USER    
DOCKED: USER    
DOCKED: USER    NEWDPF move ligand.dum.pdbqt
DOCKED: USER    NEWDPF about -0.963000 -0.416000 0.212000
DOCKED: USER    NEWDPF tran0 36.069186 15.107520 121.911198
DOCKED: USER    NEWDPF quaternion0 0.458201 0.721707 0.281353 -0.435926
DOCKED: USER    NEWDPF axisangle0 0.509122 0.801912 0.312621 -128.311579
DOCKED: USER    NEWDPF quat0 0.509122 0.801912 0.312621 -128.311579
DOCKED: USER    NEWDPF dihe0 -140.14 -31.18 153.31 36.69 54.96 -175.74 
DOCKED: USER  keepresnum = 1 
DOCKED: USER  
DOCKED: REMARK  Name = 
DOCKED: REMARK  10 active torsions:
DOCKED: REMARK  status: ('A' for Active; 'I' for Inactive)
DOCKED: REMARK    1  A    between atoms: C_1  and  N_2
DOCKED: REMARK    2  A    between atoms: N_2  and  C_3
DOCKED: REMARK    3  A    between atoms: N_2  and  C_22
DOCKED: REMARK    4  A    between atoms: C_6  and  C_9
DOCKED: REMARK    5  A    between atoms: C_9  and  C_10
DOCKED: REMARK    6  A    between atoms: C_10  and  C_11
DOCKED: REMARK    7  A    between atoms: C_10  and  C_20
DOCKED: REMARK    8  A    between atoms: C_12  and  C_13
DOCKED: REMARK    9  A    between atoms: C_12  and  C_19
DOCKED: REMARK   10  A    between atoms: C_14  and  C_15
DOCKED: REMARK                            x       y       z     vdW  Elec       q    Type
DOCKED: REMARK                         _______ _______ _______ _____ _____    ______ ____
DOCKED: USER                              x       y       z     vdW  Elec       q    Type
DOCKED: USER                           _______ _______ _______ _____ _____    ______ ____
DOCKED: ROOT
DOCKED: ATOM      1  C   UNL     1      37.590  15.540 122.158 -0.31 -0.00    +0.000 C 
DOCKED: ATOM      2  C   UNL     1      39.073  15.869 122.344 -0.31 -0.00    +0.000 C 
DOCKED: ENDROOT
DOCKED: BRANCH   1   3
DOCKED: ATOM      3  C   UNL     1      37.376  14.041 122.235 -0.46 -0.00    +0.000 C 
DOCKED: ATOM      4  C   UNL     1      36.473  13.429 123.030 -0.56 -0.00    +0.000 C 
DOCKED: ATOM      5  C   UNL     1      35.550  14.211 123.938 -0.54 -0.00    +0.000 C 
DOCKED: BRANCH   4   6
DOCKED: ATOM      6  C   UNL     1      36.374  11.949 122.956 -0.67 -0.00    +0.000 C 
DOCKED: ATOM      7  C   UNL     1      37.136  11.205 122.139 -0.48 -0.00    +0.000 C 
DOCKED: BRANCH   7   8
DOCKED: ATOM      8  C   UNL     1      37.048   9.732 122.060 -0.59 -0.00    +0.000 C 
DOCKED: ATOM      9  N   UNL     1      37.058   8.899 123.224 -0.66 -0.00    +0.000 N 
DOCKED: ATOM     10  O   UNL     1      36.871   7.564 123.105 -2.35 -0.00    +0.000 OA
DOCKED: ATOM     11  O   UNL     1      36.987   9.197 120.921 -2.70 -0.00    +0.000 OA
DOCKED: ATOM     12  H   UNL     1      37.201   9.298 124.114 -0.57 -0.00    +0.000 HD
DOCKED: ENDBRANCH   7   8
DOCKED: ENDBRANCH   4   6
DOCKED: ENDBRANCH   1   3
DOCKED: BRANCH   1  13
DOCKED: ATOM     13  C   UNL     1      37.105  16.084 120.829 -0.21 -0.00    +0.000 C 
DOCKED: ATOM     14  O   UNL     1      36.461  17.171 120.810 -0.19 -0.00    +0.000 OA
DOCKED: BRANCH  13  18
DOCKED: ATOM     15  C   UNL     1      37.788  14.032 117.085 -0.32 -0.00    +0.000 A 
DOCKED: ATOM     16  C   UNL     1      38.614  15.096 117.497 -0.17 -0.00    +0.000 A 
DOCKED: ATOM     17  C   UNL     1      38.386  15.754 118.708 -0.14 -0.00    +0.000 A 
DOCKED: ATOM     18  C   UNL     1      37.331  15.364 119.548 -0.20 -0.00    +0.000 A 
DOCKED: ATOM     19  C   UNL     1      36.495  14.312 119.138 -0.13 -0.00    +0.000 A 
DOCKED: ATOM     20  C   UNL     1      36.722  13.654 117.926 -0.36 -0.00    +0.000 A 
DOCKED: ATOM     21  CM  UNL     1      37.556  14.703 118.317 +0.00 -0.00    +0.000 AC
DOCKED: BRANCH  15  22
DOCKED: ATOM     22  C   UNL     1      39.297  12.655 115.581 -0.52 -0.00    +0.000 C 
DOCKED: ATOM     23  N   UNL     1      38.025  13.347 115.827 -0.44 -0.00    +0.000 N 
DOCKED: ATOM     24  C   UNL     1      36.997  13.335 114.779 -0.36 -0.00    +0.000 C 
DOCKED: ENDBRANCH  15  22
DOCKED: ENDBRANCH  13  18
DOCKED: ENDBRANCH   1  13
DOCKED: TORSDOF 6DOCKED: TER
DOCKED: ENDMDL
________________________________________________________________________________


	BEGINNING GENETIC ALGORITHM DOCKING 90 of 100
Run: 90 Seed: 537727974 975022855 [ Run 90 of 100 GA/GALS ]
Beginning LAMARCKIAN GENETIC ALGORITHM (LGA), with a maximum of 2500000 energy evaluations.

Final-Value: -14.564


	FINAL GENETIC ALGORITHM DOCKED STATE
	_______________________________________________


Detailed state:  trans 36.670 15.123 124.165 quatxyzw 0.500703 0.861784 0.079738 0.016331 center -0.963 -0.416 0.212 ntor 6 -174.7969 81.6704 -78.5958 -148.5412 -114.1116 -39.7460
State:	 36.670  15.123 124.165   0.501  0.862  0.080 178.129   -174.80   81.67  -78.60 -148.54 -114.11  -39.75

DOCKED: MODEL       90
DOCKED: USER    Run = 90
DOCKED: USER    DPF = ligand_dock.biased.dpf
DOCKED: USER  
DOCKED: USER    Estimated Free Energy of Binding    =  -11.84 kcal/mol  [=(1)+(2)+(3)-(4)]
DOCKED: USER    Estimated Inhibition Constant, Ki   =    2.08 nM (nanomolar)  [Temperature = 298.15 K]
DOCKED: USER    
DOCKED: USER    (1) Final Intermolecular Energy     =  -13.63 kcal/mol
DOCKED: USER        vdW + Hbond + desolv Energy     =  -13.63 kcal/mol
DOCKED: USER        Electrostatic Energy            =   +0.00 kcal/mol
DOCKED: USER    (2) Final Total Internal Energy     =   -0.93 kcal/mol
DOCKED: USER    (3) Torsional Free Energy           =   +1.79 kcal/mol
DOCKED: USER    (4) Unbound System's Energy  [=(2)] =   -0.93 kcal/mol
DOCKED: USER    
DOCKED: USER    
DOCKED: USER    NEWDPF move ligand.dum.pdbqt
DOCKED: USER    NEWDPF about -0.963000 -0.416000 0.212000
DOCKED: USER    NEWDPF tran0 36.669696 15.123166 124.165102
DOCKED: USER    NEWDPF quaternion0 0.500703 0.861784 0.079738 0.016331
DOCKED: USER    NEWDPF axisangle0 0.500770 0.861899 0.079748 178.128523
DOCKED: USER    NEWDPF quat0 0.500770 0.861899 0.079748 178.128523
DOCKED: USER    NEWDPF dihe0 -174.80 81.67 -78.60 -148.54 -114.11 -39.75 
DOCKED: USER  keepresnum = 1 
DOCKED: USER  
DOCKED: REMARK  Name = 
DOCKED: REMARK  10 active torsions:
DOCKED: REMARK  status: ('A' for Active; 'I' for Inactive)
DOCKED: REMARK    1  A    between atoms: C_1  and  N_2
DOCKED: REMARK    2  A    between atoms: N_2  and  C_3
DOCKED: REMARK    3  A    between atoms: N_2  and  C_22
DOCKED: REMARK    4  A    between atoms: C_6  and  C_9
DOCKED: REMARK    5  A    between atoms: C_9  and  C_10
DOCKED: REMARK    6  A    between atoms: C_10  and  C_11
DOCKED: REMARK    7  A    between atoms: C_10  and  C_20
DOCKED: REMARK    8  A    between atoms: C_12  and  C_13
DOCKED: REMARK    9  A    between atoms: C_12  and  C_19
DOCKED: REMARK   10  A    between atoms: C_14  and  C_15
DOCKED: REMARK                            x       y       z     vdW  Elec       q    Type
DOCKED: REMARK                         _______ _______ _______ _____ _____    ______ ____
DOCKED: USER                              x       y       z     vdW  Elec       q    Type
DOCKED: USER                           _______ _______ _______ _____ _____    ______ ____
DOCKED: ROOT
DOCKED: ATOM      1  C   UNL     1      37.613  15.803 123.066 -0.34 -0.00    +0.000 C 
DOCKED: ATOM      2  C   UNL     1      38.495  16.375 121.953 -0.22 -0.00    +0.000 C 
DOCKED: ENDROOT
DOCKED: BRANCH   1   3
DOCKED: ATOM      3  C   UNL     1      37.701  14.289 123.073 -0.48 -0.00    +0.000 C 
DOCKED: ATOM      4  C   UNL     1      37.414  13.494 122.020 -0.49 -0.00    +0.000 C 
DOCKED: ATOM      5  C   UNL     1      36.978  14.061 120.687 -0.23 -0.00    +0.000 C 
DOCKED: BRANCH   4   6
DOCKED: ATOM      6  C   UNL     1      37.586  12.028 122.191 -0.16 -0.00    +0.000 C 
DOCKED: ATOM      7  C   UNL     1      36.622  11.141 121.901 -0.60 -0.00    +0.000 C 
DOCKED: BRANCH   7   8
DOCKED: ATOM      8  C   UNL     1      36.783   9.681 122.065 -0.66 -0.00    +0.000 C 
DOCKED: ATOM      9  N   UNL     1      36.985   9.070 123.344 -0.60 -0.00    +0.000 N 
DOCKED: ATOM     10  O   UNL     1      37.022   7.721 123.453 -2.67 -0.00    +0.000 OA
DOCKED: ATOM     11  O   UNL     1      36.763   8.958 121.034 -2.63 -0.00    +0.000 OA
DOCKED: ATOM     12  H   UNL     1      37.097   9.632 124.146 -0.57 -0.00    +0.000 HD
DOCKED: ENDBRANCH   7   8
DOCKED: ENDBRANCH   4   6
DOCKED: ENDBRANCH   1   3
DOCKED: BRANCH   1  13
DOCKED: ATOM     13  C   UNL     1      36.180  16.257 122.872 -0.34 -0.00    +0.000 C 
DOCKED: ATOM     14  O   UNL     1      35.727  16.372 121.699 -0.27 -0.00    +0.000 OA
DOCKED: BRANCH  13  18
DOCKED: ATOM     15  C   UNL     1      33.644  17.317 126.210 -0.34 -0.00    +0.000 A 
DOCKED: ATOM     16  C   UNL     1      34.420  18.286 125.544 -0.30 -0.00    +0.000 A 
DOCKED: ATOM     17  C   UNL     1      35.237  17.935 124.467 -0.29 -0.00    +0.000 A 
DOCKED: ATOM     18  C   UNL     1      35.299  16.607 124.016 -0.38 -0.00    +0.000 A 
DOCKED: ATOM     19  C   UNL     1      34.537  15.632 124.684 -0.50 -0.00    +0.000 A 
DOCKED: ATOM     20  C   UNL     1      33.720  15.983 125.762 -0.27 -0.00    +0.000 A 
DOCKED: ATOM     21  CM  UNL     1      34.477  16.960 125.114 -0.27 -0.00    +0.000 AC
DOCKED: BRANCH  15  22
DOCKED: ATOM     22  C   UNL     1      32.271  19.048 127.456 -0.25 -0.00    +0.000 C 
DOCKED: ATOM     23  N   UNL     1      32.794  17.681 127.329 -0.32 -0.00    +0.000 N 
DOCKED: ATOM     24  C   UNL     1      32.441  16.689 128.351 -0.45 -0.00    +0.000 C 
DOCKED: ENDBRANCH  15  22
DOCKED: ENDBRANCH  13  18
DOCKED: ENDBRANCH   1  13
DOCKED: TORSDOF 6DOCKED: TER
DOCKED: ENDMDL
________________________________________________________________________________


	BEGINNING GENETIC ALGORITHM DOCKING 91 of 100
Run: 91 Seed: 881884040 801844181 [ Run 91 of 100 GA/GALS ]
Beginning LAMARCKIAN GENETIC ALGORITHM (LGA), with a maximum of 2500000 energy evaluations.

Final-Value: -15.221


	FINAL GENETIC ALGORITHM DOCKED STATE
	_______________________________________________


Detailed state:  trans 36.287 14.844 121.993 quatxyzw 0.429893 0.790440 0.214468 -0.380000 center -0.963 -0.416 0.212 ntor 6 -94.7211 11.9749 100.2463 53.0578 47.9872 170.7922
State:	 36.287  14.844 121.993   0.465  0.855  0.232 -135.333    -94.72   11.97  100.25   53.06   47.99  170.79

DOCKED: MODEL       91
DOCKED: USER    Run = 91
DOCKED: USER    DPF = ligand_dock.biased.dpf
DOCKED: USER  
DOCKED: USER    Estimated Free Energy of Binding    =  -12.02 kcal/mol  [=(1)+(2)+(3)-(4)]
DOCKED: USER    Estimated Inhibition Constant, Ki   =    1.55 nM (nanomolar)  [Temperature = 298.15 K]
DOCKED: USER    
DOCKED: USER    (1) Final Intermolecular Energy     =  -13.81 kcal/mol
DOCKED: USER        vdW + Hbond + desolv Energy     =  -13.81 kcal/mol
DOCKED: USER        Electrostatic Energy            =   +0.00 kcal/mol
DOCKED: USER    (2) Final Total Internal Energy     =   -1.41 kcal/mol
DOCKED: USER    (3) Torsional Free Energy           =   +1.79 kcal/mol
DOCKED: USER    (4) Unbound System's Energy  [=(2)] =   -1.41 kcal/mol
DOCKED: USER    
DOCKED: USER    
DOCKED: USER    NEWDPF move ligand.dum.pdbqt
DOCKED: USER    NEWDPF about -0.963000 -0.416000 0.212000
DOCKED: USER    NEWDPF tran0 36.287461 14.843647 121.993372
DOCKED: USER    NEWDPF quaternion0 0.429893 0.790440 0.214468 -0.380000
DOCKED: USER    NEWDPF axisangle0 0.464757 0.854542 0.231861 -135.332578
DOCKED: USER    NEWDPF quat0 0.464757 0.854542 0.231861 -135.332578
DOCKED: USER    NEWDPF dihe0 -94.72 11.97 100.25 53.06 47.99 170.79 
DOCKED: USER  keepresnum = 1 
DOCKED: USER  
DOCKED: REMARK  Name = 
DOCKED: REMARK  10 active torsions:
DOCKED: REMARK  status: ('A' for Active; 'I' for Inactive)
DOCKED: REMARK    1  A    between atoms: C_1  and  N_2
DOCKED: REMARK    2  A    between atoms: N_2  and  C_3
DOCKED: REMARK    3  A    between atoms: N_2  and  C_22
DOCKED: REMARK    4  A    between atoms: C_6  and  C_9
DOCKED: REMARK    5  A    between atoms: C_9  and  C_10
DOCKED: REMARK    6  A    between atoms: C_10  and  C_11
DOCKED: REMARK    7  A    between atoms: C_10  and  C_20
DOCKED: REMARK    8  A    between atoms: C_12  and  C_13
DOCKED: REMARK    9  A    between atoms: C_12  and  C_19
DOCKED: REMARK   10  A    between atoms: C_14  and  C_15
DOCKED: REMARK                            x       y       z     vdW  Elec       q    Type
DOCKED: REMARK                         _______ _______ _______ _____ _____    ______ ____
DOCKED: USER                              x       y       z     vdW  Elec       q    Type
DOCKED: USER                           _______ _______ _______ _____ _____    ______ ____
DOCKED: ROOT
DOCKED: ATOM      1  C   UNL     1      37.785  15.401 121.904 -0.30 -0.00    +0.000 C 
DOCKED: ATOM      2  C   UNL     1      39.243  15.848 121.772 -0.27 -0.00    +0.000 C 
DOCKED: ENDROOT
DOCKED: BRANCH   1   3
DOCKED: ATOM      3  C   UNL     1      37.719  13.910 122.170 -0.47 -0.00    +0.000 C 
DOCKED: ATOM      4  C   UNL     1      36.806  13.307 122.959 -0.57 -0.00    +0.000 C 
DOCKED: ATOM      5  C   UNL     1      35.718  14.087 123.664 -0.54 -0.00    +0.000 C 
DOCKED: BRANCH   4   6
DOCKED: ATOM      6  C   UNL     1      36.868  11.827 123.085 -0.67 -0.00    +0.000 C 
DOCKED: ATOM      7  C   UNL     1      36.874  11.003 122.026 -0.58 -0.00    +0.000 C 
DOCKED: BRANCH   7   8
DOCKED: ATOM      8  C   UNL     1      36.939   9.532 122.139 -0.64 -0.00    +0.000 C 
DOCKED: ATOM      9  N   UNL     1      37.118   8.865 123.394 -0.61 -0.00    +0.000 N 
DOCKED: ATOM     10  O   UNL     1      37.066   7.514 123.458 -2.55 -0.00    +0.000 OA
DOCKED: ATOM     11  O   UNL     1      36.856   8.846 121.085 -2.65 -0.00    +0.000 OA
DOCKED: ATOM     12  H   UNL     1      37.279   9.391 124.211 -0.61 -0.00    +0.000 HD
DOCKED: ENDBRANCH   7   8
DOCKED: ENDBRANCH   4   6
DOCKED: ENDBRANCH   1   3
DOCKED: BRANCH   1  13
DOCKED: ATOM     13  C   UNL     1      37.022  15.756 120.642 -0.22 -0.00    +0.000 C 
DOCKED: ATOM     14  O   UNL     1      36.106  16.623 120.703 -0.22 -0.00    +0.000 OA
DOCKED: BRANCH  13  18
DOCKED: ATOM     15  C   UNL     1      37.813  13.871 116.832 -0.34 -0.00    +0.000 A 
DOCKED: ATOM     16  C   UNL     1      38.233  15.189 117.097 -0.18 -0.00    +0.000 A 
DOCKED: ATOM     17  C   UNL     1      37.973  15.791 118.330 -0.14 -0.00    +0.000 A 
DOCKED: ATOM     18  C   UNL     1      37.293  15.092 119.340 -0.22 -0.00    +0.000 A 
DOCKED: ATOM     19  C   UNL     1      36.860  13.780 119.079 -0.34 -0.00    +0.000 A 
DOCKED: ATOM     20  C   UNL     1      37.119  13.178 117.845 -0.31 -0.00    +0.000 A 
DOCKED: ATOM     21  CM  UNL     1      37.548  14.484 118.087 +0.00 -0.00    +0.000 AC
DOCKED: BRANCH  15  22
DOCKED: ATOM     22  C   UNL     1      39.122  12.211 115.429 -0.53 -0.00    +0.000 C 
DOCKED: ATOM     23  N   UNL     1      38.084  13.244 115.551 -0.46 -0.00    +0.000 N 
DOCKED: ATOM     24  C   UNL     1      37.326  13.631 114.356 -0.38 -0.00    +0.000 C 
DOCKED: ENDBRANCH  15  22
DOCKED: ENDBRANCH  13  18
DOCKED: ENDBRANCH   1  13
DOCKED: TORSDOF 6DOCKED: TER
DOCKED: ENDMDL
________________________________________________________________________________


	BEGINNING GENETIC ALGORITHM DOCKING 92 of 100
Run: 92 Seed: 1287117854 222580770 [ Run 92 of 100 GA/GALS ]
Beginning LAMARCKIAN GENETIC ALGORITHM (LGA), with a maximum of 2500000 energy evaluations.

Final-Value: -14.130


	FINAL GENETIC ALGORITHM DOCKED STATE
	_______________________________________________


Detailed state:  trans 36.309 14.641 124.492 quatxyzw -0.417633 -0.840737 0.060973 -0.339156 center -0.963 -0.416 0.212 ntor 6 -59.6496 129.9551 178.4168 -55.5868 178.5990 28.3580
State:	 36.309  14.641 124.492  -0.444 -0.894  0.065 -140.349    -59.65  129.96  178.42  -55.59  178.60   28.36

DOCKED: MODEL       92
DOCKED: USER    Run = 92
DOCKED: USER    DPF = ligand_dock.biased.dpf
DOCKED: USER  
DOCKED: USER    Estimated Free Energy of Binding    =  -11.94 kcal/mol  [=(1)+(2)+(3)-(4)]
DOCKED: USER    Estimated Inhibition Constant, Ki   =    1.77 nM (nanomolar)  [Temperature = 298.15 K]
DOCKED: USER    
DOCKED: USER    (1) Final Intermolecular Energy     =  -13.73 kcal/mol
DOCKED: USER        vdW + Hbond + desolv Energy     =  -13.73 kcal/mol
DOCKED: USER        Electrostatic Energy            =   +0.00 kcal/mol
DOCKED: USER    (2) Final Total Internal Energy     =   -0.40 kcal/mol
DOCKED: USER    (3) Torsional Free Energy           =   +1.79 kcal/mol
DOCKED: USER    (4) Unbound System's Energy  [=(2)] =   -0.40 kcal/mol
DOCKED: USER    
DOCKED: USER    
DOCKED: USER    NEWDPF move ligand.dum.pdbqt
DOCKED: USER    NEWDPF about -0.963000 -0.416000 0.212000
DOCKED: USER    NEWDPF tran0 36.309055 14.641434 124.491665
DOCKED: USER    NEWDPF quaternion0 -0.417633 -0.840737 0.060973 -0.339156
DOCKED: USER    NEWDPF axisangle0 -0.443945 -0.893707 0.064814 -140.349046
DOCKED: USER    NEWDPF quat0 -0.443945 -0.893707 0.064814 -140.349046
DOCKED: USER    NEWDPF dihe0 -59.65 129.96 178.42 -55.59 178.60 28.36 
DOCKED: USER  keepresnum = 1 
DOCKED: USER  
DOCKED: REMARK  Name = 
DOCKED: REMARK  10 active torsions:
DOCKED: REMARK  status: ('A' for Active; 'I' for Inactive)
DOCKED: REMARK    1  A    between atoms: C_1  and  N_2
DOCKED: REMARK    2  A    between atoms: N_2  and  C_3
DOCKED: REMARK    3  A    between atoms: N_2  and  C_22
DOCKED: REMARK    4  A    between atoms: C_6  and  C_9
DOCKED: REMARK    5  A    between atoms: C_9  and  C_10
DOCKED: REMARK    6  A    between atoms: C_10  and  C_11
DOCKED: REMARK    7  A    between atoms: C_10  and  C_20
DOCKED: REMARK    8  A    between atoms: C_12  and  C_13
DOCKED: REMARK    9  A    between atoms: C_12  and  C_19
DOCKED: REMARK   10  A    between atoms: C_14  and  C_15
DOCKED: REMARK                            x       y       z     vdW  Elec       q    Type
DOCKED: REMARK                         _______ _______ _______ _____ _____    ______ ____
DOCKED: USER                              x       y       z     vdW  Elec       q    Type
DOCKED: USER                           _______ _______ _______ _____ _____    ______ ____
DOCKED: ROOT
DOCKED: ATOM      1  C   UNL     1      36.212  15.515 123.154 -0.42 -0.00    +0.000 C 
DOCKED: ATOM      2  C   UNL     1      36.073  16.271 121.831 -0.21 -0.00    +0.000 C 
DOCKED: ENDROOT
DOCKED: BRANCH   1   3
DOCKED: ATOM      3  C   UNL     1      36.489  14.048 122.889 -0.48 -0.00    +0.000 C 
DOCKED: ATOM      4  C   UNL     1      37.245  13.576 121.876 -0.46 -0.00    +0.000 C 
DOCKED: ATOM      5  C   UNL     1      37.919  14.499 120.885 -0.34 -0.00    +0.000 C 
DOCKED: BRANCH   4   6
DOCKED: ATOM      6  C   UNL     1      37.439  12.106 121.782 -0.48 -0.00    +0.000 C 
DOCKED: ATOM      7  C   UNL     1      36.572  11.219 122.296 -0.64 -0.00    +0.000 C 
DOCKED: BRANCH   7   8
DOCKED: ATOM      8  C   UNL     1      36.754   9.756 122.206 -0.67 -0.00    +0.000 C 
DOCKED: ATOM      9  N   UNL     1      37.016   8.943 123.356 -0.62 -0.00    +0.000 N 
DOCKED: ATOM     10  O   UNL     1      37.071   7.596 123.236 -2.52 -0.00    +0.000 OA
DOCKED: ATOM     11  O   UNL     1      36.698   9.214 121.070 -2.61 +0.00    +0.000 OA
DOCKED: ATOM     12  H   UNL     1      37.157   9.365 124.235 -0.59 -0.00    +0.000 HD
DOCKED: ENDBRANCH   7   8
DOCKED: ENDBRANCH   4   6
DOCKED: ENDBRANCH   1   3
DOCKED: BRANCH   1  13
DOCKED: ATOM     13  C   UNL     1      34.950  15.683 123.977 -0.55 -0.00    +0.000 C 
DOCKED: ATOM     14  O   UNL     1      34.130  14.725 124.044 -0.61 -0.00    +0.000 OA
DOCKED: BRANCH  13  18
DOCKED: ATOM     15  C   UNL     1      34.053  19.394 126.007 -0.22 -0.00    +0.000 A 
DOCKED: ATOM     16  C   UNL     1      34.888  19.364 124.873 -0.18 -0.00    +0.000 A 
DOCKED: ATOM     17  C   UNL     1      35.174  18.161 124.224 -0.28 -0.00    +0.000 A 
DOCKED: ATOM     18  C   UNL     1      34.627  16.952 124.681 -0.41 -0.00    +0.000 A 
DOCKED: ATOM     19  C   UNL     1      33.802  16.972 125.820 -0.35 -0.00    +0.000 A 
DOCKED: ATOM     20  C   UNL     1      33.517  18.175 126.470 -0.30 -0.00    +0.000 A 
DOCKED: ATOM     21  CM  UNL     1      34.344  18.170 125.346 -0.33 -0.00    +0.000 AC
DOCKED: BRANCH  15  22
DOCKED: ATOM     22  C   UNL     1      32.408  20.908 127.206 -0.19 -0.00    +0.000 C 
DOCKED: ATOM     23  N   UNL     1      33.755  20.644 126.682 -0.15 -0.00    +0.000 N 
DOCKED: ATOM     24  C   UNL     1      34.794  21.666 126.853 -0.10 -0.00    +0.000 C 
DOCKED: ENDBRANCH  15  22
DOCKED: ENDBRANCH  13  18
DOCKED: ENDBRANCH   1  13
DOCKED: TORSDOF 6DOCKED: TER
DOCKED: ENDMDL
________________________________________________________________________________


	BEGINNING GENETIC ALGORITHM DOCKING 93 of 100
Run: 93 Seed: 311622285 218382809 [ Run 93 of 100 GA/GALS ]
Beginning LAMARCKIAN GENETIC ALGORITHM (LGA), with a maximum of 2500000 energy evaluations.

Final-Value: -14.964


	FINAL GENETIC ALGORITHM DOCKED STATE
	_______________________________________________


Detailed state:  trans 36.032 15.122 122.033 quatxyzw 0.460988 0.742193 0.249823 -0.417406 center -0.963 -0.416 0.212 ntor 6 66.7136 -39.6689 147.6184 45.7830 36.4657 -179.9406
State:	 36.032  15.122 122.033   0.507  0.817  0.275 -130.658     66.71  -39.67  147.62   45.78   36.47 -179.94

DOCKED: MODEL       93
DOCKED: USER    Run = 93
DOCKED: USER    DPF = ligand_dock.biased.dpf
DOCKED: USER  
DOCKED: USER    Estimated Free Energy of Binding    =  -11.84 kcal/mol  [=(1)+(2)+(3)-(4)]
DOCKED: USER    Estimated Inhibition Constant, Ki   =    2.10 nM (nanomolar)  [Temperature = 298.15 K]
DOCKED: USER    
DOCKED: USER    (1) Final Intermolecular Energy     =  -13.63 kcal/mol
DOCKED: USER        vdW + Hbond + desolv Energy     =  -13.63 kcal/mol
DOCKED: USER        Electrostatic Energy            =   +0.00 kcal/mol
DOCKED: USER    (2) Final Total Internal Energy     =   -1.34 kcal/mol
DOCKED: USER    (3) Torsional Free Energy           =   +1.79 kcal/mol
DOCKED: USER    (4) Unbound System's Energy  [=(2)] =   -1.34 kcal/mol
DOCKED: USER    
DOCKED: USER    
DOCKED: USER    NEWDPF move ligand.dum.pdbqt
DOCKED: USER    NEWDPF about -0.963000 -0.416000 0.212000
DOCKED: USER    NEWDPF tran0 36.032335 15.122145 122.033069
DOCKED: USER    NEWDPF quaternion0 0.460988 0.742193 0.249823 -0.417406
DOCKED: USER    NEWDPF axisangle0 0.507294 0.816746 0.274917 -130.658206
DOCKED: USER    NEWDPF quat0 0.507294 0.816746 0.274917 -130.658206
DOCKED: USER    NEWDPF dihe0 66.71 -39.67 147.62 45.78 36.47 -179.94 
DOCKED: USER  keepresnum = 1 
DOCKED: USER  
DOCKED: REMARK  Name = 
DOCKED: REMARK  10 active torsions:
DOCKED: REMARK  status: ('A' for Active; 'I' for Inactive)
DOCKED: REMARK    1  A    between atoms: C_1  and  N_2
DOCKED: REMARK    2  A    between atoms: N_2  and  C_3
DOCKED: REMARK    3  A    between atoms: N_2  and  C_22
DOCKED: REMARK    4  A    between atoms: C_6  and  C_9
DOCKED: REMARK    5  A    between atoms: C_9  and  C_10
DOCKED: REMARK    6  A    between atoms: C_10  and  C_11
DOCKED: REMARK    7  A    between atoms: C_10  and  C_20
DOCKED: REMARK    8  A    between atoms: C_12  and  C_13
DOCKED: REMARK    9  A    between atoms: C_12  and  C_19
DOCKED: REMARK   10  A    between atoms: C_14  and  C_15
DOCKED: REMARK                            x       y       z     vdW  Elec       q    Type
DOCKED: REMARK                         _______ _______ _______ _____ _____    ______ ____
DOCKED: USER                              x       y       z     vdW  Elec       q    Type
DOCKED: USER                           _______ _______ _______ _____ _____    ______ ____
DOCKED: ROOT
DOCKED: ATOM      1  C   UNL     1      37.568  15.558 122.149 -0.31 -0.00    +0.000 C 
DOCKED: ATOM      2  C   UNL     1      39.061  15.888 122.211 -0.29 -0.00    +0.000 C 
DOCKED: ENDROOT
DOCKED: BRANCH   1   3
DOCKED: ATOM      3  C   UNL     1      37.359  14.063 122.298 -0.46 -0.00    +0.000 C 
DOCKED: ATOM      4  C   UNL     1      36.398  13.489 123.052 -0.56 -0.00    +0.000 C 
DOCKED: ATOM      5  C   UNL     1      35.398  14.312 123.833 -0.54 -0.00    +0.000 C 
DOCKED: BRANCH   4   6
DOCKED: ATOM      6  C   UNL     1      36.316  12.006 123.059 -0.68 -0.00    +0.000 C 
DOCKED: ATOM      7  C   UNL     1      37.073  11.228 122.270 -0.56 -0.00    +0.000 C 
DOCKED: BRANCH   7   8
DOCKED: ATOM      8  C   UNL     1      37.002   9.752 122.271 -0.61 -0.00    +0.000 C 
DOCKED: ATOM      9  N   UNL     1      37.219   8.974 123.454 -0.54 -0.00    +0.000 N 
DOCKED: ATOM     10  O   UNL     1      37.040   7.633 123.426 -2.61 -0.00    +0.000 OA
DOCKED: ATOM     11  O   UNL     1      36.765   9.163 121.183 -2.65 -0.00    +0.000 OA
DOCKED: ATOM     12  H   UNL     1      37.498   9.416 124.289 -0.64 -0.00    +0.000 HD
DOCKED: ENDBRANCH   7   8
DOCKED: ENDBRANCH   4   6
DOCKED: ENDBRANCH   1   3
DOCKED: BRANCH   1  13
DOCKED: ATOM     13  C   UNL     1      36.985  16.053 120.840 -0.21 -0.00    +0.000 C 
DOCKED: ATOM     14  O   UNL     1      36.275  17.098 120.842 -0.20 -0.00    +0.000 OA
DOCKED: BRANCH  13  18
DOCKED: ATOM     15  C   UNL     1      37.591  14.000 117.084 -0.32 -0.00    +0.000 A 
DOCKED: ATOM     16  C   UNL     1      38.073  15.308 117.289 -0.17 -0.00    +0.000 A 
DOCKED: ATOM     17  C   UNL     1      37.872  15.965 118.505 -0.13 -0.00    +0.000 A 
DOCKED: ATOM     18  C   UNL     1      37.192  15.332 119.557 -0.20 -0.00    +0.000 A 
DOCKED: ATOM     19  C   UNL     1      36.697  14.032 119.356 -0.25 -0.00    +0.000 A 
DOCKED: ATOM     20  C   UNL     1      36.896  13.375 118.139 -0.36 -0.00    +0.000 A 
DOCKED: ATOM     21  CM  UNL     1      37.387  14.669 118.321 +0.00 -0.00    +0.000 AC
DOCKED: BRANCH  15  22
DOCKED: ATOM     22  C   UNL     1      36.789  13.387 114.757 -0.34 -0.00    +0.000 C 
DOCKED: ATOM     23  N   UNL     1      37.800  13.317 115.820 -0.43 -0.00    +0.000 N 
DOCKED: ATOM     24  C   UNL     1      39.026  12.545 115.583 -0.57 -0.00    +0.000 C 
DOCKED: ENDBRANCH  15  22
DOCKED: ENDBRANCH  13  18
DOCKED: ENDBRANCH   1  13
DOCKED: TORSDOF 6DOCKED: TER
DOCKED: ENDMDL
________________________________________________________________________________


	BEGINNING GENETIC ALGORITHM DOCKING 94 of 100
Run: 94 Seed: 2032956464 1272471826 [ Run 94 of 100 GA/GALS ]
Beginning LAMARCKIAN GENETIC ALGORITHM (LGA), with a maximum of 2500000 energy evaluations.

Final-Value: -14.517


	FINAL GENETIC ALGORITHM DOCKED STATE
	_______________________________________________


Detailed state:  trans 36.707 14.703 120.919 quatxyzw -0.230718 -0.564020 -0.397802 0.685860 center -0.963 -0.416 0.212 ntor 6 -63.6709 -5.8413 123.2384 -4.2421 -128.8794 -74.9165
State:	 36.707  14.703 120.919  -0.317 -0.775 -0.547 93.393    -63.67   -5.84  123.24   -4.24 -128.88  -74.92

DOCKED: MODEL       94
DOCKED: USER    Run = 94
DOCKED: USER    DPF = ligand_dock.biased.dpf
DOCKED: USER  
DOCKED: USER    Estimated Free Energy of Binding    =  -11.43 kcal/mol  [=(1)+(2)+(3)-(4)]
DOCKED: USER    Estimated Inhibition Constant, Ki   =    4.16 nM (nanomolar)  [Temperature = 298.15 K]
DOCKED: USER    
DOCKED: USER    (1) Final Intermolecular Energy     =  -13.22 kcal/mol
DOCKED: USER        vdW + Hbond + desolv Energy     =  -13.22 kcal/mol
DOCKED: USER        Electrostatic Energy            =   +0.00 kcal/mol
DOCKED: USER    (2) Final Total Internal Energy     =   -1.29 kcal/mol
DOCKED: USER    (3) Torsional Free Energy           =   +1.79 kcal/mol
DOCKED: USER    (4) Unbound System's Energy  [=(2)] =   -1.29 kcal/mol
DOCKED: USER    
DOCKED: USER    
DOCKED: USER    NEWDPF move ligand.dum.pdbqt
DOCKED: USER    NEWDPF about -0.963000 -0.416000 0.212000
DOCKED: USER    NEWDPF tran0 36.707152 14.703496 120.919462
DOCKED: USER    NEWDPF quaternion0 -0.230718 -0.564020 -0.397802 0.685860
DOCKED: USER    NEWDPF axisangle0 -0.317036 -0.775037 -0.546631 93.393439
DOCKED: USER    NEWDPF quat0 -0.317036 -0.775037 -0.546631 93.393439
DOCKED: USER    NEWDPF dihe0 -63.67 -5.84 123.24 -4.24 -128.88 -74.92 
DOCKED: USER  keepresnum = 1 
DOCKED: USER  
DOCKED: REMARK  Name = 
DOCKED: REMARK  10 active torsions:
DOCKED: REMARK  status: ('A' for Active; 'I' for Inactive)
DOCKED: REMARK    1  A    between atoms: C_1  and  N_2
DOCKED: REMARK    2  A    between atoms: N_2  and  C_3
DOCKED: REMARK    3  A    between atoms: N_2  and  C_22
DOCKED: REMARK    4  A    between atoms: C_6  and  C_9
DOCKED: REMARK    5  A    between atoms: C_9  and  C_10
DOCKED: REMARK    6  A    between atoms: C_10  and  C_11
DOCKED: REMARK    7  A    between atoms: C_10  and  C_20
DOCKED: REMARK    8  A    between atoms: C_12  and  C_13
DOCKED: REMARK    9  A    between atoms: C_12  and  C_19
DOCKED: REMARK   10  A    between atoms: C_14  and  C_15
DOCKED: REMARK                            x       y       z     vdW  Elec       q    Type
DOCKED: REMARK                         _______ _______ _______ _____ _____    ______ ____
DOCKED: USER                              x       y       z     vdW  Elec       q    Type
DOCKED: USER                           _______ _______ _______ _____ _____    ______ ____
DOCKED: ROOT
DOCKED: ATOM      1  C   UNL     1      37.603  15.449 122.016 -0.31 -0.00    +0.000 C 
DOCKED: ATOM      2  C   UNL     1      38.520  16.081 123.066 -0.30 -0.00    +0.000 C 
DOCKED: ENDROOT
DOCKED: BRANCH   1   3
DOCKED: ATOM      3  C   UNL     1      37.502  13.954 122.245 -0.47 -0.00    +0.000 C 
DOCKED: ATOM      4  C   UNL     1      36.611  13.356 123.064 -0.58 -0.00    +0.000 C 
DOCKED: ATOM      5  C   UNL     1      35.588  14.149 123.846 -0.56 -0.00    +0.000 C 
DOCKED: BRANCH   4   6
DOCKED: ATOM      6  C   UNL     1      36.631  11.873 123.146 -0.68 -0.00    +0.000 C 
DOCKED: ATOM      7  C   UNL     1      37.001  11.089 122.122 -0.56 -0.00    +0.000 C 
DOCKED: BRANCH   7   8
DOCKED: ATOM      8  C   UNL     1      37.028   9.613 122.192 -0.61 -0.00    +0.000 C 
DOCKED: ATOM      9  N   UNL     1      37.144   8.906 123.433 -0.58 -0.00    +0.000 N 
DOCKED: ATOM     10  O   UNL     1      37.058   7.556 123.454 -2.58 -0.00    +0.000 OA
DOCKED: ATOM     11  O   UNL     1      36.970   8.961 121.116 -2.68 -0.00    +0.000 OA
DOCKED: ATOM     12  H   UNL     1      37.285   9.404 124.271 -0.60 -0.00    +0.000 HD
DOCKED: ENDBRANCH   7   8
DOCKED: ENDBRANCH   4   6
DOCKED: ENDBRANCH   1   3
DOCKED: BRANCH   1  13
DOCKED: ATOM     13  C   UNL     1      38.131  15.746 120.627 -0.21 -0.00    +0.000 C 
DOCKED: ATOM     14  O   UNL     1      39.193  16.418 120.505 -0.14 -0.00    +0.000 OA
DOCKED: BRANCH  13  18
DOCKED: ATOM     15  C   UNL     1      36.026  14.475 117.070 -0.30 -0.00    +0.000 A 
DOCKED: ATOM     16  C   UNL     1      35.594  15.589 117.816 -0.18 -0.00    +0.000 A 
DOCKED: ATOM     17  C   UNL     1      36.280  15.993 118.965 -0.15 -0.00    +0.000 A 
DOCKED: ATOM     18  C   UNL     1      37.422  15.301 119.398 -0.20 -0.00    +0.000 A 
DOCKED: ATOM     19  C   UNL     1      37.851  14.181 118.666 -0.26 -0.00    +0.000 A 
DOCKED: ATOM     20  C   UNL     1      37.165  13.776 117.518 -0.35 -0.00    +0.000 A 
DOCKED: ATOM     21  CM  UNL     1      36.723  14.886 118.239 +0.00 -0.00    +0.000 AC
DOCKED: BRANCH  15  22
DOCKED: ATOM     22  C   UNL     1      36.051  13.664 114.667 -0.29 -0.00    +0.000 C 
DOCKED: ATOM     23  N   UNL     1      35.314  14.056 115.876 -0.29 -0.00    +0.000 N 
DOCKED: ATOM     24  C   UNL     1      33.847  14.016 115.856 -0.33 -0.00    +0.000 C 
DOCKED: ENDBRANCH  15  22
DOCKED: ENDBRANCH  13  18
DOCKED: ENDBRANCH   1  13
DOCKED: TORSDOF 6DOCKED: TER
DOCKED: ENDMDL
________________________________________________________________________________


	BEGINNING GENETIC ALGORITHM DOCKING 95 of 100
Run: 95 Seed: 1615117524 711083584 [ Run 95 of 100 GA/GALS ]
Beginning LAMARCKIAN GENETIC ALGORITHM (LGA), with a maximum of 2500000 energy evaluations.

Final-Value: -14.552


	FINAL GENETIC ALGORITHM DOCKED STATE
	_______________________________________________


Detailed state:  trans 36.126 15.023 121.831 quatxyzw -0.497538 -0.712966 -0.257495 0.421701 center -0.963 -0.416 0.212 ntor 6 40.9330 -68.2647 -180.0000 40.9193 -114.9223 -180.0000
State:	 36.126  15.023 121.831  -0.549 -0.786 -0.284 130.116     40.93  -68.26 -180.00   40.92 -114.92 -180.00

DOCKED: MODEL       95
DOCKED: USER    Run = 95
DOCKED: USER    DPF = ligand_dock.biased.dpf
DOCKED: USER  
DOCKED: USER    Estimated Free Energy of Binding    =  -11.40 kcal/mol  [=(1)+(2)+(3)-(4)]
DOCKED: USER    Estimated Inhibition Constant, Ki   =    4.40 nM (nanomolar)  [Temperature = 298.15 K]
DOCKED: USER    
DOCKED: USER    (1) Final Intermolecular Energy     =  -13.19 kcal/mol
DOCKED: USER        vdW + Hbond + desolv Energy     =  -13.19 kcal/mol
DOCKED: USER        Electrostatic Energy            =   +0.00 kcal/mol
DOCKED: USER    (2) Final Total Internal Energy     =   -1.36 kcal/mol
DOCKED: USER    (3) Torsional Free Energy           =   +1.79 kcal/mol
DOCKED: USER    (4) Unbound System's Energy  [=(2)] =   -1.36 kcal/mol
DOCKED: USER    
DOCKED: USER    
DOCKED: USER    NEWDPF move ligand.dum.pdbqt
DOCKED: USER    NEWDPF about -0.963000 -0.416000 0.212000
DOCKED: USER    NEWDPF tran0 36.126213 15.023129 121.831268
DOCKED: USER    NEWDPF quaternion0 -0.497538 -0.712966 -0.257495 0.421701
DOCKED: USER    NEWDPF axisangle0 -0.548714 -0.786300 -0.283980 130.115913
DOCKED: USER    NEWDPF quat0 -0.548714 -0.786300 -0.283980 130.115913
DOCKED: USER    NEWDPF dihe0 40.93 -68.26 -180.00 40.92 -114.92 -180.00 
DOCKED: USER  keepresnum = 1 
DOCKED: USER  
DOCKED: REMARK  Name = 
DOCKED: REMARK  10 active torsions:
DOCKED: REMARK  status: ('A' for Active; 'I' for Inactive)
DOCKED: REMARK    1  A    between atoms: C_1  and  N_2
DOCKED: REMARK    2  A    between atoms: N_2  and  C_3
DOCKED: REMARK    3  A    between atoms: N_2  and  C_22
DOCKED: REMARK    4  A    between atoms: C_6  and  C_9
DOCKED: REMARK    5  A    between atoms: C_9  and  C_10
DOCKED: REMARK    6  A    between atoms: C_10  and  C_11
DOCKED: REMARK    7  A    between atoms: C_10  and  C_20
DOCKED: REMARK    8  A    between atoms: C_12  and  C_13
DOCKED: REMARK    9  A    between atoms: C_12  and  C_19
DOCKED: REMARK   10  A    between atoms: C_14  and  C_15
DOCKED: REMARK                            x       y       z     vdW  Elec       q    Type
DOCKED: REMARK                         _______ _______ _______ _____ _____    ______ ____
DOCKED: USER                              x       y       z     vdW  Elec       q    Type
DOCKED: USER                           _______ _______ _______ _____ _____    ______ ____
DOCKED: ROOT
DOCKED: ATOM      1  C   UNL     1      37.688  15.332 121.997 -0.32 -0.00    +0.000 C 
DOCKED: ATOM      2  C   UNL     1      39.200  15.543 122.102 -0.33 -0.00    +0.000 C 
DOCKED: ENDROOT
DOCKED: BRANCH   1   3
DOCKED: ATOM      3  C   UNL     1      37.362  13.853 122.063 -0.46 -0.00    +0.000 C 
DOCKED: ATOM      4  C   UNL     1      36.403  13.307 122.840 -0.53 -0.00    +0.000 C 
DOCKED: ATOM      5  C   UNL     1      35.526  14.151 123.738 -0.53 -0.00    +0.000 C 
DOCKED: BRANCH   4   6
DOCKED: ATOM      6  C   UNL     1      36.197  11.838 122.757 -0.65 -0.00    +0.000 C 
DOCKED: ATOM      7  C   UNL     1      37.166  10.982 122.398 -0.43 -0.00    +0.000 C 
DOCKED: BRANCH   7   8
DOCKED: ATOM      8  C   UNL     1      36.972   9.520 122.315 -0.64 -0.00    +0.000 C 
DOCKED: ATOM      9  N   UNL     1      37.119   8.660 123.451 -0.64 -0.00    +0.000 N 
DOCKED: ATOM     10  O   UNL     1      36.829   7.342 123.347 -2.28 -0.00    +0.000 OA
DOCKED: ATOM     11  O   UNL     1      36.691   9.015 121.195 -2.62 -0.00    +0.000 OA
DOCKED: ATOM     12  H   UNL     1      37.430   9.028 124.310 -0.62 -0.00    +0.000 HD
DOCKED: ENDBRANCH   7   8
DOCKED: ENDBRANCH   4   6
DOCKED: ENDBRANCH   1   3
DOCKED: BRANCH   1  13
DOCKED: ATOM     13  C   UNL     1      37.173  15.938 120.707 -0.21 -0.00    +0.000 C 
DOCKED: ATOM     14  O   UNL     1      36.544  17.033 120.752 -0.19 -0.00    +0.000 OA
DOCKED: BRANCH  13  18
DOCKED: ATOM     15  C   UNL     1      37.663  13.960 116.894 -0.33 -0.00    +0.000 A 
DOCKED: ATOM     16  C   UNL     1      36.519  13.747 117.686 -0.36 -0.00    +0.000 A 
DOCKED: ATOM     17  C   UNL     1      36.369  14.389 118.918 -0.18 -0.00    +0.000 A 
DOCKED: ATOM     18  C   UNL     1      37.352  15.271 119.391 -0.20 -0.00    +0.000 A 
DOCKED: ATOM     19  C   UNL     1      38.503  15.480 118.611 -0.16 -0.00    +0.000 A 
DOCKED: ATOM     20  C   UNL     1      38.655  14.837 117.380 -0.16 -0.00    +0.000 A 
DOCKED: ATOM     21  CM  UNL     1      37.510  14.614 118.147 +0.00 -0.00    +0.000 AC
DOCKED: BRANCH  15  22
DOCKED: ATOM     22  C   UNL     1      38.942  12.374 115.382 -0.58 -0.00    +0.000 C 
DOCKED: ATOM     23  N   UNL     1      37.820  13.294 115.613 -0.44 -0.00    +0.000 N 
DOCKED: ATOM     24  C   UNL     1      36.860  13.527 114.528 -0.36 -0.00    +0.000 C 
DOCKED: ENDBRANCH  15  22
DOCKED: ENDBRANCH  13  18
DOCKED: ENDBRANCH   1  13
DOCKED: TORSDOF 6DOCKED: TER
DOCKED: ENDMDL
________________________________________________________________________________


	BEGINNING GENETIC ALGORITHM DOCKING 96 of 100
Run: 96 Seed: 438652719 993158515 [ Run 96 of 100 GA/GALS ]
Beginning LAMARCKIAN GENETIC ALGORITHM (LGA), with a maximum of 2500000 energy evaluations.

Final-Value: -14.424


	FINAL GENETIC ALGORITHM DOCKED STATE
	_______________________________________________


Detailed state:  trans 36.119 14.709 124.452 quatxyzw 0.409654 0.844231 -0.064259 0.339600 center -0.963 -0.416 0.212 ntor 6 52.9193 127.9934 157.5716 -33.4842 -170.3577 16.4935
State:	 36.119  14.709 124.452   0.436  0.898 -0.068 140.295     52.92  127.99  157.57  -33.48 -170.36   16.49

DOCKED: MODEL       96
DOCKED: USER    Run = 96
DOCKED: USER    DPF = ligand_dock.biased.dpf
DOCKED: USER  
DOCKED: USER    Estimated Free Energy of Binding    =  -11.71 kcal/mol  [=(1)+(2)+(3)-(4)]
DOCKED: USER    Estimated Inhibition Constant, Ki   =    2.63 nM (nanomolar)  [Temperature = 298.15 K]
DOCKED: USER    
DOCKED: USER    (1) Final Intermolecular Energy     =  -13.50 kcal/mol
DOCKED: USER        vdW + Hbond + desolv Energy     =  -13.50 kcal/mol
DOCKED: USER        Electrostatic Energy            =   +0.00 kcal/mol
DOCKED: USER    (2) Final Total Internal Energy     =   -0.93 kcal/mol
DOCKED: USER    (3) Torsional Free Energy           =   +1.79 kcal/mol
DOCKED: USER    (4) Unbound System's Energy  [=(2)] =   -0.93 kcal/mol
DOCKED: USER    
DOCKED: USER    
DOCKED: USER    NEWDPF move ligand.dum.pdbqt
DOCKED: USER    NEWDPF about -0.963000 -0.416000 0.212000
DOCKED: USER    NEWDPF tran0 36.118759 14.709391 124.452080
DOCKED: USER    NEWDPF quaternion0 0.409654 0.844231 -0.064259 0.339600
DOCKED: USER    NEWDPF axisangle0 0.435538 0.897574 -0.068319 140.295049
DOCKED: USER    NEWDPF quat0 0.435538 0.897574 -0.068319 140.295049
DOCKED: USER    NEWDPF dihe0 52.92 127.99 157.57 -33.48 -170.36 16.49 
DOCKED: USER  keepresnum = 1 
DOCKED: USER  
DOCKED: REMARK  Name = 
DOCKED: REMARK  10 active torsions:
DOCKED: REMARK  status: ('A' for Active; 'I' for Inactive)
DOCKED: REMARK    1  A    between atoms: C_1  and  N_2
DOCKED: REMARK    2  A    between atoms: N_2  and  C_3
DOCKED: REMARK    3  A    between atoms: N_2  and  C_22
DOCKED: REMARK    4  A    between atoms: C_6  and  C_9
DOCKED: REMARK    5  A    between atoms: C_9  and  C_10
DOCKED: REMARK    6  A    between atoms: C_10  and  C_11
DOCKED: REMARK    7  A    between atoms: C_10  and  C_20
DOCKED: REMARK    8  A    between atoms: C_12  and  C_13
DOCKED: REMARK    9  A    between atoms: C_12  and  C_19
DOCKED: REMARK   10  A    between atoms: C_14  and  C_15
DOCKED: REMARK                            x       y       z     vdW  Elec       q    Type
DOCKED: REMARK                         _______ _______ _______ _____ _____    ______ ____
DOCKED: USER                              x       y       z     vdW  Elec       q    Type
DOCKED: USER                           _______ _______ _______ _____ _____    ______ ____
DOCKED: ROOT
DOCKED: ATOM      1  C   UNL     1      36.003  15.582 123.116 -0.42 -0.00    +0.000 C 
DOCKED: ATOM      2  C   UNL     1      35.847  16.336 121.793 -0.17 -0.00    +0.000 C 
DOCKED: ENDROOT
DOCKED: BRANCH   1   3
DOCKED: ATOM      3  C   UNL     1      36.306  14.121 122.849 -0.44 -0.00    +0.000 C 
DOCKED: ATOM      4  C   UNL     1      37.362  13.668 122.140 -0.48 -0.00    +0.000 C 
DOCKED: ATOM      5  C   UNL     1      38.381  14.608 121.537 -0.37 -0.00    +0.000 C 
DOCKED: BRANCH   4   6
DOCKED: ATOM      6  C   UNL     1      37.526  12.198 122.003 -0.38 -0.00    +0.000 C 
DOCKED: ATOM      7  C   UNL     1      36.635  11.315 122.480 -0.65 -0.00    +0.000 C 
DOCKED: BRANCH   7   8
DOCKED: ATOM      8  C   UNL     1      36.786   9.851 122.347 -0.66 -0.00    +0.000 C 
DOCKED: ATOM      9  N   UNL     1      37.060   9.002 123.467 -0.57 -0.00    +0.000 N 
DOCKED: ATOM     10  O   UNL     1      37.086   7.659 123.310 -2.58 -0.00    +0.000 OA
DOCKED: ATOM     11  O   UNL     1      36.694   9.342 121.198 -2.51 -0.00    +0.000 OA
DOCKED: ATOM     12  H   UNL     1      37.229   9.398 124.354 -0.57 -0.00    +0.000 HD
DOCKED: ENDBRANCH   7   8
DOCKED: ENDBRANCH   4   6
DOCKED: ENDBRANCH   1   3
DOCKED: BRANCH   1  13
DOCKED: ATOM     13  C   UNL     1      34.739  15.726 123.941 -0.57 -0.00    +0.000 C 
DOCKED: ATOM     14  O   UNL     1      33.833  14.853 123.833 -0.70 -0.00    +0.000 OA
DOCKED: BRANCH  13  18
DOCKED: ATOM     15  C   UNL     1      34.126  19.108 126.565 -0.21 -0.00    +0.000 A 
DOCKED: ATOM     16  C   UNL     1      34.797  19.249 125.334 -0.22 -0.00    +0.000 A 
DOCKED: ATOM     17  C   UNL     1      34.992  18.151 124.493 -0.29 -0.00    +0.000 A 
DOCKED: ATOM     18  C   UNL     1      34.515  16.880 124.850 -0.42 -0.00    +0.000 A 
DOCKED: ATOM     19  C   UNL     1      33.856  16.729 126.083 -0.36 -0.00    +0.000 A 
DOCKED: ATOM     20  C   UNL     1      33.662  17.827 126.925 -0.30 -0.00    +0.000 A 
DOCKED: ATOM     21  CM  UNL     1      34.325  17.991 125.708 -0.27 -0.00    +0.000 AC
DOCKED: BRANCH  15  22
DOCKED: ATOM     22  C   UNL     1      34.705  20.392 128.675 -0.05 -0.00    +0.000 C 
DOCKED: ATOM     23  N   UNL     1      33.923  20.249 127.440 -0.11 -0.00    +0.000 N 
DOCKED: ATOM     24  C   UNL     1      32.933  21.279 127.105 -0.16 -0.00    +0.000 C 
DOCKED: ENDBRANCH  15  22
DOCKED: ENDBRANCH  13  18
DOCKED: ENDBRANCH   1  13
DOCKED: TORSDOF 6DOCKED: TER
DOCKED: ENDMDL
________________________________________________________________________________


	BEGINNING GENETIC ALGORITHM DOCKING 97 of 100
Run: 97 Seed: 231940887 1223116421 [ Run 97 of 100 GA/GALS ]
Beginning LAMARCKIAN GENETIC ALGORITHM (LGA), with a maximum of 2500000 energy evaluations.

Final-Value: -14.943


	FINAL GENETIC ALGORITHM DOCKED STATE
	_______________________________________________


Detailed state:  trans 36.220 14.725 122.074 quatxyzw -0.405631 -0.788752 -0.260444 0.381448 center -0.963 -0.416 0.212 ntor 6 -79.7966 32.9866 93.5617 41.8401 -107.2136 168.6225
State:	 36.220  14.725 122.074  -0.439 -0.853 -0.282 135.153    -79.80   32.99   93.56   41.84 -107.21  168.62

DOCKED: MODEL       97
DOCKED: USER    Run = 97
DOCKED: USER    DPF = ligand_dock.biased.dpf
DOCKED: USER  
DOCKED: USER    Estimated Free Energy of Binding    =  -11.79 kcal/mol  [=(1)+(2)+(3)-(4)]
DOCKED: USER    Estimated Inhibition Constant, Ki   =    2.29 nM (nanomolar)  [Temperature = 298.15 K]
DOCKED: USER    
DOCKED: USER    (1) Final Intermolecular Energy     =  -13.58 kcal/mol
DOCKED: USER        vdW + Hbond + desolv Energy     =  -13.58 kcal/mol
DOCKED: USER        Electrostatic Energy            =   +0.00 kcal/mol
DOCKED: USER    (2) Final Total Internal Energy     =   -1.37 kcal/mol
DOCKED: USER    (3) Torsional Free Energy           =   +1.79 kcal/mol
DOCKED: USER    (4) Unbound System's Energy  [=(2)] =   -1.37 kcal/mol
DOCKED: USER    
DOCKED: USER    
DOCKED: USER    NEWDPF move ligand.dum.pdbqt
DOCKED: USER    NEWDPF about -0.963000 -0.416000 0.212000
DOCKED: USER    NEWDPF tran0 36.219728 14.724786 122.074071
DOCKED: USER    NEWDPF quaternion0 -0.405631 -0.788752 -0.260444 0.381448
DOCKED: USER    NEWDPF axisangle0 -0.438810 -0.853267 -0.281747 135.153210
DOCKED: USER    NEWDPF quat0 -0.438810 -0.853267 -0.281747 135.153210
DOCKED: USER    NEWDPF dihe0 -79.80 32.99 93.56 41.84 -107.21 168.62 
DOCKED: USER  keepresnum = 1 
DOCKED: USER  
DOCKED: REMARK  Name = 
DOCKED: REMARK  10 active torsions:
DOCKED: REMARK  status: ('A' for Active; 'I' for Inactive)
DOCKED: REMARK    1  A    between atoms: C_1  and  N_2
DOCKED: REMARK    2  A    between atoms: N_2  and  C_3
DOCKED: REMARK    3  A    between atoms: N_2  and  C_22
DOCKED: REMARK    4  A    between atoms: C_6  and  C_9
DOCKED: REMARK    5  A    between atoms: C_9  and  C_10
DOCKED: REMARK    6  A    between atoms: C_10  and  C_11
DOCKED: REMARK    7  A    between atoms: C_10  and  C_20
DOCKED: REMARK    8  A    between atoms: C_12  and  C_13
DOCKED: REMARK    9  A    between atoms: C_12  and  C_19
DOCKED: REMARK   10  A    between atoms: C_14  and  C_15
DOCKED: REMARK                            x       y       z     vdW  Elec       q    Type
DOCKED: REMARK                         _______ _______ _______ _____ _____    ______ ____
DOCKED: USER                              x       y       z     vdW  Elec       q    Type
DOCKED: USER                           _______ _______ _______ _____ _____    ______ ____
DOCKED: ROOT
DOCKED: ATOM      1  C   UNL     1      37.675  15.390 122.096 -0.32 -0.00    +0.000 C 
DOCKED: ATOM      2  C   UNL     1      39.102  15.943 122.069 -0.28 -0.00    +0.000 C 
DOCKED: ENDROOT
DOCKED: BRANCH   1   3
DOCKED: ATOM      3  C   UNL     1      37.704  13.885 122.281 -0.48 -0.00    +0.000 C 
DOCKED: ATOM      4  C   UNL     1      36.935  13.199 123.153 -0.59 -0.00    +0.000 C 
DOCKED: ATOM      5  C   UNL     1      35.928  13.891 124.045 -0.50 -0.00    +0.000 C 
DOCKED: BRANCH   4   6
DOCKED: ATOM      6  C   UNL     1      37.069  11.720 123.181 -0.66 -0.00    +0.000 C 
DOCKED: ATOM      7  C   UNL     1      36.831  10.943 122.113 -0.60 -0.00    +0.000 C 
DOCKED: BRANCH   7   8
DOCKED: ATOM      8  C   UNL     1      36.965   9.472 122.130 -0.64 -0.00    +0.000 C 
DOCKED: ATOM      9  N   UNL     1      37.046   8.722 123.347 -0.65 -0.00    +0.000 N 
DOCKED: ATOM     10  O   UNL     1      37.063   7.369 123.310 -2.40 -0.00    +0.000 OA
DOCKED: ATOM     11  O   UNL     1      37.033   8.865 121.028 -2.70 -0.00    +0.000 OA
DOCKED: ATOM     12  H   UNL     1      37.089   9.191 124.212 -0.58 -0.00    +0.000 HD
DOCKED: ENDBRANCH   7   8
DOCKED: ENDBRANCH   4   6
DOCKED: ENDBRANCH   1   3
DOCKED: BRANCH   1  13
DOCKED: ATOM     13  C   UNL     1      36.955  15.759 120.815 -0.21 -0.00    +0.000 C 
DOCKED: ATOM     14  O   UNL     1      35.951  16.523 120.874 -0.23 -0.00    +0.000 OA
DOCKED: BRANCH  13  18
DOCKED: ATOM     15  C   UNL     1      38.140  14.162 116.976 -0.28 -0.00    +0.000 A 
DOCKED: ATOM     16  C   UNL     1      37.066  13.607 117.698 -0.36 -0.00    +0.000 A 
DOCKED: ATOM     17  C   UNL     1      36.690  14.129 118.939 -0.31 -0.00    +0.000 A 
DOCKED: ATOM     18  C   UNL     1      37.370  15.226 119.491 -0.21 -0.00    +0.000 A 
DOCKED: ATOM     19  C   UNL     1      38.451  15.777 118.781 -0.14 -0.00    +0.000 A 
DOCKED: ATOM     20  C   UNL     1      38.828  15.255 117.541 -0.16 -0.00    +0.000 A 
DOCKED: ATOM     21  CM  UNL     1      37.757  14.692 118.238 +0.00 -0.00    +0.000 AC
DOCKED: BRANCH  15  22
DOCKED: ATOM     22  C   UNL     1      38.517  14.467 114.486 -0.30 -0.00    +0.000 C 
DOCKED: ATOM     23  N   UNL     1      38.531  13.621 115.686 -0.43 -0.00    +0.000 N 
DOCKED: ATOM     24  C   UNL     1      38.946  12.219 115.560 -0.55 -0.00    +0.000 C 
DOCKED: ENDBRANCH  15  22
DOCKED: ENDBRANCH  13  18
DOCKED: ENDBRANCH   1  13
DOCKED: TORSDOF 6DOCKED: TER
DOCKED: ENDMDL
________________________________________________________________________________


	BEGINNING GENETIC ALGORITHM DOCKING 98 of 100
Run: 98 Seed: 653934937 1233764077 [ Run 98 of 100 GA/GALS ]
Beginning LAMARCKIAN GENETIC ALGORITHM (LGA), with a maximum of 2500000 energy evaluations.

Final-Value: -13.713


	FINAL GENETIC ALGORITHM DOCKED STATE
	_______________________________________________


Detailed state:  trans 38.554 15.297 121.429 quatxyzw -0.167125 -0.270475 0.452425 -0.833201 center -0.963 -0.416 0.212 ntor 6 -24.6249 -146.7482 -70.4672 -139.2799 140.1753 -60.0314
State:	 38.554  15.297 121.429  -0.302 -0.489  0.818 -67.142    -24.62 -146.75  -70.47 -139.28  140.18  -60.03

DOCKED: MODEL       98
DOCKED: USER    Run = 98
DOCKED: USER    DPF = ligand_dock.biased.dpf
DOCKED: USER  
DOCKED: USER    Estimated Free Energy of Binding    =  -11.04 kcal/mol  [=(1)+(2)+(3)-(4)]
DOCKED: USER    Estimated Inhibition Constant, Ki   =    8.05 nM (nanomolar)  [Temperature = 298.15 K]
DOCKED: USER    
DOCKED: USER    (1) Final Intermolecular Energy     =  -12.83 kcal/mol
DOCKED: USER        vdW + Hbond + desolv Energy     =  -12.83 kcal/mol
DOCKED: USER        Electrostatic Energy            =   +0.00 kcal/mol
DOCKED: USER    (2) Final Total Internal Energy     =   -0.88 kcal/mol
DOCKED: USER    (3) Torsional Free Energy           =   +1.79 kcal/mol
DOCKED: USER    (4) Unbound System's Energy  [=(2)] =   -0.88 kcal/mol
DOCKED: USER    
DOCKED: USER    
DOCKED: USER    NEWDPF move ligand.dum.pdbqt
DOCKED: USER    NEWDPF about -0.963000 -0.416000 0.212000
DOCKED: USER    NEWDPF tran0 38.553524 15.297214 121.429308
DOCKED: USER    NEWDPF quaternion0 -0.167125 -0.270475 0.452425 -0.833201
DOCKED: USER    NEWDPF axisangle0 -0.302232 -0.489130 0.818173 -67.142023
DOCKED: USER    NEWDPF quat0 -0.302232 -0.489130 0.818173 -67.142023
DOCKED: USER    NEWDPF dihe0 -24.62 -146.75 -70.47 -139.28 140.18 -60.03 
DOCKED: USER  keepresnum = 1 
DOCKED: USER  
DOCKED: REMARK  Name = 
DOCKED: REMARK  10 active torsions:
DOCKED: REMARK  status: ('A' for Active; 'I' for Inactive)
DOCKED: REMARK    1  A    between atoms: C_1  and  N_2
DOCKED: REMARK    2  A    between atoms: N_2  and  C_3
DOCKED: REMARK    3  A    between atoms: N_2  and  C_22
DOCKED: REMARK    4  A    between atoms: C_6  and  C_9
DOCKED: REMARK    5  A    between atoms: C_9  and  C_10
DOCKED: REMARK    6  A    between atoms: C_10  and  C_11
DOCKED: REMARK    7  A    between atoms: C_10  and  C_20
DOCKED: REMARK    8  A    between atoms: C_12  and  C_13
DOCKED: REMARK    9  A    between atoms: C_12  and  C_19
DOCKED: REMARK   10  A    between atoms: C_14  and  C_15
DOCKED: REMARK                            x       y       z     vdW  Elec       q    Type
DOCKED: REMARK                         _______ _______ _______ _____ _____    ______ ____
DOCKED: USER                              x       y       z     vdW  Elec       q    Type
DOCKED: USER                           _______ _______ _______ _____ _____    ______ ____
DOCKED: ROOT
DOCKED: ATOM      1  C   UNL     1      37.134  15.878 121.885 -0.26 -0.00    +0.000 C 
DOCKED: ATOM      2  C   UNL     1      35.761  16.347 122.374 -0.29 -0.00    +0.000 C 
DOCKED: ENDROOT
DOCKED: BRANCH   1   3
DOCKED: ATOM      3  C   UNL     1      37.115  14.382 121.640 -0.35 -0.00    +0.000 C 
DOCKED: ATOM      4  C   UNL     1      36.620  13.465 122.497 -0.48 -0.00    +0.000 C 
DOCKED: ATOM      5  C   UNL     1      36.006  13.860 123.822 -0.57 -0.00    +0.000 C 
DOCKED: BRANCH   4   6
DOCKED: ATOM      6  C   UNL     1      36.652  12.039 122.082 -0.59 -0.00    +0.000 C 
DOCKED: ATOM      7  C   UNL     1      37.028  11.046 122.903 -0.62 -0.00    +0.000 C 
DOCKED: BRANCH   7   8
DOCKED: ATOM      8  C   UNL     1      37.061   9.625 122.501 -0.60 -0.00    +0.000 C 
DOCKED: ATOM      9  N   UNL     1      37.143   8.559 123.455 -0.65 -0.00    +0.000 N 
DOCKED: ATOM     10  O   UNL     1      37.065   7.272 123.043 -2.22 -0.00    +0.000 OA
DOCKED: ATOM     11  O   UNL     1      37.039   9.349 121.272 -2.55 -0.00    +0.000 OA
DOCKED: ATOM     12  H   UNL     1      37.257   8.763 124.412 -0.55 -0.00    +0.000 HD
DOCKED: ENDBRANCH   7   8
DOCKED: ENDBRANCH   4   6
DOCKED: ENDBRANCH   1   3
DOCKED: BRANCH   1  13
DOCKED: ATOM     13  C   UNL     1      38.195  16.242 122.905 -0.29 -0.00    +0.000 C 
DOCKED: ATOM     14  O   UNL     1      37.837  16.569 124.071 -0.28 -0.00    +0.000 OA
DOCKED: BRANCH  13  18
DOCKED: ATOM     15  C   UNL     1      42.400  16.255 121.899 -0.32 -0.00    +0.000 A 
DOCKED: ATOM     16  C   UNL     1      41.447  15.657 121.051 -0.18 -0.00    +0.000 A 
DOCKED: ATOM     17  C   UNL     1      40.090  15.656 121.384 -0.25 -0.00    +0.000 A 
DOCKED: ATOM     18  C   UNL     1      39.643  16.260 122.569 -0.25 -0.00    +0.000 A 
DOCKED: ATOM     19  C   UNL     1      40.589  16.848 123.426 -0.25 -0.00    +0.000 A 
DOCKED: ATOM     20  C   UNL     1      41.946  16.848 123.095 -0.36 -0.00    +0.000 A 
DOCKED: ATOM     21  CM  UNL     1      41.019  16.254 122.237 +0.00 -0.00    +0.000 AC
DOCKED: BRANCH  15  22
DOCKED: ATOM     22  C   UNL     1      44.785  16.959 122.397 -0.32 -0.00    +0.000 C 
DOCKED: ATOM     23  N   UNL     1      43.810  16.257 121.553 -0.29 -0.00    +0.000 N 
DOCKED: ATOM     24  C   UNL     1      44.285  15.557 120.354 -0.30 +0.00    +0.000 C 
DOCKED: ENDBRANCH  15  22
DOCKED: ENDBRANCH  13  18
DOCKED: ENDBRANCH   1  13
DOCKED: TORSDOF 6DOCKED: TER
DOCKED: ENDMDL
________________________________________________________________________________


	BEGINNING GENETIC ALGORITHM DOCKING 99 of 100
Run: 99 Seed: 1376897132 717243065 [ Run 99 of 100 GA/GALS ]
Beginning LAMARCKIAN GENETIC ALGORITHM (LGA), with a maximum of 2500000 energy evaluations.

Final-Value: -14.944


	FINAL GENETIC ALGORITHM DOCKED STATE
	_______________________________________________


Detailed state:  trans 36.816 14.958 123.487 quatxyzw 0.532864 0.837251 0.112235 0.049709 center -0.963 -0.416 0.212 ntor 6 -176.6805 161.4623 -159.5158 -145.1333 -111.3513 -37.7239
State:	 36.816  14.958 123.487   0.534  0.838  0.112 174.301   -176.68  161.46 -159.52 -145.13 -111.35  -37.72

DOCKED: MODEL       99
DOCKED: USER    Run = 99
DOCKED: USER    DPF = ligand_dock.biased.dpf
DOCKED: USER  
DOCKED: USER    Estimated Free Energy of Binding    =  -12.22 kcal/mol  [=(1)+(2)+(3)-(4)]
DOCKED: USER    Estimated Inhibition Constant, Ki   =    1.11 nM (nanomolar)  [Temperature = 298.15 K]
DOCKED: USER    
DOCKED: USER    (1) Final Intermolecular Energy     =  -14.01 kcal/mol
DOCKED: USER        vdW + Hbond + desolv Energy     =  -14.01 kcal/mol
DOCKED: USER        Electrostatic Energy            =   +0.00 kcal/mol
DOCKED: USER    (2) Final Total Internal Energy     =   -0.94 kcal/mol
DOCKED: USER    (3) Torsional Free Energy           =   +1.79 kcal/mol
DOCKED: USER    (4) Unbound System's Energy  [=(2)] =   -0.94 kcal/mol
DOCKED: USER    
DOCKED: USER    
DOCKED: USER    NEWDPF move ligand.dum.pdbqt
DOCKED: USER    NEWDPF about -0.963000 -0.416000 0.212000
DOCKED: USER    NEWDPF tran0 36.815893 14.957951 123.487407
DOCKED: USER    NEWDPF quaternion0 0.532864 0.837251 0.112235 0.049709
DOCKED: USER    NEWDPF axisangle0 0.533523 0.838287 0.112374 174.301471
DOCKED: USER    NEWDPF quat0 0.533523 0.838287 0.112374 174.301471
DOCKED: USER    NEWDPF dihe0 -176.68 161.46 -159.52 -145.13 -111.35 -37.72 
DOCKED: USER  keepresnum = 1 
DOCKED: USER  
DOCKED: REMARK  Name = 
DOCKED: REMARK  10 active torsions:
DOCKED: REMARK  status: ('A' for Active; 'I' for Inactive)
DOCKED: REMARK    1  A    between atoms: C_1  and  N_2
DOCKED: REMARK    2  A    between atoms: N_2  and  C_3
DOCKED: REMARK    3  A    between atoms: N_2  and  C_22
DOCKED: REMARK    4  A    between atoms: C_6  and  C_9
DOCKED: REMARK    5  A    between atoms: C_9  and  C_10
DOCKED: REMARK    6  A    between atoms: C_10  and  C_11
DOCKED: REMARK    7  A    between atoms: C_10  and  C_20
DOCKED: REMARK    8  A    between atoms: C_12  and  C_13
DOCKED: REMARK    9  A    between atoms: C_12  and  C_19
DOCKED: REMARK   10  A    between atoms: C_14  and  C_15
DOCKED: REMARK                            x       y       z     vdW  Elec       q    Type
DOCKED: REMARK                         _______ _______ _______ _____ _____    ______ ____
DOCKED: USER                              x       y       z     vdW  Elec       q    Type
DOCKED: USER                           _______ _______ _______ _____ _____    ______ ____
DOCKED: ROOT
DOCKED: ATOM      1  C   UNL     1      37.779  15.665 122.423 -0.32 -0.00    +0.000 C 
DOCKED: ATOM      2  C   UNL     1      38.671  16.272 121.337 -0.19 -0.00    +0.000 C 
DOCKED: ENDROOT
DOCKED: BRANCH   1   3
DOCKED: ATOM      3  C   UNL     1      37.749  14.155 122.289 -0.46 -0.00    +0.000 C 
DOCKED: ATOM      4  C   UNL     1      37.437  13.486 121.159 -0.45 -0.00    +0.000 C 
DOCKED: ATOM      5  C   UNL     1      37.088  14.206 119.875 -0.32 -0.00    +0.000 C 
DOCKED: BRANCH   4   6
DOCKED: ATOM      6  C   UNL     1      37.489  12.002 121.196 -0.46 -0.00    +0.000 C 
DOCKED: ATOM      7  C   UNL     1      36.940  11.275 122.181 -0.59 -0.00    +0.000 C 
DOCKED: BRANCH   7   8
DOCKED: ATOM      8  C   UNL     1      36.984   9.798 122.225 -0.61 -0.00    +0.000 C 
DOCKED: ATOM      9  N   UNL     1      37.122   9.071 123.451 -0.56 -0.00    +0.000 N 
DOCKED: ATOM     10  O   UNL     1      37.051   7.720 123.450 -2.69 -0.00    +0.000 OA
DOCKED: ATOM     11  O   UNL     1      36.921   9.164 121.138 -2.69 -0.00    +0.000 OA
DOCKED: ATOM     12  H   UNL     1      37.267   9.556 124.297 -0.60 -0.00    +0.000 HD
DOCKED: ENDBRANCH   7   8
DOCKED: ENDBRANCH   4   6
DOCKED: ENDBRANCH   1   3
DOCKED: BRANCH   1  13
DOCKED: ATOM     13  C   UNL     1      36.380  16.241 122.321 -0.29 -0.00    +0.000 C 
DOCKED: ATOM     14  O   UNL     1      35.890  16.461 121.177 -0.24 -0.00    +0.000 OA
DOCKED: BRANCH  13  18
DOCKED: ATOM     15  C   UNL     1      34.074  17.291 125.823 -0.37 -0.00    +0.000 A 
DOCKED: ATOM     16  C   UNL     1      34.852  18.250 125.146 -0.29 -0.00    +0.000 A 
DOCKED: ATOM     17  C   UNL     1      35.596  17.902 124.016 -0.27 -0.00    +0.000 A 
DOCKED: ATOM     18  C   UNL     1      35.577  16.588 123.522 -0.35 -0.00    +0.000 A 
DOCKED: ATOM     19  C   UNL     1      34.812  15.623 124.199 -0.52 -0.00    +0.000 A 
DOCKED: ATOM     20  C   UNL     1      34.069  15.970 125.331 -0.45 -0.00    +0.000 A 
DOCKED: ATOM     21  CM  UNL     1      34.830  16.938 124.673 -0.28 -0.00    +0.000 AC
DOCKED: BRANCH  15  22
DOCKED: ATOM     22  C   UNL     1      32.879  19.042 127.217 -0.25 -0.00    +0.000 C 
DOCKED: ATOM     23  N   UNL     1      33.300  17.652 126.998 -0.34 -0.00    +0.000 N 
DOCKED: ATOM     24  C   UNL     1      32.927  16.634 127.987 -0.45 -0.00    +0.000 C 
DOCKED: ENDBRANCH  15  22
DOCKED: ENDBRANCH  13  18
DOCKED: ENDBRANCH   1  13
DOCKED: TORSDOF 6DOCKED: TER
DOCKED: ENDMDL
________________________________________________________________________________


	BEGINNING GENETIC ALGORITHM DOCKING 100 of 100
Run: 100 Seed: 1376161191 1007967083 [ Run 100 of 100 GA/GALS ]
Beginning LAMARCKIAN GENETIC ALGORITHM (LGA), with a maximum of 2500000 energy evaluations.

Final-Value: -14.634


	FINAL GENETIC ALGORITHM DOCKED STATE
	_______________________________________________


Detailed state:  trans 35.935 15.076 122.112 quatxyzw 0.472964 0.761265 0.229376 -0.379693 center -0.963 -0.416 0.212 ntor 6 -63.6820 -39.3673 150.7366 46.2474 176.0085 174.9609
State:	 35.935  15.076 122.112   0.511  0.823  0.248 -135.371    -63.68  -39.37  150.74   46.25  176.01  174.96

DOCKED: MODEL      100
DOCKED: USER    Run = 100
DOCKED: USER    DPF = ligand_dock.biased.dpf
DOCKED: USER  
DOCKED: USER    Estimated Free Energy of Binding    =  -11.81 kcal/mol  [=(1)+(2)+(3)-(4)]
DOCKED: USER    Estimated Inhibition Constant, Ki   =    2.20 nM (nanomolar)  [Temperature = 298.15 K]
DOCKED: USER    
DOCKED: USER    (1) Final Intermolecular Energy     =  -13.60 kcal/mol
DOCKED: USER        vdW + Hbond + desolv Energy     =  -13.60 kcal/mol
DOCKED: USER        Electrostatic Energy            =   +0.00 kcal/mol
DOCKED: USER    (2) Final Total Internal Energy     =   -1.03 kcal/mol
DOCKED: USER    (3) Torsional Free Energy           =   +1.79 kcal/mol
DOCKED: USER    (4) Unbound System's Energy  [=(2)] =   -1.03 kcal/mol
DOCKED: USER    
DOCKED: USER    
DOCKED: USER    NEWDPF move ligand.dum.pdbqt
DOCKED: USER    NEWDPF about -0.963000 -0.416000 0.212000
DOCKED: USER    NEWDPF tran0 35.935141 15.075675 122.112129
DOCKED: USER    NEWDPF quaternion0 0.472964 0.761265 0.229376 -0.379693
DOCKED: USER    NEWDPF axisangle0 0.511250 0.822889 0.247944 -135.370698
DOCKED: USER    NEWDPF quat0 0.511250 0.822889 0.247944 -135.370698
DOCKED: USER    NEWDPF dihe0 -63.68 -39.37 150.74 46.25 176.01 174.96 
DOCKED: USER  keepresnum = 1 
DOCKED: USER  
DOCKED: REMARK  Name = 
DOCKED: REMARK  10 active torsions:
DOCKED: REMARK  status: ('A' for Active; 'I' for Inactive)
DOCKED: REMARK    1  A    between atoms: C_1  and  N_2
DOCKED: REMARK    2  A    between atoms: N_2  and  C_3
DOCKED: REMARK    3  A    between atoms: N_2  and  C_22
DOCKED: REMARK    4  A    between atoms: C_6  and  C_9
DOCKED: REMARK    5  A    between atoms: C_9  and  C_10
DOCKED: REMARK    6  A    between atoms: C_10  and  C_11
DOCKED: REMARK    7  A    between atoms: C_10  and  C_20
DOCKED: REMARK    8  A    between atoms: C_12  and  C_13
DOCKED: REMARK    9  A    between atoms: C_12  and  C_19
DOCKED: REMARK   10  A    between atoms: C_14  and  C_15
DOCKED: REMARK                            x       y       z     vdW  Elec       q    Type
DOCKED: REMARK                         _______ _______ _______ _____ _____    ______ ____
DOCKED: USER                              x       y       z     vdW  Elec       q    Type
DOCKED: USER                           _______ _______ _______ _____ _____    ______ ____
DOCKED: ROOT
DOCKED: ATOM      1  C   UNL     1      37.474  15.513 122.081 -0.31 -0.00    +0.000 C 
DOCKED: ATOM      2  C   UNL     1      38.966  15.847 122.000 -0.28 -0.00    +0.000 C 
DOCKED: ENDROOT
DOCKED: BRANCH   1   3
DOCKED: ATOM      3  C   UNL     1      37.283  14.018 122.243 -0.46 -0.00    +0.000 C 
DOCKED: ATOM      4  C   UNL     1      36.393  13.439 123.076 -0.57 -0.00    +0.000 C 
DOCKED: ATOM      5  C   UNL     1      35.465  14.256 123.946 -0.51 -0.00    +0.000 C 
DOCKED: BRANCH   4   6
DOCKED: ATOM      6  C   UNL     1      36.316  11.955 123.085 -0.68 -0.00    +0.000 C 
DOCKED: ATOM      7  C   UNL     1      37.047  11.180 122.270 -0.57 -0.00    +0.000 C 
DOCKED: BRANCH   7   8
DOCKED: ATOM      8  C   UNL     1      36.980   9.704 122.272 -0.62 -0.00    +0.000 C 
DOCKED: ATOM      9  N   UNL     1      37.234   8.926 123.447 -0.55 -0.00    +0.000 N 
DOCKED: ATOM     10  O   UNL     1      37.058   7.584 123.424 -2.58 -0.00    +0.000 OA
DOCKED: ATOM     11  O   UNL     1      36.713   9.115 121.191 -2.63 -0.00    +0.000 OA
DOCKED: ATOM     12  H   UNL     1      37.536   9.368 124.274 -0.64 -0.00    +0.000 HD
DOCKED: ENDBRANCH   7   8
DOCKED: ENDBRANCH   4   6
DOCKED: ENDBRANCH   1   3
DOCKED: BRANCH   1  13
DOCKED: ATOM     13  C   UNL     1      36.767  16.014 120.837 -0.20 -0.00    +0.000 C 
DOCKED: ATOM     14  O   UNL     1      35.983  17.000 120.933 -0.23 -0.00    +0.000 OA
DOCKED: BRANCH  13  18
DOCKED: ATOM     15  C   UNL     1      37.298  14.087 117.004 -0.32 -0.00    +0.000 A 
DOCKED: ATOM     16  C   UNL     1      37.550  13.402 118.208 -0.33 -0.00    +0.000 A 
DOCKED: ATOM     17  C   UNL     1      37.378  14.032 119.442 -0.33 -0.00    +0.000 A 
DOCKED: ATOM     18  C   UNL     1      36.938  15.363 119.512 -0.19 -0.00    +0.000 A 
DOCKED: ATOM     19  C   UNL     1      36.696  16.058 118.315 -0.15 -0.00    +0.000 A 
DOCKED: ATOM     20  C   UNL     1      36.870  15.428 117.079 -0.17 -0.00    +0.000 A 
DOCKED: ATOM     21  CM  UNL     1      37.122  14.728 118.260 +0.00 -0.00    +0.000 AC
DOCKED: BRANCH  15  22
DOCKED: ATOM     22  C   UNL     1      36.485  13.603 114.650 -0.32 -0.00    +0.000 C 
DOCKED: ATOM     23  N   UNL     1      37.477  13.433 115.720 -0.40 -0.00    +0.000 N 
DOCKED: ATOM     24  C   UNL     1      38.652  12.590 115.470 -0.57 -0.00    +0.000 C 
DOCKED: ENDBRANCH  15  22
DOCKED: ENDBRANCH  13  18
DOCKED: ENDBRANCH   1  13
DOCKED: TORSDOF 6DOCKED: TER
DOCKED: ENDMDL
________________________________________________________________________________

DPF> analysis                             # perform a ranked cluster analysis


		CLUSTER ANALYSIS OF CONFORMATIONS
		_________________________________

Number of conformations = 100

RMSD cluster analysis will be performed using the ligand atoms only (24 / 24 total atoms).

Outputting structurally similar clusters, ranked in order of increasing energy.


________________________________________________________________________________

Number of distinct conformational clusters found = 8,  out of 100 runs,
Using an rmsd-tolerance of 2.0 A


	CLUSTERING HISTOGRAM
	____________________

________________________________________________________________________________
     |           |     |           |     |                                    
Clus | Lowest    | Run | Mean      | Num | Histogram                          
-ter | Binding   |     | Binding   | in  |                                    
Rank | Energy    |     | Energy    | Clus|    5    10   15   20   25   30   35
_____|___________|_____|___________|_____|____:____|____:____|____:____|____:___
   1 |    -12.24 |  47 |    -11.96 |  29 |#############################
   2 |    -12.09 |   2 |    -11.68 |  38 |######################################
   3 |    -11.90 |  77 |    -11.30 |   3 |###
   4 |    -11.88 |  42 |    -11.44 |  23 |#######################
   5 |    -11.59 |  13 |    -11.42 |   3 |###
   6 |    -11.24 |  57 |    -11.24 |   1 |#
   7 |    -10.97 |  55 |    -10.89 |   2 |##
   8 |    -10.77 |  72 |    -10.77 |   1 |#
_____|___________|_____|___________|_____|______________________________________


Number of multi-member conformational clusters found = 6, out of 100 runs.

	RMSD TABLE
	__________

_____________________________________________________________________
     |      |      |           |         |                 |
Rank | Sub- | Run  | Binding   | Cluster | Reference       | Grep
     | Rank |      | Energy    | RMSD    | RMSD            | Pattern
_____|______|______|___________|_________|_________________|___________
   1      1     47      -12.24      0.00    127.80           RANKING
   1      2      6      -12.24      0.14    127.81           RANKING
   1      3     74      -12.24      0.20    127.81           RANKING
   1      4     76      -12.24      0.22    127.72           RANKING
   1      5     12      -12.22      0.25    127.73           RANKING
   1      6     99      -12.22      0.19    127.81           RANKING
   1      7     61      -12.21      0.14    127.89           RANKING
   1      8      1      -12.20      0.16    127.85           RANKING
   1      9     63      -12.17      0.17    127.83           RANKING
   1     10      3      -12.17      1.79    128.64           RANKING
   1     11     56      -12.15      0.22    127.70           RANKING
   1     12     51      -12.12      0.19    127.73           RANKING
   1     13     27      -12.12      0.43    127.49           RANKING
   1     14     15      -12.11      0.19    127.83           RANKING
   1     15     26      -12.10      0.52    127.46           RANKING
   1     16     81      -12.07      0.47    128.11           RANKING
   1     17     59      -12.05      0.71    128.27           RANKING
   1     18     54      -11.98      0.68    128.21           RANKING
   1     19     92      -11.94      1.57    128.23           RANKING
   1     20     50      -11.90      1.57    128.27           RANKING
   1     21     44      -11.87      1.59    128.27           RANKING
   1     22     90      -11.84      0.59    128.10           RANKING
   1     23     69      -11.83      1.51    128.39           RANKING
   1     24     19      -11.80      1.03    128.16           RANKING
   1     25     96      -11.71      1.57    128.49           RANKING
   1     26     14      -11.70      1.11    127.59           RANKING
   1     27     31      -11.38      1.07    127.86           RANKING
   1     28     10      -11.09      0.98    128.04           RANKING
   1     29     86      -11.07      0.66    127.45           RANKING
   2      1      2      -12.09      0.00    124.98           RANKING
   2      2     65      -12.05      0.44    125.22           RANKING
   2      3     73      -12.05      0.28    125.15           RANKING
   2      4     43      -12.04      0.46    125.25           RANKING
   2      5     36      -12.03      0.50    125.26           RANKING
   2      6     91      -12.02      0.27    124.91           RANKING
   2      7     88      -12.00      0.41    125.20           RANKING
   2      8     16      -12.00      0.26    125.08           RANKING
   2      9     29      -11.98      0.31    124.96           RANKING
   2     10     75      -11.97      0.45    124.89           RANKING
   2     11     35      -11.93      0.54    124.77           RANKING
   2     12      7      -11.93      0.46    124.82           RANKING
   2     13     93      -11.84      0.38    125.06           RANKING
   2     14     33      -11.82      0.35    124.99           RANKING
   2     15      4      -11.82      0.45    125.14           RANKING
   2     16    100      -11.81      0.43    124.99           RANKING
   2     17     85      -11.81      0.49    124.88           RANKING
   2     18      5      -11.81      0.35    125.12           RANKING
   2     19     97      -11.79      0.63    125.07           RANKING
   2     20     34      -11.77      0.41    125.07           RANKING
   2     21     49      -11.74      0.58    124.77           RANKING
   2     22     71      -11.72      0.48    124.85           RANKING
   2     23     32      -11.70      0.55    125.15           RANKING
   2     24     68      -11.69      1.07    125.12           RANKING
   2     25     53      -11.50      1.03    124.97           RANKING
   2     26     66      -11.50      1.55    124.94           RANKING
   2     27     94      -11.43      1.36    124.95           RANKING
   2     28     89      -11.43      0.53    125.04           RANKING
   2     29     39      -11.42      0.90    125.11           RANKING
   2     30     84      -11.42      1.54    125.01           RANKING
   2     31     95      -11.40      0.57    124.94           RANKING
   2     32     46      -11.39      1.00    125.58           RANKING
   2     33     62      -11.36      0.74    125.25           RANKING
   2     34     25      -11.36      1.19    125.08           RANKING
   2     35     23      -11.29      0.63    125.01           RANKING
   2     36     30      -11.27      1.02    125.55           RANKING
   2     37     60      -11.16      1.98    124.44           RANKING
   2     38     21      -10.47      1.00    124.79           RANKING
   3      1     77      -11.90      0.00    128.66           RANKING
   3      2     87      -11.02      1.73    128.21           RANKING
   3      3     80      -10.98      1.43    128.28           RANKING
   4      1     42      -11.88      0.00    127.95           RANKING
   4      2     48      -11.83      0.15    127.92           RANKING
   4      3     78      -11.78      0.49    127.91           RANKING
   4      4     28      -11.76      0.64    127.77           RANKING
   4      5     38      -11.66      0.61    127.72           RANKING
   4      6     24      -11.57      1.09    127.35           RANKING
   4      7     67      -11.53      1.02    127.49           RANKING
   4      8     82      -11.52      1.36    127.64           RANKING
   4      9     20      -11.50      0.82    127.54           RANKING
   4     10     37      -11.48      0.73    127.71           RANKING
   4     11     83      -11.39      1.17    127.11           RANKING
   4     12     52      -11.39      0.85    127.46           RANKING
   4     13     17      -11.36      1.30    127.00           RANKING
   4     14      9      -11.33      1.32    127.13           RANKING
   4     15     40      -11.33      1.01    127.43           RANKING
   4     16      8      -11.32      1.37    127.01           RANKING
   4     17     41      -11.29      1.33    127.15           RANKING
   4     18     18      -11.27      1.41    127.03           RANKING
   4     19     11      -11.27      1.35    127.16           RANKING
   4     20     45      -11.25      1.28    127.18           RANKING
   4     21     79      -11.21      1.42    127.03           RANKING
   4     22     58      -11.07      1.67    126.98           RANKING
   4     23     98      -11.04      0.84    127.65           RANKING
   5      1     13      -11.59      0.00    125.99           RANKING
   5      2     64      -11.39      0.29    125.85           RANKING
   5      3     70      -11.26      0.31    125.83           RANKING
   6      1     57      -11.24      0.00    126.67           RANKING
   7      1     55      -10.97      0.00    122.69           RANKING
   7      2     22      -10.82      0.84    123.14           RANKING
   8      1     72      -10.77      0.00    128.02           RANKING
_______________________________________________________________________



	INFORMATION ENTROPY ANALYSIS FOR THIS CLUSTERING
	________________________________________________


Information entropy for this clustering = 0.31  (rmstol = 2.00 Angstrom)

_______________________________________________________________________


	STATISTICAL MECHANICAL ANALYSIS
	_______________________________


Partition function, Q =   101.99            at Temperature, T = 298.15 K
Free energy,        A ~ -2740.13 kcal/mol   at Temperature, T = 298.15 K
Internal energy,    U =   -11.66 kcal/mol   at Temperature, T = 298.15 K
Entropy,            S =     9.15 kcal/mol/K at Temperature, T = 298.15 K

_______________________________________________________________________


	LOWEST ENERGY DOCKED CONFORMATION from EACH CLUSTER
	___________________________________________________



Keeping original residue number (specified in the input PDBQ file) for outputting.

MODEL       47
USER    Run = 47
USER    Cluster Rank = 1
USER    Number of conformations in this cluster = 29
USER  
USER    RMSD from reference structure       = 127.798 A
USER  
USER    Estimated Free Energy of Binding    =  -12.24 kcal/mol  [=(1)+(2)+(3)-(4)]
USER    Estimated Inhibition Constant, Ki   =    1.06 nM (nanomolar)  [Temperature = 298.15 K]
USER    
USER    (1) Final Intermolecular Energy     =  -14.03 kcal/mol
USER        vdW + Hbond + desolv Energy     =  -14.03 kcal/mol
USER        Electrostatic Energy            =   +0.00 kcal/mol
USER    (2) Final Total Internal Energy     =   -0.92 kcal/mol
USER    (3) Torsional Free Energy           =   +1.79 kcal/mol
USER    (4) Unbound System's Energy  [=(2)] =   -0.92 kcal/mol
USER    
USER    
USER  
USER    DPF = ligand_dock.biased.dpf
USER    NEWDPF move	ligand.dum.pdbqt
USER    NEWDPF about	-0.963000 -0.416000 0.212000
USER    NEWDPF tran0	36.706613 14.780679 123.528466
USER    NEWDPF axisangle0	0.553483 0.819573 0.148175 177.180697
USER    NEWDPF quaternion0	0.553316 0.819325 0.148130 0.024601
USER    NEWDPF dihe0	-176.65 174.91 179.96 -146.38 76.63 -34.45 
USER  
USER                              x       y       z    vdW   Elec        q     RMS 
ATOM      1  C   UNL     1      37.788  15.460 122.564 -0.35 -0.00    +0.000    127.798
ATOM      2  C   UNL     1      38.794  16.044 121.569 -0.23 -0.00    +0.000    127.798
ATOM      3  C   UNL     1      37.676  13.960 122.372 -0.48 -0.00    +0.000    127.798
ATOM      4  C   UNL     1      37.385  13.351 121.203 -0.46 -0.00    +0.000    127.798
ATOM      5  C   UNL     1      37.149  14.135 119.931 -0.33 -0.00    +0.000    127.798
ATOM      6  C   UNL     1      37.348  11.866 121.186 -0.50 -0.00    +0.000    127.798
ATOM      7  C   UNL     1      37.073  11.129 122.272 -0.55 -0.00    +0.000    127.798
ATOM      8  C   UNL     1      37.030   9.652 122.266 -0.61 -0.00    +0.000    127.798
ATOM      9  N   UNL     1      37.209   8.873 123.455 -0.57 -0.00    +0.000    127.798
ATOM     10  O   UNL     1      37.057   7.529 123.415 -2.54 -0.00    +0.000    127.798
ATOM     11  O   UNL     1      36.852   9.063 121.166 -2.66 -0.00    +0.000    127.798
ATOM     12  H   UNL     1      37.442   9.317 124.303 -0.64 -0.00    +0.000    127.798
ATOM     13  C   UNL     1      36.439  16.127 122.382 -0.30 -0.00    +0.000    127.798
ATOM     14  O   UNL     1      36.023  16.359 121.212 -0.24 -0.00    +0.000    127.798
ATOM     15  C   UNL     1      33.975  17.313 125.731 -0.37 -0.00    +0.000    127.798
ATOM     16  C   UNL     1      34.064  15.966 125.330 -0.45 -0.00    +0.000    127.798
ATOM     17  C   UNL     1      34.862  15.591 124.246 -0.51 -0.00    +0.000    127.798
ATOM     18  C   UNL     1      35.602  16.549 123.535 -0.35 -0.00    +0.000    127.798
ATOM     19  C   UNL     1      35.508  17.897 123.922 -0.27 -0.00    +0.000    127.798
ATOM     20  C   UNL     1      34.709  18.273 125.005 -0.30 -0.00    +0.000    127.798
ATOM     21  CM  UNL     1      34.787  16.931 124.628 -0.27 -0.00    +0.000    127.798
ATOM     22  C   UNL     1      32.808  16.734 127.908 -0.45 -0.00    +0.000    127.798
ATOM     23  N   UNL     1      33.147  17.703 126.858 -0.34 -0.00    +0.000    127.798
ATOM     24  C   UNL     1      32.634  19.074 126.967 -0.27 -0.00    +0.000    127.798
TER
ENDMDL
MODEL        2
USER    Run = 2
USER    Cluster Rank = 2
USER    Number of conformations in this cluster = 38
USER  
USER    RMSD from reference structure       = 124.978 A
USER  
USER    Estimated Free Energy of Binding    =  -12.09 kcal/mol  [=(1)+(2)+(3)-(4)]
USER    Estimated Inhibition Constant, Ki   =    1.37 nM (nanomolar)  [Temperature = 298.15 K]
USER    
USER    (1) Final Intermolecular Energy     =  -13.88 kcal/mol
USER        vdW + Hbond + desolv Energy     =  -13.88 kcal/mol
USER        Electrostatic Energy            =   +0.00 kcal/mol
USER    (2) Final Total Internal Energy     =   -1.27 kcal/mol
USER    (3) Torsional Free Energy           =   +1.79 kcal/mol
USER    (4) Unbound System's Energy  [=(2)] =   -1.27 kcal/mol
USER    
USER    
USER  
USER    DPF = ligand_dock.biased.dpf
USER    NEWDPF move	ligand.dum.pdbqt
USER    NEWDPF about	-0.963000 -0.416000 0.212000
USER    NEWDPF tran0	36.197968 14.813171 122.074702
USER    NEWDPF axisangle0	0.461475 0.851736 0.248166 -135.047890
USER    NEWDPF quaternion0	0.426421 0.787038 0.229316 -0.382297
USER    NEWDPF dihe0	-80.42 11.25 103.41 49.73 22.92 174.73 
USER  
USER                              x       y       z    vdW   Elec        q     RMS 
ATOM      1  C   UNL     1      37.689  15.392 122.027 -0.31 -0.00    +0.000    124.978
ATOM      2  C   UNL     1      39.144  15.859 121.934 -0.28 -0.00    +0.000    124.978
ATOM      3  C   UNL     1      37.638  13.895 122.262 -0.48 -0.00    +0.000    124.978
ATOM      4  C   UNL     1      36.756  13.270 123.071 -0.59 -0.00    +0.000    124.978
ATOM      5  C   UNL     1      35.693  14.030 123.832 -0.56 -0.00    +0.000    124.978
ATOM      6  C   UNL     1      36.826  11.788 123.160 -0.68 -0.00    +0.000    124.978
ATOM      7  C   UNL     1      36.858  10.991 122.081 -0.59 -0.00    +0.000    124.978
ATOM      8  C   UNL     1      36.932   9.518 122.158 -0.64 -0.00    +0.000    124.978
ATOM      9  N   UNL     1      37.109   8.822 123.398 -0.62 -0.00    +0.000    124.978
ATOM     10  O   UNL     1      37.065   7.470 123.429 -2.51 -0.00    +0.000    124.978
ATOM     11  O   UNL     1      36.859   8.858 121.088 -2.65 -0.00    +0.000    124.978
ATOM     12  H   UNL     1      37.262   9.328 124.229 -0.61 -0.00    +0.000    124.978
ATOM     13  C   UNL     1      36.948  15.762 120.757 -0.21 -0.00    +0.000    124.978
ATOM     14  O   UNL     1      36.071  16.670 120.802 -0.23 -0.00    +0.000    124.978
ATOM     15  C   UNL     1      37.647  13.787 116.975 -0.34 -0.00    +0.000    124.978
ATOM     16  C   UNL     1      37.638  15.192 117.076 -0.18 -0.00    +0.000    124.978
ATOM     17  C   UNL     1      37.410  15.822 118.302 -0.15 -0.00    +0.000    124.978
ATOM     18  C   UNL     1      37.194  15.069 119.466 -0.22 -0.00    +0.000    124.978
ATOM     19  C   UNL     1      37.189  13.666 119.371 -0.36 -0.00    +0.000    124.978
ATOM     20  C   UNL     1      37.416  13.035 118.145 -0.32 -0.00    +0.000    124.978
ATOM     21  CM  UNL     1      37.415  14.429 118.222 +0.00 -0.00    +0.000    124.978
ATOM     22  C   UNL     1      39.024  12.220 115.531 -0.54 -0.00    +0.000    124.978
ATOM     23  N   UNL     1      37.884  13.132 115.702 -0.45 -0.00    +0.000    124.978
ATOM     24  C   UNL     1      36.989  13.368 114.563 -0.37 -0.00    +0.000    124.978
TER
ENDMDL
MODEL       77
USER    Run = 77
USER    Cluster Rank = 3
USER    Number of conformations in this cluster = 3
USER  
USER    RMSD from reference structure       = 128.656 A
USER  
USER    Estimated Free Energy of Binding    =  -11.90 kcal/mol  [=(1)+(2)+(3)-(4)]
USER    Estimated Inhibition Constant, Ki   =    1.88 nM (nanomolar)  [Temperature = 298.15 K]
USER    
USER    (1) Final Intermolecular Energy     =  -13.69 kcal/mol
USER        vdW + Hbond + desolv Energy     =  -13.69 kcal/mol
USER        Electrostatic Energy            =   +0.00 kcal/mol
USER    (2) Final Total Internal Energy     =   -0.89 kcal/mol
USER    (3) Torsional Free Energy           =   +1.79 kcal/mol
USER    (4) Unbound System's Energy  [=(2)] =   -0.89 kcal/mol
USER    
USER    
USER  
USER    DPF = ligand_dock.biased.dpf
USER    NEWDPF move	ligand.dum.pdbqt
USER    NEWDPF about	-0.963000 -0.416000 0.212000
USER    NEWDPF tran0	36.105356 15.049920 125.265648
USER    NEWDPF axisangle0	0.513375 0.835788 -0.194691 130.609627
USER    NEWDPF quaternion0	0.466423 0.759350 -0.176885 0.417791
USER    NEWDPF dihe0	121.70 -9.77 -43.66 -33.04 138.33 37.40 
USER  
USER                              x       y       z    vdW   Elec        q     RMS 
ATOM      1  C   UNL     1      35.685  15.706 123.868 -0.47 -0.00    +0.000    128.656
ATOM      2  C   UNL     1      35.222  16.253 122.515 -0.22 -0.00    +0.000    128.656
ATOM      3  C   UNL     1      35.794  14.195 123.808 -0.56 -0.00    +0.000    128.656
ATOM      4  C   UNL     1      36.579  13.510 122.951 -0.55 -0.00    +0.000    128.656
ATOM      5  C   UNL     1      37.464  14.212 121.945 -0.42 -0.00    +0.000    128.656
ATOM      6  C   UNL     1      36.589  12.028 123.052 -0.67 -0.00    +0.000    128.656
ATOM      7  C   UNL     1      37.048  11.231 122.075 -0.56 -0.00    +0.000    128.656
ATOM      8  C   UNL     1      37.065   9.757 122.166 -0.59 -0.00    +0.000    128.656
ATOM      9  N   UNL     1      37.151   9.066 123.418 -0.56 -0.00    +0.000    128.656
ATOM     10  O   UNL     1      37.058   7.716 123.455 -2.69 -0.00    +0.000    128.656
ATOM     11  O   UNL     1      37.027   9.090 121.097 -2.71 -0.00    +0.000    128.656
ATOM     12  H   UNL     1      37.277   9.574 124.252 -0.61 -0.00    +0.000    128.656
ATOM     13  C   UNL     1      34.717  16.133 124.953 -0.48 -0.00    +0.000    128.656
ATOM     14  O   UNL     1      34.017  15.254 125.531 -0.64 -0.00    +0.000    128.656
ATOM     15  C   UNL     1      34.244  20.282 126.071 -0.17 -0.00    +0.000    128.656
ATOM     16  C   UNL     1      35.346  19.852 125.306 -0.17 -0.00    +0.000    128.656
ATOM     17  C   UNL     1      35.491  18.509 124.950 -0.23 -0.00    +0.000    128.656
ATOM     18  C   UNL     1      34.537  17.556 125.339 -0.35 -0.00    +0.000    128.656
ATOM     19  C   UNL     1      33.441  17.976 126.114 -0.30 -0.00    +0.000    128.656
ATOM     20  C   UNL     1      33.296  19.319 126.471 -0.24 -0.00    +0.000    128.656
ATOM     21  CM  UNL     1      34.393  18.916 125.709 -0.12 -0.00    +0.000    128.656
ATOM     22  C   UNL     1      35.263  22.488 126.801 -0.07 -0.00    +0.000    128.656
ATOM     23  N   UNL     1      34.091  21.678 126.441 -0.14 -0.00    +0.000    128.656
ATOM     24  C   UNL     1      32.764  22.303 126.462 -0.19 -0.00    +0.000    128.656
TER
ENDMDL
MODEL       42
USER    Run = 42
USER    Cluster Rank = 4
USER    Number of conformations in this cluster = 23
USER  
USER    RMSD from reference structure       = 127.952 A
USER  
USER    Estimated Free Energy of Binding    =  -11.88 kcal/mol  [=(1)+(2)+(3)-(4)]
USER    Estimated Inhibition Constant, Ki   =    1.95 nM (nanomolar)  [Temperature = 298.15 K]
USER    
USER    (1) Final Intermolecular Energy     =  -13.67 kcal/mol
USER        vdW + Hbond + desolv Energy     =  -13.67 kcal/mol
USER        Electrostatic Energy            =   +0.00 kcal/mol
USER    (2) Final Total Internal Energy     =   -0.72 kcal/mol
USER    (3) Torsional Free Energy           =   +1.79 kcal/mol
USER    (4) Unbound System's Energy  [=(2)] =   -0.72 kcal/mol
USER    
USER    
USER  
USER    DPF = ligand_dock.biased.dpf
USER    NEWDPF move	ligand.dum.pdbqt
USER    NEWDPF about	-0.963000 -0.416000 0.212000
USER    NEWDPF tran0	39.489275 14.622188 121.870674
USER    NEWDPF axisangle0	-0.578149 -0.427333 0.695075 -80.128839
USER    NEWDPF quaternion0	-0.372125 -0.275053 0.447384 -0.765321
USER    NEWDPF dihe0	-10.18 17.31 97.48 -133.61 -50.65 -43.23 
USER  
USER                              x       y       z    vdW   Elec        q     RMS 
ATOM      1  C   UNL     1      38.067  15.346 121.751 -0.30 -0.00    +0.000    127.952
ATOM      2  C   UNL     1      36.673  15.978 121.710 -0.25 -0.00    +0.000    127.952
ATOM      3  C   UNL     1      37.958  13.861 122.036 -0.46 -0.00    +0.000    127.952
ATOM      4  C   UNL     1      37.122  13.308 122.940 -0.57 -0.00    +0.000    127.952
ATOM      5  C   UNL     1      36.177  14.146 123.771 -0.54 -0.00    +0.000    127.952
ATOM      6  C   UNL     1      37.121  11.828 123.068 -0.63 -0.00    +0.000    127.952
ATOM      7  C   UNL     1      36.895  11.004 122.033 -0.58 -0.00    +0.000    127.952
ATOM      8  C   UNL     1      36.895   9.531 122.148 -0.65 -0.00    +0.000    127.952
ATOM      9  N   UNL     1      37.146   8.858 123.388 -0.60 -0.00    +0.000    127.952
ATOM     10  O   UNL     1      37.031   7.512 123.464 -2.53 -0.00    +0.000    127.952
ATOM     11  O   UNL     1      36.691   8.849 121.109 -2.61 -0.00    +0.000    127.952
ATOM     12  H   UNL     1      37.401   9.376 124.186 -0.62 -0.00    +0.000    127.952
ATOM     13  C   UNL     1      38.913  16.034 122.804 -0.30 -0.00    +0.000    127.952
ATOM     14  O   UNL     1      38.352  16.487 123.841 -0.32 -0.00    +0.000    127.952
ATOM     15  C   UNL     1      43.169  16.641 122.349 -0.35 -0.00    +0.000    127.952
ATOM     16  C   UNL     1      42.397  17.475 123.180 -0.30 -0.00    +0.000    127.952
ATOM     17  C   UNL     1      41.022  17.273 123.321 -0.28 -0.00    +0.000    127.952
ATOM     18  C   UNL     1      40.378  16.226 122.643 -0.30 -0.00    +0.000    127.952
ATOM     19  C   UNL     1      41.140  15.397 121.801 -0.34 -0.00    +0.000    127.952
ATOM     20  C   UNL     1      42.515  15.600 121.659 -0.33 -0.00    +0.000    127.952
ATOM     21  CM  UNL     1      41.770  16.436 122.492 +0.00 -0.00    +0.000    127.952
ATOM     22  C   UNL     1      45.357  16.131 121.170 -0.24 +0.00    +0.000    127.952
ATOM     23  N   UNL     1      44.599  16.850 122.202 -0.32 -0.00    +0.000    127.952
ATOM     24  C   UNL     1      45.311  17.783 123.083 -0.27 -0.00    +0.000    127.952
TER
ENDMDL
MODEL       13
USER    Run = 13
USER    Cluster Rank = 5
USER    Number of conformations in this cluster = 3
USER  
USER    RMSD from reference structure       = 125.993 A
USER  
USER    Estimated Free Energy of Binding    =  -11.59 kcal/mol  [=(1)+(2)+(3)-(4)]
USER    Estimated Inhibition Constant, Ki   =    3.19 nM (nanomolar)  [Temperature = 298.15 K]
USER    
USER    (1) Final Intermolecular Energy     =  -13.38 kcal/mol
USER        vdW + Hbond + desolv Energy     =  -13.38 kcal/mol
USER        Electrostatic Energy            =   +0.00 kcal/mol
USER    (2) Final Total Internal Energy     =   -1.20 kcal/mol
USER    (3) Torsional Free Energy           =   +1.79 kcal/mol
USER    (4) Unbound System's Energy  [=(2)] =   -1.20 kcal/mol
USER    
USER    
USER  
USER    DPF = ligand_dock.biased.dpf
USER    NEWDPF move	ligand.dum.pdbqt
USER    NEWDPF about	-0.963000 -0.416000 0.212000
USER    NEWDPF tran0	36.314812 15.065328 122.013475
USER    NEWDPF axisangle0	0.407466 0.822381 0.397065 -118.895221
USER    NEWDPF quaternion0	0.350895 0.708206 0.341939 -0.508326
USER    NEWDPF dihe0	117.84 19.31 80.10 39.60 154.52 -19.78 
USER  
USER                              x       y       z    vdW   Elec        q     RMS 
ATOM      1  C   UNL     1      37.656  15.747 122.560 -0.32 -0.00    +0.000    125.993
ATOM      2  C   UNL     1      38.990  16.319 123.046 -0.27 -0.00    +0.000    125.993
ATOM      3  C   UNL     1      37.650  14.238 122.709 -0.48 -0.00    +0.000    125.993
ATOM      4  C   UNL     1      36.658  13.522 123.279 -0.58 -0.00    +0.000    125.993
ATOM      5  C   UNL     1      35.411  14.181 123.826 -0.52 -0.00    +0.000    125.993
ATOM      6  C   UNL     1      36.801  12.044 123.313 -0.68 -0.00    +0.000    125.993
ATOM      7  C   UNL     1      36.661  11.270 122.227 -0.64 -0.00    +0.000    125.993
ATOM      8  C   UNL     1      36.805   9.799 122.249 -0.66 -0.00    +0.000    125.993
ATOM      9  N   UNL     1      37.074   9.073 123.454 -0.57 -0.00    +0.000    125.993
ATOM     10  O   UNL     1      37.093   7.720 123.440 -2.68 -0.00    +0.000    125.993
ATOM     11  O   UNL     1      36.710   9.172 121.161 -2.63 -0.00    +0.000    125.993
ATOM     12  H   UNL     1      37.245   9.559 124.294 -0.59 -0.00    +0.000    125.993
ATOM     13  C   UNL     1      37.423  16.144 121.115 -0.20 -0.00    +0.000    125.993
ATOM     14  O   UNL     1      38.296  15.852 120.251 -0.18 -0.00    +0.000    125.993
ATOM     15  C   UNL     1      33.886  18.318 119.907 -0.27 -0.00    +0.000    125.993
ATOM     16  C   UNL     1      34.105  17.968 121.254 -0.31 -0.00    +0.000    125.993
ATOM     17  C   UNL     1      35.249  17.265 121.636 -0.25 -0.00    +0.000    125.993
ATOM     18  C   UNL     1      36.215  16.897 120.686 -0.16 -0.00    +0.000    125.993
ATOM     19  C   UNL     1      35.998  17.232 119.338 -0.14 -0.00    +0.000    125.993
ATOM     20  C   UNL     1      34.852  17.935 118.955 -0.17 -0.00    +0.000    125.993
ATOM     21  CM  UNL     1      35.051  17.602 120.296 +0.00 -0.00    +0.000    125.993
ATOM     22  C   UNL     1      31.386  18.713 120.082 -0.51 -0.00    +0.000    125.993
ATOM     23  N   UNL     1      32.696  19.050 119.510 -0.34 -0.00    +0.000    125.993
ATOM     24  C   UNL     1      32.783  20.139 118.530 -0.23 -0.00    +0.000    125.993
TER
ENDMDL
MODEL       57
USER    Run = 57
USER    Cluster Rank = 6
USER    Number of conformations in this cluster = 1
USER  
USER    RMSD from reference structure       = 126.671 A
USER  
USER    Estimated Free Energy of Binding    =  -11.24 kcal/mol  [=(1)+(2)+(3)-(4)]
USER    Estimated Inhibition Constant, Ki   =    5.76 nM (nanomolar)  [Temperature = 298.15 K]
USER    
USER    (1) Final Intermolecular Energy     =  -13.03 kcal/mol
USER        vdW + Hbond + desolv Energy     =  -13.03 kcal/mol
USER        Electrostatic Energy            =   +0.00 kcal/mol
USER    (2) Final Total Internal Energy     =   -0.92 kcal/mol
USER    (3) Torsional Free Energy           =   +1.79 kcal/mol
USER    (4) Unbound System's Energy  [=(2)] =   -0.92 kcal/mol
USER    
USER    
USER  
USER    DPF = ligand_dock.biased.dpf
USER    NEWDPF move	ligand.dum.pdbqt
USER    NEWDPF about	-0.963000 -0.416000 0.212000
USER    NEWDPF tran0	39.408125 14.817454 121.397953
USER    NEWDPF axisangle0	0.117740 -0.270753 -0.955421 59.919648
USER    NEWDPF quaternion0	0.058798 -0.135212 -0.477130 0.866376
USER    NEWDPF dihe0	161.43 34.52 44.61 -36.68 170.22 -49.40 
USER  
USER                              x       y       z    vdW   Elec        q     RMS 
ATOM      1  C   UNL     1      38.772  15.645 122.611 -0.34 -0.00    +0.000    126.671
ATOM      2  C   UNL     1      38.194  16.363 123.833 -0.10 -0.00    +0.000    126.671
ATOM      3  C   UNL     1      38.602  14.146 122.759 -0.45 -0.00    +0.000    126.671
ATOM      4  C   UNL     1      37.428  13.521 122.985 -0.55 -0.00    +0.000    126.671
ATOM      5  C   UNL     1      36.127  14.283 123.103 -0.47 -0.00    +0.000    126.671
ATOM      6  C   UNL     1      37.438  12.037 123.071 -0.51 -0.00    +0.000    126.671
ATOM      7  C   UNL     1      36.915  11.246 122.122 -0.59 -0.00    +0.000    126.671
ATOM      8  C   UNL     1      36.922   9.771 122.196 -0.62 -0.00    +0.000    126.671
ATOM      9  N   UNL     1      37.159   9.064 123.419 -0.55 -0.00    +0.000    126.671
ATOM     10  O   UNL     1      37.052   7.716 123.456 -2.69 -0.00    +0.000    126.671
ATOM     11  O   UNL     1      36.735   9.117 121.135 -2.63 -0.00    +0.000    126.671
ATOM     12  H   UNL     1      37.400   9.561 124.235 -0.63 -0.00    +0.000    126.671
ATOM     13  C   UNL     1      40.235  16.007 122.447 -0.34 -0.00    +0.000    126.671
ATOM     14  O   UNL     1      40.899  16.354 123.464 -0.69 -0.00    +0.000    126.671
ATOM     15  C   UNL     1      42.154  15.964 118.572 -0.16 -0.00    +0.000    126.671
ATOM     16  C   UNL     1      40.751  15.968 118.693 -0.12 -0.00    +0.000    126.671
ATOM     17  C   UNL     1      40.139  15.980 119.949 -0.15 -0.00    +0.000    126.671
ATOM     18  C   UNL     1      40.909  15.999 121.122 -0.22 -0.00    +0.000    126.671
ATOM     19  C   UNL     1      42.310  15.982 121.009 -0.24 -0.00    +0.000    126.671
ATOM     20  C   UNL     1      42.923  15.968 119.754 -0.18 -0.00    +0.000    126.671
ATOM     21  CM  UNL     1      41.531  15.977 119.850 +0.00 -0.00    +0.000    126.671
ATOM     22  C   UNL     1      41.983  15.986 116.041 -0.28 -0.00    +0.000    126.671
ATOM     23  N   UNL     1      42.791  15.951 117.268 -0.25 -0.00    +0.000    126.671
ATOM     24  C   UNL     1      44.253  15.903 117.152 -0.27 -0.00    +0.000    126.671
TER
ENDMDL
MODEL       55
USER    Run = 55
USER    Cluster Rank = 7
USER    Number of conformations in this cluster = 2
USER  
USER    RMSD from reference structure       = 122.685 A
USER  
USER    Estimated Free Energy of Binding    =  -10.97 kcal/mol  [=(1)+(2)+(3)-(4)]
USER    Estimated Inhibition Constant, Ki   =    9.08 nM (nanomolar)  [Temperature = 298.15 K]
USER    
USER    (1) Final Intermolecular Energy     =  -12.76 kcal/mol
USER        vdW + Hbond + desolv Energy     =  -12.76 kcal/mol
USER        Electrostatic Energy            =   +0.00 kcal/mol
USER    (2) Final Total Internal Energy     =   -0.85 kcal/mol
USER    (3) Torsional Free Energy           =   +1.79 kcal/mol
USER    (4) Unbound System's Energy  [=(2)] =   -0.85 kcal/mol
USER    
USER    
USER  
USER    DPF = ligand_dock.biased.dpf
USER    NEWDPF move	ligand.dum.pdbqt
USER    NEWDPF about	-0.963000 -0.416000 0.212000
USER    NEWDPF tran0	36.106048 14.124618 118.000941
USER    NEWDPF axisangle0	-0.302457 -0.859536 -0.411967 107.310601
USER    NEWDPF quaternion0	-0.243619 -0.692327 -0.331826 0.592642
USER    NEWDPF dihe0	49.05 178.51 -0.12 -41.35 176.44 -68.97 
USER  
USER                              x       y       z    vdW   Elec        q     RMS 
ATOM      1  C   UNL     1      37.266  15.003 118.667 -0.25 -0.00    +0.000    122.685
ATOM      2  C   UNL     1      38.438  15.764 119.293 -0.17 -0.00    +0.000    122.685
ATOM      3  C   UNL     1      37.313  13.545 119.078 -0.42 -0.00    +0.000    122.685
ATOM      4  C   UNL     1      37.440  13.104 120.347 -0.47 -0.00    +0.000    122.685
ATOM      5  C   UNL     1      37.538  14.057 121.517 -0.41 -0.00    +0.000    122.685
ATOM      6  C   UNL     1      37.435  11.636 120.575 -0.48 -0.00    +0.000    122.685
ATOM      7  C   UNL     1      37.044  11.076 121.730 -0.53 -0.00    +0.000    122.685
ATOM      8  C   UNL     1      37.033   9.618 121.967 -0.61 -0.00    +0.000    122.685
ATOM      9  N   UNL     1      37.005   9.054 123.283 -0.62 -0.00    +0.000    122.685
ATOM     10  O   UNL     1      36.889   7.715 123.445 -2.59 -0.00    +0.000    122.685
ATOM     11  O   UNL     1      37.073   8.850 120.969 -2.70 -0.00    +0.000    122.685
ATOM     12  H   UNL     1      37.069   9.641 124.071 -0.54 -0.00    +0.000    122.685
ATOM     13  C   UNL     1      37.314  15.138 117.157 -0.22 -0.00    +0.000    122.685
ATOM     14  O   UNL     1      38.310  15.703 116.624 -0.15 -0.00    +0.000    122.685
ATOM     15  C   UNL     1      34.082  13.725 114.657 -0.25 -0.00    +0.000    122.685
ATOM     16  C   UNL     1      33.873  14.040 116.014 -0.30 -0.00    +0.000    122.685
ATOM     17  C   UNL     1      34.923  14.495 116.815 -0.30 -0.00    +0.000    122.685
ATOM     18  C   UNL     1      36.212  14.658 116.284 -0.25 -0.00    +0.000    122.685
ATOM     19  C   UNL     1      36.431  14.333 114.934 -0.25 -0.00    +0.000    122.685
ATOM     20  C   UNL     1      35.382  13.877 114.132 -0.24 -0.00    +0.000    122.685
ATOM     21  CM  UNL     1      35.151  14.188 115.473 +0.00 -0.00    +0.000    122.685
ATOM     22  C   UNL     1      32.960  11.862 113.350 -0.51 -0.00    +0.000    122.685
ATOM     23  N   UNL     1      32.991  13.253 113.824 -0.32 -0.00    +0.000    122.685
ATOM     24  C   UNL     1      31.900  14.156 113.440 -0.17 -0.00    +0.000    122.685
TER
ENDMDL
MODEL       72
USER    Run = 72
USER    Cluster Rank = 8
USER    Number of conformations in this cluster = 1
USER  
USER    RMSD from reference structure       = 128.023 A
USER  
USER    Estimated Free Energy of Binding    =  -10.77 kcal/mol  [=(1)+(2)+(3)-(4)]
USER    Estimated Inhibition Constant, Ki   =   12.82 nM (nanomolar)  [Temperature = 298.15 K]
USER    
USER    (1) Final Intermolecular Energy     =  -12.56 kcal/mol
USER        vdW + Hbond + desolv Energy     =  -12.56 kcal/mol
USER        Electrostatic Energy            =   +0.00 kcal/mol
USER    (2) Final Total Internal Energy     =   -1.01 kcal/mol
USER    (3) Torsional Free Energy           =   +1.79 kcal/mol
USER    (4) Unbound System's Energy  [=(2)] =   -1.01 kcal/mol
USER    
USER    
USER  
USER    DPF = ligand_dock.biased.dpf
USER    NEWDPF move	ligand.dum.pdbqt
USER    NEWDPF about	-0.963000 -0.416000 0.212000
USER    NEWDPF tran0	38.869644 14.454182 120.968745
USER    NEWDPF axisangle0	0.028358 -0.087828 -0.995732 53.781359
USER    NEWDPF quaternion0	0.012826 -0.039724 -0.450359 0.891871
USER    NEWDPF dihe0	83.24 -176.49 171.81 40.82 125.96 60.99 
USER  
USER                              x       y       z    vdW   Elec        q     RMS 
ATOM      1  C   UNL     1      38.125  15.126 122.216 -0.36 -0.00    +0.000    128.023
ATOM      2  C   UNL     1      37.430  15.683 123.461 -0.35 -0.00    +0.000    128.023
ATOM      3  C   UNL     1      37.846  13.642 122.084 -0.48 -0.00    +0.000    128.023
ATOM      4  C   UNL     1      37.452  13.028 120.948 -0.49 -0.00    +0.000    128.023
ATOM      5  C   UNL     1      37.258  13.788 119.655 -0.39 -0.00    +0.000    128.023
ATOM      6  C   UNL     1      37.254  11.556 120.989 -0.47 -0.00    +0.000    128.023
ATOM      7  C   UNL     1      37.095  10.870 122.131 -0.50 -0.00    +0.000    128.023
ATOM      8  C   UNL     1      36.894   9.408 122.183 -0.66 -0.00    +0.000    128.023
ATOM      9  N   UNL     1      37.020   8.658 123.396 -0.65 -0.00    +0.000    128.023
ATOM     10  O   UNL     1      36.724   7.337 123.412 -2.24 -0.00    +0.000    128.023
ATOM     11  O   UNL     1      36.626   8.802 121.111 -2.50 -0.00    +0.000    128.023
ATOM     12  H   UNL     1      37.321   9.104 124.221 -0.61 -0.00    +0.000    128.023
ATOM     13  C   UNL     1      39.616  15.387 122.299 -0.38 -0.00    +0.000    128.023
ATOM     14  O   UNL     1      40.418  14.466 121.977 -1.07 -0.00    +0.000    128.023
ATOM     15  C   UNL     1      41.192  19.173 123.669 -0.14 -0.00    +0.000    128.023
ATOM     16  C   UNL     1      39.927  19.086 123.055 -0.08 -0.00    +0.000    128.023
ATOM     17  C   UNL     1      39.426  17.859 122.615 -0.13 -0.00    +0.000    128.023
ATOM     18  C   UNL     1      40.168  16.680 122.782 -0.25 -0.00    +0.000    128.023
ATOM     19  C   UNL     1      41.436  16.760 123.382 -0.33 -0.00    +0.000    128.023
ATOM     20  C   UNL     1      41.939  17.987 123.822 -0.23 -0.00    +0.000    128.023
ATOM     21  CM  UNL     1      40.681  17.924 123.221 +0.00 -0.00    +0.000    128.023
ATOM     22  C   UNL     1      42.251  21.423 123.171 -0.05 -0.00    +0.000    128.023
ATOM     23  N   UNL     1      41.713  20.448 124.128 -0.10 -0.00    +0.000    128.023
ATOM     24  C   UNL     1      41.712  20.784 125.557 -0.12 -0.00    +0.000    128.023
TER
ENDMDL


AVSFLD: # AVS field file
AVSFLD: #
AVSFLD: # Created by AutoDock
AVSFLD: #
AVSFLD: ndim=2           # number of dimensions in the field
AVSFLD: nspace=1         # number of physical coordinates
AVSFLD: veclen=7         # vector size
AVSFLD: dim1=24          # atoms
AVSFLD: dim2=8           # conformations
AVSFLD: data=Real       # data type (byte,integer,Real,double)
AVSFLD: field=uniform    # field coordinate layout
AVSFLD: label= x y z vdW Elec q RMS
AVSFLD: variable 1 file = ligand_dock.biased.dlg.pdb filetype = ascii offset = 5 stride = 12
AVSFLD: variable 2 file = ligand_dock.biased.dlg.pdb filetype = ascii offset = 6 stride = 12
AVSFLD: variable 3 file = ligand_dock.biased.dlg.pdb filetype = ascii offset = 7 stride = 12
AVSFLD: variable 4 file = ligand_dock.biased.dlg.pdb filetype = ascii offset = 8 stride = 12
AVSFLD: variable 5 file = ligand_dock.biased.dlg.pdb filetype = ascii offset = 9 stride = 12
AVSFLD: variable 6 file = ligand_dock.biased.dlg.pdb filetype = ascii offset = 10 stride = 12
AVSFLD: variable 7 file = ligand_dock.biased.dlg.pdb filetype = ascii offset = 11 stride = 12
AVSFLD: # end of file

>>> Closing the docking parameter file (DPF)...
This docking finished at:			6:18 25" p.m., 11/08/2024


________________________________________________________________________________

autodock4: Successful Completion on "ThinkStation-P620"

Real= 11m 16.24s,  CPU= 11m 15.99s,  System= 0.19s
________________________________________________________________________________

