REMARK  Name = 
REMARK  8 active torsions:
REMARK  status: ('A' for Active; 'I' for Inactive)
REMARK    1  A    between atoms: C_2  and  C_10
REMARK    2  A    between atoms: N_3  and  C_4
REMARK    3  A    between atoms: C_10  and  C_11
REMARK    4  A    between atoms: C_11  and  C_12
REMARK    5  A    between atoms: C_12  and  C_13
REMARK    6  A    between atoms: C_13  and  C_14
REMARK    7  A    between atoms: C_14  and  C_15
REMARK    8  A    between atoms: C_15  and  C_16
REMARK                            x       y       z     vdW  Elec       q    Type
REMARK                         _______ _______ _______ _____ _____    ______ ____
ROOT
ATOM      1  C   UNL     1      -0.106   0.334  -0.272  0.00  0.00    +0.000 C 
ENDROOT
BRANCH   1   3
ATOM      2  O   UNL     1      -1.427   1.370   1.423  0.00  0.00    +0.000 OA
ATOM      3  C   UNL     1      -1.418   0.698   0.356  0.00  0.00    +0.000 C 
ATOM      4  N   UNL     1      -2.647   0.281  -0.259  0.00  0.00    +0.000 N 
ATOM      5  H   UNL     1      -2.606  -0.084  -1.172  0.00  0.00    +0.000 HD
BRANCH   4   6
ATOM      6  C   UNL     1      -3.934   0.362   0.377  0.00  0.00    +0.000 A 
ATOM      7  C   UNL     1      -5.075   0.602  -0.406  0.00  0.00    +0.000 A 
ATOM      8  C   UNL     1      -6.340   0.660   0.185  0.00  0.00    +0.000 A 
ATOM      9  C   UNL     1      -6.480   0.464   1.561  0.00  0.00    +0.000 A 
ATOM     10  C   UNL     1      -5.355   0.201   2.347  0.00  0.00    +0.000 A 
ATOM     11  C   UNL     1      -4.087   0.143   1.759  0.00  0.00    +0.000 A 
ENDBRANCH   4   6
ENDBRANCH   1   3
BRANCH   1  12
ATOM     12  C   UNL     1       0.286  -1.099   0.106  0.00  0.00    +0.000 C 
BRANCH  12  13
ATOM     13  C   UNL     1       1.541  -1.592  -0.634  0.00  0.00    +0.000 C 
BRANCH  13  14
ATOM     14  C   UNL     1       2.828  -0.841  -0.232  0.00  0.00    +0.000 C 
BRANCH  14  15
ATOM     15  C   UNL     1       3.255   0.188  -1.294  0.00  0.00    +0.000 C 
BRANCH  15  16
ATOM     16  C   UNL     1       4.441   1.045  -0.831  0.00  0.00    +0.000 C 
BRANCH  16  17
ATOM     17  C   UNL     1       5.698   0.235  -0.704  0.00  0.00    +0.000 C 
ATOM     18  N   UNL     1       6.113  -0.261   0.571  0.00  0.00    +0.000 N 
ATOM     19  O   UNL     1       7.238  -1.004   0.684  0.00  0.00    +0.000 OA
ATOM     20  O   UNL     1       6.375  -0.032  -1.733  0.00  0.00    +0.000 OA
ATOM     21  H   UNL     1       5.577  -0.061   1.372  0.00  0.00    +0.000 HD
ENDBRANCH  16  17
ENDBRANCH  15  16
ENDBRANCH  14  15
ENDBRANCH  13  14
ENDBRANCH  12  13
ENDBRANCH   1  12
TORSDOF 8
