          AutoDock 4.2 Release 4.2.6   
         (C) 1989-2012 The Scripps Research Institute
        AutoDock comes with ABSOLUTELY NO WARRANTY.
        AutoDock is free software, and you are welcome
        to redistribute it under certain conditions;
        for details type 'autodock4 -C'

                     main.cc  $Revision: 1.213 $

                   Compiled on Feb 20 2022 at 09:48:33


This file was created at:			11:05 18" a.m., 11/08/2024
                   on host:		"ThinkStation-P620"
Current Working Directory = "/home/antonio/Documenti/buccheri/IDROSSAMICO HDAC/HDAC 2/DP/Ligand_5"

      ________________________________________________________________

                   SETTING UP DEFAULT PARAMETER LIBRARY
      ________________________________________________________________


Random number generator was seeded with values 333842, 1731060318.
Docking parameter file (DPF) used for this docking:		ligand_dock.biased.dpf
DPF> autodock_parameter_version 4.2       # used by autodock to validate parameter set

	Autodock parameter version 4.2.
DPF> outlev 1                             # diagnostic output level

Output Level = 1  ADT-COMPATIBLE OUTPUT DURING DOCKING.
DPF> intelec                              # calculate internal electrostatics

Electrostatic energies will be calculated for all non-bonds between moving atoms.
DPF> seed pid time                        # seeds for random generator

Random number generator was seeded with values 333842, 1731060318.
DPF> ligand_types A C HD OA N             # atoms types in ligand

DPF> fld receptor.maps.fld                # grid_data_file

Opening Grid Map Dimensions file:		receptor.maps.fld
Grid Point Spacing =				0.375 Angstroms

Even Number of User-specified Grid Points =	70 x-points
						70 y-points
						70 z-points

Coordinates of Central Grid Point of Maps =	(24.757, -16.735, 0.794)
Macromolecule file used to create Grid Maps =	receptor.pdbqt
Grid Parameter file used to create Grid Maps =	receptor.gpf
Minimum coordinates in grid = (11.632, -29.860, -12.331)
Maximum coordinates in grid = (37.882, -3.610, 13.919)

DPF> map receptor.A.map                   # atom-specific affinity map

DPF> map receptor.C.map                   # atom-specific affinity map

DPF> map receptor.HD.biased.map

DPF> map receptor.OA.biased.map

DPF> map receptor.N.map                   # atom-specific affinity map

DPF> elecmap receptor.e.map               # electrostatics map

DPF> desolvmap receptor.d.map             # desolvation map

DPF> move ligand.pdbqt                    # small molecule

1,4-interactions will be _ignored_ in the non-bonded internal energy calculation.

Ligand PDBQT file = "ligand.pdbqt"

INPUT LIGAND PDBQT FILE:
________________________

INPUT-LIGAND-PDBQT: REMARK  Name = 
INPUT-LIGAND-PDBQT: REMARK  8 active torsions:
INPUT-LIGAND-PDBQT: REMARK  status: ('A' for Active; 'I' for Inactive)
INPUT-LIGAND-PDBQT: REMARK    1  A    between atoms: C_2  and  C_10
INPUT-LIGAND-PDBQT: REMARK    2  A    between atoms: N_3  and  C_4
INPUT-LIGAND-PDBQT: REMARK    3  A    between atoms: C_10  and  C_11
INPUT-LIGAND-PDBQT: REMARK    4  A    between atoms: C_11  and  C_12
INPUT-LIGAND-PDBQT: REMARK    5  A    between atoms: C_12  and  C_13
INPUT-LIGAND-PDBQT: REMARK    6  A    between atoms: C_13  and  C_14
INPUT-LIGAND-PDBQT: REMARK    7  A    between atoms: C_14  and  C_15
INPUT-LIGAND-PDBQT: REMARK    8  A    between atoms: C_15  and  C_16
INPUT-LIGAND-PDBQT: REMARK                            x       y       z     vdW  Elec       q    Type
INPUT-LIGAND-PDBQT: REMARK                         _______ _______ _______ _____ _____    ______ ____
INPUT-LIGAND-PDBQT: ROOT
INPUT-LIGAND-PDBQT: ATOM      1  C   UNL     1      -0.106   0.334  -0.272  0.00  0.00    +0.000 C 
INPUT-LIGAND-PDBQT: ENDROOT
INPUT-LIGAND-PDBQT: BRANCH   1   3
INPUT-LIGAND-PDBQT: ATOM      2  O   UNL     1      -1.427   1.370   1.423  0.00  0.00    +0.000 OA
INPUT-LIGAND-PDBQT: ATOM      3  C   UNL     1      -1.418   0.698   0.356  0.00  0.00    +0.000 C 
INPUT-LIGAND-PDBQT: ATOM      4  N   UNL     1      -2.647   0.281  -0.259  0.00  0.00    +0.000 N 
INPUT-LIGAND-PDBQT: ATOM      5  H   UNL     1      -2.606  -0.084  -1.172  0.00  0.00    +0.000 HD
INPUT-LIGAND-PDBQT: BRANCH   4   6
INPUT-LIGAND-PDBQT: ATOM      6  C   UNL     1      -3.934   0.362   0.377  0.00  0.00    +0.000 A 
INPUT-LIGAND-PDBQT: ATOM      7  C   UNL     1      -5.075   0.602  -0.406  0.00  0.00    +0.000 A 
INPUT-LIGAND-PDBQT: ATOM      8  C   UNL     1      -6.340   0.660   0.185  0.00  0.00    +0.000 A 
INPUT-LIGAND-PDBQT: ATOM      9  C   UNL     1      -6.480   0.464   1.561  0.00  0.00    +0.000 A 
INPUT-LIGAND-PDBQT: ATOM     10  C   UNL     1      -5.355   0.201   2.347  0.00  0.00    +0.000 A 
INPUT-LIGAND-PDBQT: ATOM     11  C   UNL     1      -4.087   0.143   1.759  0.00  0.00    +0.000 A 
INPUT-LIGAND-PDBQT: ENDBRANCH   4   6
INPUT-LIGAND-PDBQT: ENDBRANCH   1   3
INPUT-LIGAND-PDBQT: BRANCH   1  12
INPUT-LIGAND-PDBQT: ATOM     12  C   UNL     1       0.286  -1.099   0.106  0.00  0.00    +0.000 C 
INPUT-LIGAND-PDBQT: BRANCH  12  13
INPUT-LIGAND-PDBQT: ATOM     13  C   UNL     1       1.541  -1.592  -0.634  0.00  0.00    +0.000 C 
INPUT-LIGAND-PDBQT: BRANCH  13  14
INPUT-LIGAND-PDBQT: ATOM     14  C   UNL     1       2.828  -0.841  -0.232  0.00  0.00    +0.000 C 
INPUT-LIGAND-PDBQT: BRANCH  14  15
INPUT-LIGAND-PDBQT: ATOM     15  C   UNL     1       3.255   0.188  -1.294  0.00  0.00    +0.000 C 
INPUT-LIGAND-PDBQT: BRANCH  15  16
INPUT-LIGAND-PDBQT: ATOM     16  C   UNL     1       4.441   1.045  -0.831  0.00  0.00    +0.000 C 
INPUT-LIGAND-PDBQT: BRANCH  16  17
INPUT-LIGAND-PDBQT: ATOM     17  C   UNL     1       5.698   0.235  -0.704  0.00  0.00    +0.000 C 
INPUT-LIGAND-PDBQT: ATOM     18  N   UNL     1       6.113  -0.261   0.571  0.00  0.00    +0.000 N 
INPUT-LIGAND-PDBQT: ATOM     19  O   UNL     1       7.238  -1.004   0.684  0.00  0.00    +0.000 OA
INPUT-LIGAND-PDBQT: ATOM     20  O   UNL     1       6.375  -0.032  -1.733  0.00  0.00    +0.000 OA
INPUT-LIGAND-PDBQT: ATOM     21  H   UNL     1       5.577  -0.061   1.372  0.00  0.00    +0.000 HD
INPUT-LIGAND-PDBQT: ENDBRANCH  16  17
INPUT-LIGAND-PDBQT: ENDBRANCH  15  16
INPUT-LIGAND-PDBQT: ENDBRANCH  14  15
INPUT-LIGAND-PDBQT: ENDBRANCH  13  14
INPUT-LIGAND-PDBQT: ENDBRANCH  12  13
INPUT-LIGAND-PDBQT: ENDBRANCH   1  12
INPUT-LIGAND-PDBQT: TORSDOF 8
________________________________________________________________________________

Total charge on ligand                               =	+0.000 e
REMARK  Name = 
REMARK  8 active torsions:
REMARK  status: ('A' for Active; 'I' for Inactive)
REMARK    1  A    between atoms: C_2  and  C_10
REMARK    2  A    between atoms: N_3  and  C_4
REMARK    3  A    between atoms: C_10  and  C_11
REMARK    4  A    between atoms: C_11  and  C_12
REMARK    5  A    between atoms: C_12  and  C_13
REMARK    6  A    between atoms: C_13  and  C_14
REMARK    7  A    between atoms: C_14  and  C_15
REMARK    8  A    between atoms: C_15  and  C_16
REMARK                            x       y       z     vdW  Elec       q    Type
REMARK                         _______ _______ _______ _____ _____    ______ ____


Number of Rotatable Bonds in Small Molecule =	8 torsions
Number of atoms in ligand:  21

Number of non-hydrogen atoms in ligand:  19

Number of vibrational degrees of freedom of ligand:  57


Number of torsional degrees of freedom = 8
Estimated loss of torsional free energy upon binding = +2.3864 kcal/mol


DPF> about 0.185 0.077 0.153            # small molecule center

Small molecule center of rotation =	(+0.185, +0.077, +0.153)

DPF> tran0 random                         # initial coordinates/A or random

Initial translation =			(35.070, -13.567, -9.400) Angstroms
DPF> quaternion0 random                   # initial orientation

Each run will begin with a new, random initial orientation.
Initial quaternion,  (x,y,z,w) =	( -0.667, -0.024, -0.680, 0.303 ),
DPF> dihe0 random                         # initial dihedrals (relative) or random

DPF> torsdof 8                            # torsional degrees of freedom

Number of torsional degrees of freedom = 8
Free energy coefficient for torsional degrees of freedom = 0.2983, the factory default value.

Estimated loss of torsional free energy upon binding = +2.3864 kcal/mol

DPF> rmstol 2.0                           # cluster_tolerance/A

Maximum RMS tolerance for conformational cluster analysis = 2.00 Angstroms
DPF> extnrg 1000.0                        # external grid energy

External grid energy (beyond grid map walls) = 1000.00

DPF> e0max 0.0 10000                      # max initial energy; max number of retries

Using user-specified maximum number of retries for simanneal initialization, 10000 retries.
If the simanneal initial energy is greater than e0max, 0.000,
then a new, random initial state will be created.

DPF> ga_pop_size 150                      # number of individuals in population

A population of 150 individuals will be used
DPF> ga_num_evals 2500000                 # maximum number of energy evaluations

There will be at most 2500000 function evaluations used.
DPF> ga_num_generations 27000             # maximum number of generations

The GA will run for at most 27000 generations.
DPF> ga_elitism 1                         # number of top individuals to survive to next generation

The 1 best will be preserved each GA generation.
DPF> ga_mutation_rate 0.02                # rate of gene mutation

The mutation rate is 0.020000.
DPF> ga_crossover_rate 0.8                # rate of crossover

The crossover rate is 0.800000.
DPF> ga_window_size 10                    # 

The GA's selection window is 10 generations.
DPF> ga_cauchy_alpha 0.0                  # Alpha parameter of Cauchy distribution

The alpha parameter (for the Cauchy distribution) is being set to 0.000000.
DPF> ga_cauchy_beta 1.0                   # Beta parameter Cauchy distribution

The beta parameter (for the Cauchy distribution) is being set to 1.000000.
DPF> set_ga                               # set the above parameters for GA or LGA

DPF> sw_max_its 300                       # iterations of Solis & Wets local search

Solis & Wets algorithms will perform at most 300 iterations.
DPF> sw_max_succ 4                        # consecutive successes before changing rho

Solis & Wets algorithms expand rho every 4 in a row successes.
DPF> sw_max_fail 4                        # consecutive failures before changing rho

Solis & Wets algorithms contract rho every 4 in a row failures.
DPF> sw_rho 1.0                           # size of local search space to sample

rho is set to 1.000000.
DPF> sw_lb_rho 0.01                       # lower bound on rho

rho will never get smaller than 0.010000.
DPF> ls_search_freq 0.06                  # probability of performing local search on individual

Local search will be performed with frequency 0.060000.
DPF> set_psw1                             # set the above pseudo-Solis & Wets parameters

Creating a new Local Search object using the pseudo-Solis-Wets algorithm (pSW1) with the current settings.

DPF> unbound_model bound                  # state of unbound ligand

DPF> ga_run 100

centering ligand on specified point: 0.185 0.077 0.153
Furthest true ligand atom from "about" center is 7.155 Angstroms (maxrad).
Number of requested GA dockings = 100 runs
Unbound model to be used is 'same as bound' [AutoDock 4.2 default].

	BEGINNING GENETIC ALGORITHM DOCKING 1 of 100
Run: 1 Seed: 701039874 53894576 [ Run 1 of 100 GA/GALS ]
Beginning LAMARCKIAN GENETIC ALGORITHM (LGA), with a maximum of 2500000 energy evaluations.

Final-Value: -11.665


	FINAL GENETIC ALGORITHM DOCKED STATE
	_______________________________________________


Detailed state:  trans 24.924 -17.217 -1.423 quatxyzw 0.156315 0.105998 -0.499987 0.845188 center 0.185 0.077 0.153 ntor 8 157.3655 171.2203 -176.7078 43.7357 46.0833 59.3882 160.6548 5.1934
State:	 24.924 -17.217  -1.423   0.292  0.198 -0.935 64.616    157.37  171.22 -176.71   43.74   46.08   59.39  160.65    5.19

DOCKED: MODEL        1
DOCKED: USER    Run = 1
DOCKED: USER    DPF = ligand_dock.biased.dpf
DOCKED: USER  
DOCKED: USER    Estimated Free Energy of Binding    =   -8.48 kcal/mol  [=(1)+(2)+(3)-(4)]
DOCKED: USER    Estimated Inhibition Constant, Ki   =  610.47 nM (nanomolar)  [Temperature = 298.15 K]
DOCKED: USER    
DOCKED: USER    (1) Final Intermolecular Energy     =  -10.86 kcal/mol
DOCKED: USER        vdW + Hbond + desolv Energy     =  -10.86 kcal/mol
DOCKED: USER        Electrostatic Energy            =   +0.00 kcal/mol
DOCKED: USER    (2) Final Total Internal Energy     =   -0.80 kcal/mol
DOCKED: USER    (3) Torsional Free Energy           =   +2.39 kcal/mol
DOCKED: USER    (4) Unbound System's Energy  [=(2)] =   -0.80 kcal/mol
DOCKED: USER    
DOCKED: USER    
DOCKED: USER    NEWDPF move ligand.pdbqt
DOCKED: USER    NEWDPF about 0.185000 0.077000 0.153000
DOCKED: USER    NEWDPF tran0 24.924384 -17.216916 -1.422956
DOCKED: USER    NEWDPF quaternion0 0.156315 0.105998 -0.499987 0.845188
DOCKED: USER    NEWDPF axisangle0 0.292468 0.198323 -0.935484 64.615791
DOCKED: USER    NEWDPF quat0 0.292468 0.198323 -0.935484 64.615791
DOCKED: USER    NEWDPF dihe0 157.37 171.22 -176.71 43.74 46.08 59.39 160.65 5.19 
DOCKED: USER  keepresnum = 1 
DOCKED: USER  
DOCKED: REMARK  Name = 
DOCKED: REMARK  8 active torsions:
DOCKED: REMARK  status: ('A' for Active; 'I' for Inactive)
DOCKED: REMARK    1  A    between atoms: C_2  and  C_10
DOCKED: REMARK    2  A    between atoms: N_3  and  C_4
DOCKED: REMARK    3  A    between atoms: C_10  and  C_11
DOCKED: REMARK    4  A    between atoms: C_11  and  C_12
DOCKED: REMARK    5  A    between atoms: C_12  and  C_13
DOCKED: REMARK    6  A    between atoms: C_13  and  C_14
DOCKED: REMARK    7  A    between atoms: C_14  and  C_15
DOCKED: REMARK    8  A    between atoms: C_15  and  C_16
DOCKED: REMARK                            x       y       z     vdW  Elec       q    Type
DOCKED: REMARK                         _______ _______ _______ _____ _____    ______ ____
DOCKED: USER                              x       y       z     vdW  Elec       q    Type
DOCKED: USER                           _______ _______ _______ _____ _____    ______ ____
DOCKED: ROOT
DOCKED: ATOM      1  C   UNL     1      24.719 -17.424  -1.919 -0.64 -0.00    +0.000 C 
DOCKED: ENDROOT
DOCKED: BRANCH   1   3
DOCKED: ATOM      2  O   UNL     1      23.347 -19.361  -2.160 -0.73 -0.00    +0.000 OA
DOCKED: ATOM      3  C   UNL     1      23.586 -18.313  -1.501 -0.75 -0.00    +0.000 C 
DOCKED: ATOM      4  N   UNL     1      22.787 -17.965  -0.359 -0.75 -0.00    +0.000 N 
DOCKED: ATOM      5  H   UNL     1      23.110 -17.244   0.228 -0.04 -0.00    +0.000 HD
DOCKED: BRANCH   4   6
DOCKED: ATOM      6  C   UNL     1      21.545 -18.605  -0.021 -0.66 -0.00    +0.000 A 
DOCKED: ATOM      7  C   UNL     1      20.631 -18.916  -1.042 -0.77 -0.00    +0.000 A 
DOCKED: ATOM      8  C   UNL     1      19.427 -19.560  -0.742 -0.62 -0.00    +0.000 A 
DOCKED: ATOM      9  C   UNL     1      19.131 -19.913   0.576 -0.70 -0.00    +0.000 A 
DOCKED: ATOM     10  C   UNL     1      20.043 -19.630   1.597 -0.48 -0.00    +0.000 A 
DOCKED: ATOM     11  C   UNL     1      21.248 -18.985   1.301 +0.41 -0.00    +0.000 A 
DOCKED: ENDBRANCH   4   6
DOCKED: ENDBRANCH   1   3
DOCKED: BRANCH   1  12
DOCKED: ATOM     12  C   UNL     1      25.943 -17.666  -1.029 -0.60 -0.00    +0.000 C 
DOCKED: BRANCH  12  13
DOCKED: ATOM     13  C   UNL     1      27.155 -16.807  -1.429 -0.44 -0.00    +0.000 C 
DOCKED: BRANCH  13  14
DOCKED: ATOM     14  C   UNL     1      27.734 -15.979  -0.262 -0.34 -0.00    +0.000 C 
DOCKED: BRANCH  14  15
DOCKED: ATOM     15  C   UNL     1      26.680 -15.054   0.372 -0.07 -0.00    +0.000 C 
DOCKED: BRANCH  15  16
DOCKED: ATOM     16  C   UNL     1      27.270 -13.701   0.792 -0.29 -0.00    +0.000 C 
DOCKED: BRANCH  16  17
DOCKED: ATOM     17  C   UNL     1      27.357 -13.570   2.285 -0.34 -0.00    +0.000 C 
DOCKED: ATOM     18  N   UNL     1      28.128 -14.500   3.048 -0.37 -0.00    +0.000 N 
DOCKED: ATOM     19  O   UNL     1      28.220 -14.374   4.392 -0.58 -0.00    +0.000 OA
DOCKED: ATOM     20  O   UNL     1      26.769 -12.616   2.863 -0.38 +0.00    +0.000 OA
DOCKED: ATOM     21  H   UNL     1      28.596 -15.237   2.594 -1.74 -0.00    +0.000 HD
DOCKED: ENDBRANCH  16  17
DOCKED: ENDBRANCH  15  16
DOCKED: ENDBRANCH  14  15
DOCKED: ENDBRANCH  13  14
DOCKED: ENDBRANCH  12  13
DOCKED: ENDBRANCH   1  12
DOCKED: TORSDOF 8
DOCKED: TER
DOCKED: ENDMDL
________________________________________________________________________________


	BEGINNING GENETIC ALGORITHM DOCKING 2 of 100
Run: 2 Seed: 1917446515 1332948943 [ Run 2 of 100 GA/GALS ]
Beginning LAMARCKIAN GENETIC ALGORITHM (LGA), with a maximum of 2500000 energy evaluations.

Final-Value: -13.798


	FINAL GENETIC ALGORITHM DOCKED STATE
	_______________________________________________


Detailed state:  trans 27.169 -16.047 0.251 quatxyzw -0.436482 0.376288 0.663894 0.476589 center 0.185 0.077 0.153 ntor 8 127.1341 180.0000 71.5006 -112.1243 -54.5929 96.2777 -98.7695 52.2549
State:	 27.169 -16.047   0.251  -0.496  0.428  0.755 123.074    127.13  180.00   71.50 -112.12  -54.59   96.28  -98.77   52.25

DOCKED: MODEL        2
DOCKED: USER    Run = 2
DOCKED: USER    DPF = ligand_dock.biased.dpf
DOCKED: USER  
DOCKED: USER    Estimated Free Energy of Binding    =  -10.72 kcal/mol  [=(1)+(2)+(3)-(4)]
DOCKED: USER    Estimated Inhibition Constant, Ki   =   13.95 nM (nanomolar)  [Temperature = 298.15 K]
DOCKED: USER    
DOCKED: USER    (1) Final Intermolecular Energy     =  -13.10 kcal/mol
DOCKED: USER        vdW + Hbond + desolv Energy     =  -13.10 kcal/mol
DOCKED: USER        Electrostatic Energy            =   +0.00 kcal/mol
DOCKED: USER    (2) Final Total Internal Energy     =   -0.69 kcal/mol
DOCKED: USER    (3) Torsional Free Energy           =   +2.39 kcal/mol
DOCKED: USER    (4) Unbound System's Energy  [=(2)] =   -0.69 kcal/mol
DOCKED: USER    
DOCKED: USER    
DOCKED: USER    NEWDPF move ligand.pdbqt
DOCKED: USER    NEWDPF about 0.185000 0.077000 0.153000
DOCKED: USER    NEWDPF tran0 27.168708 -16.046747 0.250509
DOCKED: USER    NEWDPF quaternion0 -0.436482 0.376288 0.663894 0.476589
DOCKED: USER    NEWDPF axisangle0 -0.496495 0.428024 0.755174 123.074338
DOCKED: USER    NEWDPF quat0 -0.496495 0.428024 0.755174 123.074338
DOCKED: USER    NEWDPF dihe0 127.13 180.00 71.50 -112.12 -54.59 96.28 -98.77 52.25 
DOCKED: USER  keepresnum = 1 
DOCKED: USER  
DOCKED: REMARK  Name = 
DOCKED: REMARK  8 active torsions:
DOCKED: REMARK  status: ('A' for Active; 'I' for Inactive)
DOCKED: REMARK    1  A    between atoms: C_2  and  C_10
DOCKED: REMARK    2  A    between atoms: N_3  and  C_4
DOCKED: REMARK    3  A    between atoms: C_10  and  C_11
DOCKED: REMARK    4  A    between atoms: C_11  and  C_12
DOCKED: REMARK    5  A    between atoms: C_12  and  C_13
DOCKED: REMARK    6  A    between atoms: C_13  and  C_14
DOCKED: REMARK    7  A    between atoms: C_14  and  C_15
DOCKED: REMARK    8  A    between atoms: C_15  and  C_16
DOCKED: REMARK                            x       y       z     vdW  Elec       q    Type
DOCKED: REMARK                         _______ _______ _______ _____ _____    ______ ____
DOCKED: USER                              x       y       z     vdW  Elec       q    Type
DOCKED: USER                           _______ _______ _______ _____ _____    ______ ____
DOCKED: ROOT
DOCKED: ATOM      1  C   UNL     1      27.694 -15.870   0.407 -0.26 -0.00    +0.000 C 
DOCKED: ENDROOT
DOCKED: BRANCH   1   3
DOCKED: ATOM      2  O   UNL     1      26.601 -13.793   0.837 -0.36 -0.00    +0.000 OA
DOCKED: ATOM      3  C   UNL     1      27.431 -14.652   1.241 -0.23 -0.00    +0.000 C 
DOCKED: ATOM      4  N   UNL     1      28.123 -14.474   2.487 -0.32 -0.00    +0.000 N 
DOCKED: ATOM      5  H   UNL     1      28.623 -15.239   2.851 -1.72 -0.00    +0.000 HD
DOCKED: BRANCH   4   6
DOCKED: ATOM      6  C   UNL     1      28.132 -13.246   3.236 -0.29 -0.00    +0.000 A 
DOCKED: ATOM      7  C   UNL     1      28.074 -12.022   2.550 -0.19 -0.00    +0.000 A 
DOCKED: ATOM      8  C   UNL     1      28.055 -10.815   3.256 -0.20 +0.00    +0.000 A 
DOCKED: ATOM      9  C   UNL     1      28.079 -10.820   4.652 -0.30 +0.00    +0.000 A 
DOCKED: ATOM     10  C   UNL     1      28.112 -12.033   5.346 -0.37 +0.00    +0.000 A 
DOCKED: ATOM     11  C   UNL     1      28.132 -13.242   4.643 -0.42 -0.00    +0.000 A 
DOCKED: ENDBRANCH   4   6
DOCKED: ENDBRANCH   1   3
DOCKED: BRANCH   1  12
DOCKED: ATOM     12  C   UNL     1      26.838 -15.839  -0.864 -0.40 -0.00    +0.000 C 
DOCKED: BRANCH  12  13
DOCKED: ATOM     13  C   UNL     1      26.153 -17.184  -1.158 -0.57 -0.00    +0.000 C 
DOCKED: BRANCH  13  14
DOCKED: ATOM     14  C   UNL     1      24.987 -17.074  -2.164 -0.60 -0.00    +0.000 C 
DOCKED: BRANCH  14  15
DOCKED: ATOM     15  C   UNL     1      23.997 -18.247  -2.035 -0.44 -0.00    +0.000 C 
DOCKED: BRANCH  15  16
DOCKED: ATOM     16  C   UNL     1      23.338 -18.303  -0.650 -0.82 -0.00    +0.000 C 
DOCKED: BRANCH  16  17
DOCKED: ATOM     17  C   UNL     1      21.878 -18.638  -0.742 -0.85 -0.00    +0.000 C 
DOCKED: ATOM     18  N   UNL     1      21.385 -19.436  -1.820 -0.59 -0.00    +0.000 N 
DOCKED: ATOM     19  O   UNL     1      20.071 -19.751  -1.895 -2.37 -0.00    +0.000 OA
DOCKED: ATOM     20  O   UNL     1      21.088 -18.235   0.154 -1.28 -0.00    +0.000 OA
DOCKED: ATOM     21  H   UNL     1      22.005 -19.760  -2.513 -0.53 -0.00    +0.000 HD
DOCKED: ENDBRANCH  16  17
DOCKED: ENDBRANCH  15  16
DOCKED: ENDBRANCH  14  15
DOCKED: ENDBRANCH  13  14
DOCKED: ENDBRANCH  12  13
DOCKED: ENDBRANCH   1  12
DOCKED: TORSDOF 8
DOCKED: TER
DOCKED: ENDMDL
________________________________________________________________________________


	BEGINNING GENETIC ALGORITHM DOCKING 3 of 100
Run: 3 Seed: 239762084 1598095127 [ Run 3 of 100 GA/GALS ]
Beginning LAMARCKIAN GENETIC ALGORITHM (LGA), with a maximum of 2500000 energy evaluations.

Final-Value: -15.085


	FINAL GENETIC ALGORITHM DOCKED STATE
	_______________________________________________


Detailed state:  trans 27.269 -15.610 0.353 quatxyzw 0.343662 0.010877 -0.624901 -0.700911 center 0.185 0.077 0.153 ntor 8 -128.8200 179.6674 137.3085 86.4723 37.6826 140.2148 -139.7284 49.5999
State:	 27.269 -15.610   0.353   0.482  0.015 -0.876 -91.000   -128.82  179.67  137.31   86.47   37.68  140.21 -139.73   49.60

DOCKED: MODEL        3
DOCKED: USER    Run = 3
DOCKED: USER    DPF = ligand_dock.biased.dpf
DOCKED: USER  
DOCKED: USER    Estimated Free Energy of Binding    =  -12.05 kcal/mol  [=(1)+(2)+(3)-(4)]
DOCKED: USER    Estimated Inhibition Constant, Ki   =    1.46 nM (nanomolar)  [Temperature = 298.15 K]
DOCKED: USER    
DOCKED: USER    (1) Final Intermolecular Energy     =  -14.44 kcal/mol
DOCKED: USER        vdW + Hbond + desolv Energy     =  -14.44 kcal/mol
DOCKED: USER        Electrostatic Energy            =   +0.00 kcal/mol
DOCKED: USER    (2) Final Total Internal Energy     =   -0.65 kcal/mol
DOCKED: USER    (3) Torsional Free Energy           =   +2.39 kcal/mol
DOCKED: USER    (4) Unbound System's Energy  [=(2)] =   -0.65 kcal/mol
DOCKED: USER    
DOCKED: USER    
DOCKED: USER    NEWDPF move ligand.pdbqt
DOCKED: USER    NEWDPF about 0.185000 0.077000 0.153000
DOCKED: USER    NEWDPF tran0 27.269063 -15.610385 0.353405
DOCKED: USER    NEWDPF quaternion0 0.343662 0.010877 -0.624901 -0.700911
DOCKED: USER    NEWDPF axisangle0 0.481827 0.015250 -0.876134 -90.999689
DOCKED: USER    NEWDPF quat0 0.481827 0.015250 -0.876134 -90.999689
DOCKED: USER    NEWDPF dihe0 -128.82 179.67 137.31 86.47 37.68 140.21 -139.73 49.60 
DOCKED: USER  keepresnum = 1 
DOCKED: USER  
DOCKED: REMARK  Name = 
DOCKED: REMARK  8 active torsions:
DOCKED: REMARK  status: ('A' for Active; 'I' for Inactive)
DOCKED: REMARK    1  A    between atoms: C_2  and  C_10
DOCKED: REMARK    2  A    between atoms: N_3  and  C_4
DOCKED: REMARK    3  A    between atoms: C_10  and  C_11
DOCKED: REMARK    4  A    between atoms: C_11  and  C_12
DOCKED: REMARK    5  A    between atoms: C_12  and  C_13
DOCKED: REMARK    6  A    between atoms: C_13  and  C_14
DOCKED: REMARK    7  A    between atoms: C_14  and  C_15
DOCKED: REMARK    8  A    between atoms: C_15  and  C_16
DOCKED: REMARK                            x       y       z     vdW  Elec       q    Type
DOCKED: REMARK                         _______ _______ _______ _____ _____    ______ ____
DOCKED: USER                              x       y       z     vdW  Elec       q    Type
DOCKED: USER                           _______ _______ _______ _____ _____    ______ ____
DOCKED: ROOT
DOCKED: ATOM      1  C   UNL     1      27.609 -15.152   0.279 -0.30 -0.00    +0.000 C 
DOCKED: ENDROOT
DOCKED: BRANCH   1   3
DOCKED: ATOM      2  O   UNL     1      26.420 -13.516   1.545 -0.35 -0.00    +0.000 OA
DOCKED: ATOM      3  C   UNL     1      27.383 -14.329   1.512 -0.25 -0.00    +0.000 C 
DOCKED: ATOM      4  N   UNL     1      28.260 -14.474   2.640 -0.31 -0.00    +0.000 N 
DOCKED: ATOM      5  H   UNL     1      28.884 -15.235   2.645 -1.98 -0.00    +0.000 HD
DOCKED: BRANCH   4   6
DOCKED: ATOM      6  C   UNL     1      28.284 -13.575   3.762 -0.36 -0.00    +0.000 A 
DOCKED: ATOM      7  C   UNL     1      28.003 -12.214   3.560 -0.25 -0.00    +0.000 A 
DOCKED: ATOM      8  C   UNL     1      27.996 -11.325   4.638 -0.31 +0.00    +0.000 A 
DOCKED: ATOM      9  C   UNL     1      28.254 -11.788   5.930 -0.35 +0.00    +0.000 A 
DOCKED: ATOM     10  C   UNL     1      28.511 -13.145   6.147 -0.38 -0.00    +0.000 A 
DOCKED: ATOM     11  C   UNL     1      28.521 -14.038   5.070 -0.47 -0.00    +0.000 A 
DOCKED: ENDBRANCH   4   6
DOCKED: ENDBRANCH   1   3
DOCKED: BRANCH   1  12
DOCKED: ATOM     12  C   UNL     1      26.272 -15.655  -0.278 -0.30 -0.00    +0.000 C 
DOCKED: BRANCH  12  13
DOCKED: ATOM     13  C   UNL     1      26.323 -17.127  -0.721 -0.57 -0.00    +0.000 C 
DOCKED: BRANCH  13  14
DOCKED: ATOM     14  C   UNL     1      25.308 -17.471  -1.831 -0.58 -0.00    +0.000 C 
DOCKED: BRANCH  14  15
DOCKED: ATOM     15  C   UNL     1      23.853 -17.343  -1.348 -0.69 -0.00    +0.000 C 
DOCKED: BRANCH  15  16
DOCKED: ATOM     16  C   UNL     1      23.238 -18.701  -0.984 -0.82 -0.00    +0.000 C 
DOCKED: BRANCH  16  17
DOCKED: ATOM     17  C   UNL     1      21.741 -18.684  -1.096 -0.80 -0.00    +0.000 C 
DOCKED: ATOM     18  N   UNL     1      21.054 -19.742  -1.769 -0.65 -0.00    +0.000 N 
DOCKED: ATOM     19  O   UNL     1      19.704 -19.734  -1.858 -2.27 -0.00    +0.000 OA
DOCKED: ATOM     20  O   UNL     1      21.087 -17.744  -0.569 -1.92 -0.00    +0.000 OA
DOCKED: ATOM     21  H   UNL     1      21.566 -20.480  -2.170 -0.51 -0.00    +0.000 HD
DOCKED: ENDBRANCH  16  17
DOCKED: ENDBRANCH  15  16
DOCKED: ENDBRANCH  14  15
DOCKED: ENDBRANCH  13  14
DOCKED: ENDBRANCH  12  13
DOCKED: ENDBRANCH   1  12
DOCKED: TORSDOF 8
DOCKED: TER
DOCKED: ENDMDL
________________________________________________________________________________


	BEGINNING GENETIC ALGORITHM DOCKING 4 of 100
Run: 4 Seed: 1190891442 1753664189 [ Run 4 of 100 GA/GALS ]
Beginning LAMARCKIAN GENETIC ALGORITHM (LGA), with a maximum of 2500000 energy evaluations.

Final-Value: -11.682


	FINAL GENETIC ALGORITHM DOCKED STATE
	_______________________________________________


Detailed state:  trans 25.936 -14.721 -0.718 quatxyzw 0.322438 -0.800758 -0.047940 0.502516 center 0.185 0.077 0.153 ntor 8 47.2262 122.1410 113.9800 177.3021 -132.3618 -175.7735 179.9567 6.9967
State:	 25.936 -14.721  -0.718   0.373 -0.926 -0.055 119.667     47.23  122.14  113.98  177.30 -132.36 -175.77  179.96    7.00

DOCKED: MODEL        4
DOCKED: USER    Run = 4
DOCKED: USER    DPF = ligand_dock.biased.dpf
DOCKED: USER  
DOCKED: USER    Estimated Free Energy of Binding    =   -8.47 kcal/mol  [=(1)+(2)+(3)-(4)]
DOCKED: USER    Estimated Inhibition Constant, Ki   =  622.92 nM (nanomolar)  [Temperature = 298.15 K]
DOCKED: USER    
DOCKED: USER    (1) Final Intermolecular Energy     =  -10.85 kcal/mol
DOCKED: USER        vdW + Hbond + desolv Energy     =  -10.85 kcal/mol
DOCKED: USER        Electrostatic Energy            =   +0.00 kcal/mol
DOCKED: USER    (2) Final Total Internal Energy     =   -0.83 kcal/mol
DOCKED: USER    (3) Torsional Free Energy           =   +2.39 kcal/mol
DOCKED: USER    (4) Unbound System's Energy  [=(2)] =   -0.83 kcal/mol
DOCKED: USER    
DOCKED: USER    
DOCKED: USER    NEWDPF move ligand.pdbqt
DOCKED: USER    NEWDPF about 0.185000 0.077000 0.153000
DOCKED: USER    NEWDPF tran0 25.936196 -14.721040 -0.718327
DOCKED: USER    NEWDPF quaternion0 0.322438 -0.800758 -0.047940 0.502516
DOCKED: USER    NEWDPF axisangle0 0.372947 -0.926194 -0.055450 119.666811
DOCKED: USER    NEWDPF quat0 0.372947 -0.926194 -0.055450 119.666811
DOCKED: USER    NEWDPF dihe0 47.23 122.14 113.98 177.30 -132.36 -175.77 179.96 7.00 
DOCKED: USER  keepresnum = 1 
DOCKED: USER  
DOCKED: REMARK  Name = 
DOCKED: REMARK  8 active torsions:
DOCKED: REMARK  status: ('A' for Active; 'I' for Inactive)
DOCKED: REMARK    1  A    between atoms: C_2  and  C_10
DOCKED: REMARK    2  A    between atoms: N_3  and  C_4
DOCKED: REMARK    3  A    between atoms: C_10  and  C_11
DOCKED: REMARK    4  A    between atoms: C_11  and  C_12
DOCKED: REMARK    5  A    between atoms: C_12  and  C_13
DOCKED: REMARK    6  A    between atoms: C_13  and  C_14
DOCKED: REMARK    7  A    between atoms: C_14  and  C_15
DOCKED: REMARK    8  A    between atoms: C_15  and  C_16
DOCKED: REMARK                            x       y       z     vdW  Elec       q    Type
DOCKED: REMARK                         _______ _______ _______ _____ _____    ______ ____
DOCKED: USER                              x       y       z     vdW  Elec       q    Type
DOCKED: USER                           _______ _______ _______ _____ _____    ______ ____
DOCKED: ROOT
DOCKED: ATOM      1  C   UNL     1      25.546 -14.553  -0.330 -0.09 -0.00    +0.000 C 
DOCKED: ENDROOT
DOCKED: BRANCH   1   3
DOCKED: ATOM      2  O   UNL     1      26.295 -13.411   1.626 -0.37 -0.00    +0.000 OA
DOCKED: ATOM      3  C   UNL     1      26.203 -13.400   0.368 -0.32 -0.00    +0.000 C 
DOCKED: ATOM      4  N   UNL     1      26.719 -12.299  -0.396 -0.16 -0.00    +0.000 N 
DOCKED: ATOM      5  H   UNL     1      26.788 -12.406  -1.372 -0.00 -0.00    +0.000 HD
DOCKED: BRANCH   4   6
DOCKED: ATOM      6  C   UNL     1      27.141 -11.049   0.176 -0.16 +0.00    +0.000 A 
DOCKED: ATOM      7  C   UNL     1      26.210 -10.007   0.315 -0.27 +0.00    +0.000 A 
DOCKED: ATOM      8  C   UNL     1      26.590  -8.791   0.891 -0.20 +0.00    +0.000 A 
DOCKED: ATOM      9  C   UNL     1      27.897  -8.610   1.347 -0.11 +0.00    +0.000 A 
DOCKED: ATOM     10  C   UNL     1      28.826  -9.648   1.236 -0.05 +0.00    +0.000 A 
DOCKED: ATOM     11  C   UNL     1      28.451 -10.866   0.659 -0.07 -0.00    +0.000 A 
DOCKED: ENDBRANCH   4   6
DOCKED: ENDBRANCH   1   3
DOCKED: BRANCH   1  12
DOCKED: ATOM     12  C   UNL     1      26.535 -15.713  -0.489 -0.39 -0.00    +0.000 C 
DOCKED: BRANCH  12  13
DOCKED: ATOM     13  C   UNL     1      25.924 -16.927  -1.210 -0.57 -0.00    +0.000 C 
DOCKED: BRANCH  13  14
DOCKED: ATOM     14  C   UNL     1      25.683 -18.137  -0.282 -0.68 -0.00    +0.000 C 
DOCKED: BRANCH  14  15
DOCKED: ATOM     15  C   UNL     1      24.219 -18.611  -0.316 -0.69 -0.00    +0.000 C 
DOCKED: BRANCH  15  16
DOCKED: ATOM     16  C   UNL     1      23.310 -17.640  -1.082 -0.75 -0.00    +0.000 C 
DOCKED: BRANCH  16  17
DOCKED: ATOM     17  C   UNL     1      21.879 -18.094  -1.076 -0.68 -0.00    +0.000 C 
DOCKED: ATOM     18  N   UNL     1      21.543 -19.430  -1.458 -0.71 -0.00    +0.000 N 
DOCKED: ATOM     19  O   UNL     1      20.255 -19.844  -1.438 -2.21 -0.00    +0.000 OA
DOCKED: ATOM     20  O   UNL     1      20.974 -17.299  -0.706 -1.91 +0.00    +0.000 OA
DOCKED: ATOM     21  H   UNL     1      22.252 -20.053  -1.736 -0.43 -0.00    +0.000 HD
DOCKED: ENDBRANCH  16  17
DOCKED: ENDBRANCH  15  16
DOCKED: ENDBRANCH  14  15
DOCKED: ENDBRANCH  13  14
DOCKED: ENDBRANCH  12  13
DOCKED: ENDBRANCH   1  12
DOCKED: TORSDOF 8
DOCKED: TER
DOCKED: ENDMDL
________________________________________________________________________________


	BEGINNING GENETIC ALGORITHM DOCKING 5 of 100
Run: 5 Seed: 1434862037 23002517 [ Run 5 of 100 GA/GALS ]
Beginning LAMARCKIAN GENETIC ALGORITHM (LGA), with a maximum of 2500000 energy evaluations.

Final-Value: -12.884


	FINAL GENETIC ALGORITHM DOCKED STATE
	_______________________________________________


Detailed state:  trans 24.845 -14.932 -3.652 quatxyzw -0.449041 0.888705 -0.087355 0.030560 center 0.185 0.077 0.153 ntor 8 161.7870 -17.9943 26.2908 41.4328 -70.5373 -109.5331 -125.5567 17.2200
State:	 24.845 -14.932  -3.652  -0.449  0.889 -0.087 176.498    161.79  -17.99   26.29   41.43  -70.54 -109.53 -125.56   17.22

DOCKED: MODEL        5
DOCKED: USER    Run = 5
DOCKED: USER    DPF = ligand_dock.biased.dpf
DOCKED: USER  
DOCKED: USER    Estimated Free Energy of Binding    =   -9.71 kcal/mol  [=(1)+(2)+(3)-(4)]
DOCKED: USER    Estimated Inhibition Constant, Ki   =   75.86 nM (nanomolar)  [Temperature = 298.15 K]
DOCKED: USER    
DOCKED: USER    (1) Final Intermolecular Energy     =  -12.10 kcal/mol
DOCKED: USER        vdW + Hbond + desolv Energy     =  -12.10 kcal/mol
DOCKED: USER        Electrostatic Energy            =   +0.00 kcal/mol
DOCKED: USER    (2) Final Total Internal Energy     =   -0.78 kcal/mol
DOCKED: USER    (3) Torsional Free Energy           =   +2.39 kcal/mol
DOCKED: USER    (4) Unbound System's Energy  [=(2)] =   -0.78 kcal/mol
DOCKED: USER    
DOCKED: USER    
DOCKED: USER    NEWDPF move ligand.pdbqt
DOCKED: USER    NEWDPF about 0.185000 0.077000 0.153000
DOCKED: USER    NEWDPF tran0 24.844801 -14.931975 -3.651600
DOCKED: USER    NEWDPF quaternion0 -0.449041 0.888705 -0.087355 0.030560
DOCKED: USER    NEWDPF axisangle0 -0.449251 0.889121 -0.087396 176.497508
DOCKED: USER    NEWDPF quat0 -0.449251 0.889121 -0.087396 176.497508
DOCKED: USER    NEWDPF dihe0 161.79 -17.99 26.29 41.43 -70.54 -109.53 -125.56 17.22 
DOCKED: USER  keepresnum = 1 
DOCKED: USER  
DOCKED: REMARK  Name = 
DOCKED: REMARK  8 active torsions:
DOCKED: REMARK  status: ('A' for Active; 'I' for Inactive)
DOCKED: REMARK    1  A    between atoms: C_2  and  C_10
DOCKED: REMARK    2  A    between atoms: N_3  and  C_4
DOCKED: REMARK    3  A    between atoms: C_10  and  C_11
DOCKED: REMARK    4  A    between atoms: C_11  and  C_12
DOCKED: REMARK    5  A    between atoms: C_12  and  C_13
DOCKED: REMARK    6  A    between atoms: C_13  and  C_14
DOCKED: REMARK    7  A    between atoms: C_14  and  C_15
DOCKED: REMARK    8  A    between atoms: C_15  and  C_16
DOCKED: REMARK                            x       y       z     vdW  Elec       q    Type
DOCKED: REMARK                         _______ _______ _______ _____ _____    ______ ____
DOCKED: USER                              x       y       z     vdW  Elec       q    Type
DOCKED: USER                           _______ _______ _______ _____ _____    ______ ____
DOCKED: ROOT
DOCKED: ATOM      1  C   UNL     1      24.801 -14.474  -3.305 -0.20 -0.00    +0.000 C 
DOCKED: ENDROOT
DOCKED: BRANCH   1   3
DOCKED: ATOM      2  O   UNL     1      26.537 -13.255  -4.398 -0.35 -0.00    +0.000 OA
DOCKED: ATOM      3  C   UNL     1      25.304 -13.337  -4.143 -0.39 -0.00    +0.000 C 
DOCKED: ATOM      4  N   UNL     1      24.384 -12.356  -4.646 -0.35 -0.00    +0.000 N 
DOCKED: ATOM      5  H   UNL     1      23.421 -12.547  -4.577 -0.32 -0.00    +0.000 HD
DOCKED: BRANCH   4   6
DOCKED: ATOM      6  C   UNL     1      24.782 -11.110  -5.243 -0.39 -0.00    +0.000 A 
DOCKED: ATOM      7  C   UNL     1      24.245 -10.740  -6.487 -0.33 -0.00    +0.000 A 
DOCKED: ATOM      8  C   UNL     1      24.597  -9.523  -7.077 -0.31 -0.00    +0.000 A 
DOCKED: ATOM      9  C   UNL     1      25.476  -8.656  -6.423 -0.13 -0.00    +0.000 A 
DOCKED: ATOM     10  C   UNL     1      25.999  -9.002  -5.174 -0.13 -0.00    +0.000 A 
DOCKED: ATOM     11  C   UNL     1      25.650 -10.220  -4.582 -0.25 -0.00    +0.000 A 
DOCKED: ENDBRANCH   4   6
DOCKED: ENDBRANCH   1   3
DOCKED: BRANCH   1  12
DOCKED: ATOM     12  C   UNL     1      25.728 -15.687  -3.442 -0.55 -0.00    +0.000 C 
DOCKED: BRANCH  12  13
DOCKED: ATOM     13  C   UNL     1      25.139 -16.965  -2.822 -0.24 -0.00    +0.000 C 
DOCKED: BRANCH  13  14
DOCKED: ATOM     14  C   UNL     1      24.461 -16.731  -1.455 -0.64 -0.00    +0.000 C 
DOCKED: BRANCH  14  15
DOCKED: ATOM     15  C   UNL     1      24.020 -18.048  -0.792 -0.79 -0.00    +0.000 C 
DOCKED: BRANCH  15  16
DOCKED: ATOM     16  C   UNL     1      22.713 -17.894  -0.003 -0.71 -0.00    +0.000 C 
DOCKED: BRANCH  16  17
DOCKED: ATOM     17  C   UNL     1      21.516 -18.259  -0.831 -0.79 -0.00    +0.000 C 
DOCKED: ATOM     18  N   UNL     1      21.348 -19.595  -1.311 -0.69 -0.00    +0.000 N 
DOCKED: ATOM     19  O   UNL     1      20.261 -19.928  -2.045 -2.30 -0.00    +0.000 OA
DOCKED: ATOM     20  O   UNL     1      20.640 -17.387  -1.081 -2.03 -0.00    +0.000 OA
DOCKED: ATOM     21  H   UNL     1      22.027 -20.277  -1.106 -0.20 -0.00    +0.000 HD
DOCKED: ENDBRANCH  16  17
DOCKED: ENDBRANCH  15  16
DOCKED: ENDBRANCH  14  15
DOCKED: ENDBRANCH  13  14
DOCKED: ENDBRANCH  12  13
DOCKED: ENDBRANCH   1  12
DOCKED: TORSDOF 8
DOCKED: TER
DOCKED: ENDMDL
________________________________________________________________________________


	BEGINNING GENETIC ALGORITHM DOCKING 6 of 100
Run: 6 Seed: 1286279340 994469825 [ Run 6 of 100 GA/GALS ]
Beginning LAMARCKIAN GENETIC ALGORITHM (LGA), with a maximum of 2500000 energy evaluations.

Final-Value: -13.194


	FINAL GENETIC ALGORITHM DOCKED STATE
	_______________________________________________


Detailed state:  trans 27.044 -16.305 0.054 quatxyzw -0.428445 0.632646 0.585287 0.271354 center 0.185 0.077 0.153 ntor 8 -135.9550 130.5112 62.7098 -59.5406 -100.4189 -7.2731 -63.8061 51.6819
State:	 27.044 -16.305   0.054  -0.445  0.657  0.608 148.510   -135.95  130.51   62.71  -59.54 -100.42   -7.27  -63.81   51.68

DOCKED: MODEL        6
DOCKED: USER    Run = 6
DOCKED: USER    DPF = ligand_dock.biased.dpf
DOCKED: USER  
DOCKED: USER    Estimated Free Energy of Binding    =  -10.06 kcal/mol  [=(1)+(2)+(3)-(4)]
DOCKED: USER    Estimated Inhibition Constant, Ki   =   42.16 nM (nanomolar)  [Temperature = 298.15 K]
DOCKED: USER    
DOCKED: USER    (1) Final Intermolecular Energy     =  -12.45 kcal/mol
DOCKED: USER        vdW + Hbond + desolv Energy     =  -12.45 kcal/mol
DOCKED: USER        Electrostatic Energy            =   +0.00 kcal/mol
DOCKED: USER    (2) Final Total Internal Energy     =   -0.75 kcal/mol
DOCKED: USER    (3) Torsional Free Energy           =   +2.39 kcal/mol
DOCKED: USER    (4) Unbound System's Energy  [=(2)] =   -0.75 kcal/mol
DOCKED: USER    
DOCKED: USER    
DOCKED: USER    NEWDPF move ligand.pdbqt
DOCKED: USER    NEWDPF about 0.185000 0.077000 0.153000
DOCKED: USER    NEWDPF tran0 27.044256 -16.305218 0.053843
DOCKED: USER    NEWDPF quaternion0 -0.428445 0.632646 0.585287 0.271354
DOCKED: USER    NEWDPF axisangle0 -0.445147 0.657308 0.608104 148.510249
DOCKED: USER    NEWDPF quat0 -0.445147 0.657308 0.608104 148.510249
DOCKED: USER    NEWDPF dihe0 -135.95 130.51 62.71 -59.54 -100.42 -7.27 -63.81 51.68 
DOCKED: USER  keepresnum = 1 
DOCKED: USER  
DOCKED: REMARK  Name = 
DOCKED: REMARK  8 active torsions:
DOCKED: REMARK  status: ('A' for Active; 'I' for Inactive)
DOCKED: REMARK    1  A    between atoms: C_2  and  C_10
DOCKED: REMARK    2  A    between atoms: N_3  and  C_4
DOCKED: REMARK    3  A    between atoms: C_10  and  C_11
DOCKED: REMARK    4  A    between atoms: C_11  and  C_12
DOCKED: REMARK    5  A    between atoms: C_12  and  C_13
DOCKED: REMARK    6  A    between atoms: C_13  and  C_14
DOCKED: REMARK    7  A    between atoms: C_14  and  C_15
DOCKED: REMARK    8  A    between atoms: C_15  and  C_16
DOCKED: REMARK                            x       y       z     vdW  Elec       q    Type
DOCKED: REMARK                         _______ _______ _______ _____ _____    ______ ____
DOCKED: USER                              x       y       z     vdW  Elec       q    Type
DOCKED: USER                           _______ _______ _______ _____ _____    ______ ____
DOCKED: ROOT
DOCKED: ATOM      1  C   UNL     1      27.487 -16.284   0.421 -0.22 -0.00    +0.000 C 
DOCKED: ENDROOT
DOCKED: BRANCH   1   3
DOCKED: ATOM      2  O   UNL     1      26.788 -14.007   0.290 -0.34 -0.00    +0.000 OA
DOCKED: ATOM      3  C   UNL     1      27.512 -14.856   0.878 -0.27 -0.00    +0.000 C 
DOCKED: ATOM      4  N   UNL     1      28.354 -14.469   1.974 -0.27 -0.00    +0.000 N 
DOCKED: ATOM      5  H   UNL     1      28.765 -15.181   2.515 -1.81 -0.00    +0.000 HD
DOCKED: BRANCH   4   6
DOCKED: ATOM      6  C   UNL     1      28.637 -13.105   2.330 -0.18 -0.00    +0.000 A 
DOCKED: ATOM      7  C   UNL     1      29.635 -12.405   1.634 -0.06 -0.00    +0.000 A 
DOCKED: ATOM      8  C   UNL     1      29.912 -11.070   1.944 -0.03 -0.00    +0.000 A 
DOCKED: ATOM      9  C   UNL     1      29.184 -10.418   2.942 -0.08 +0.00    +0.000 A 
DOCKED: ATOM     10  C   UNL     1      28.172 -11.097   3.626 -0.22 +0.00    +0.000 A 
DOCKED: ATOM     11  C   UNL     1      27.894 -12.433   3.319 -0.26 -0.00    +0.000 A 
DOCKED: ENDBRANCH   4   6
DOCKED: ENDBRANCH   1   3
DOCKED: BRANCH   1  12
DOCKED: ATOM     12  C   UNL     1      27.299 -16.354  -1.099 -0.41 -0.00    +0.000 C 
DOCKED: BRANCH  12  13
DOCKED: ATOM     13  C   UNL     1      26.258 -17.403  -1.526 -0.47 -0.00    +0.000 C 
DOCKED: BRANCH  13  14
DOCKED: ATOM     14  C   UNL     1      24.853 -17.150  -0.939 -0.66 -0.00    +0.000 C 
DOCKED: BRANCH  14  15
DOCKED: ATOM     15  C   UNL     1      23.745 -17.802  -1.785 -0.57 -0.00    +0.000 C 
DOCKED: BRANCH  15  16
DOCKED: ATOM     16  C   UNL     1      23.025 -18.930  -1.034 -0.81 -0.00    +0.000 C 
DOCKED: BRANCH  16  17
DOCKED: ATOM     17  C   UNL     1      21.533 -18.779  -1.097 -0.81 -0.00    +0.000 C 
DOCKED: ATOM     18  N   UNL     1      20.717 -19.854  -1.569 -0.70 -0.00    +0.000 N 
DOCKED: ATOM     19  O   UNL     1      19.371 -19.724  -1.612 -1.86 -0.00    +0.000 OA
DOCKED: ATOM     20  O   UNL     1      20.997 -17.708  -0.705 -2.13 -0.00    +0.000 OA
DOCKED: ATOM     21  H   UNL     1      21.136 -20.694  -1.864 -0.30 -0.00    +0.000 HD
DOCKED: ENDBRANCH  16  17
DOCKED: ENDBRANCH  15  16
DOCKED: ENDBRANCH  14  15
DOCKED: ENDBRANCH  13  14
DOCKED: ENDBRANCH  12  13
DOCKED: ENDBRANCH   1  12
DOCKED: TORSDOF 8
DOCKED: TER
DOCKED: ENDMDL
________________________________________________________________________________


	BEGINNING GENETIC ALGORITHM DOCKING 7 of 100
Run: 7 Seed: 1541976398 1020096983 [ Run 7 of 100 GA/GALS ]
Beginning LAMARCKIAN GENETIC ALGORITHM (LGA), with a maximum of 2500000 energy evaluations.

Final-Value: -12.906


	FINAL GENETIC ALGORITHM DOCKED STATE
	_______________________________________________


Detailed state:  trans 26.931 -15.565 -0.819 quatxyzw 0.043033 0.948924 -0.214460 0.227373 center 0.185 0.077 0.153 ntor 8 -170.9360 90.7883 161.2130 30.3768 -178.1923 147.9754 162.4634 141.1048
State:	 26.931 -15.565  -0.819   0.044  0.974 -0.220 153.715   -170.94   90.79  161.21   30.38 -178.19  147.98  162.46  141.10

DOCKED: MODEL        7
DOCKED: USER    Run = 7
DOCKED: USER    DPF = ligand_dock.biased.dpf
DOCKED: USER  
DOCKED: USER    Estimated Free Energy of Binding    =   -9.67 kcal/mol  [=(1)+(2)+(3)-(4)]
DOCKED: USER    Estimated Inhibition Constant, Ki   =   81.15 nM (nanomolar)  [Temperature = 298.15 K]
DOCKED: USER    
DOCKED: USER    (1) Final Intermolecular Energy     =  -12.06 kcal/mol
DOCKED: USER        vdW + Hbond + desolv Energy     =  -12.06 kcal/mol
DOCKED: USER        Electrostatic Energy            =   +0.00 kcal/mol
DOCKED: USER    (2) Final Total Internal Energy     =   -0.85 kcal/mol
DOCKED: USER    (3) Torsional Free Energy           =   +2.39 kcal/mol
DOCKED: USER    (4) Unbound System's Energy  [=(2)] =   -0.85 kcal/mol
DOCKED: USER    
DOCKED: USER    
DOCKED: USER    NEWDPF move ligand.pdbqt
DOCKED: USER    NEWDPF about 0.185000 0.077000 0.153000
DOCKED: USER    NEWDPF tran0 26.930689 -15.565286 -0.819471
DOCKED: USER    NEWDPF quaternion0 0.043033 0.948924 -0.214460 0.227373
DOCKED: USER    NEWDPF axisangle0 0.044190 0.974447 -0.220228 153.715136
DOCKED: USER    NEWDPF quat0 0.044190 0.974447 -0.220228 153.715136
DOCKED: USER    NEWDPF dihe0 -170.94 90.79 161.21 30.38 -178.19 147.98 162.46 141.10 
DOCKED: USER  keepresnum = 1 
DOCKED: USER  
DOCKED: REMARK  Name = 
DOCKED: REMARK  8 active torsions:
DOCKED: REMARK  status: ('A' for Active; 'I' for Inactive)
DOCKED: REMARK    1  A    between atoms: C_2  and  C_10
DOCKED: REMARK    2  A    between atoms: N_3  and  C_4
DOCKED: REMARK    3  A    between atoms: C_10  and  C_11
DOCKED: REMARK    4  A    between atoms: C_11  and  C_12
DOCKED: REMARK    5  A    between atoms: C_12  and  C_13
DOCKED: REMARK    6  A    between atoms: C_13  and  C_14
DOCKED: REMARK    7  A    between atoms: C_14  and  C_15
DOCKED: REMARK    8  A    between atoms: C_15  and  C_16
DOCKED: REMARK                            x       y       z     vdW  Elec       q    Type
DOCKED: REMARK                         _______ _______ _______ _____ _____    ______ ____
DOCKED: USER                              x       y       z     vdW  Elec       q    Type
DOCKED: USER                           _______ _______ _______ _____ _____    ______ ____
DOCKED: ROOT
DOCKED: ATOM      1  C   UNL     1      27.378 -15.220  -0.707 -0.31 -0.00    +0.000 C 
DOCKED: ENDROOT
DOCKED: BRANCH   1   3
DOCKED: ATOM      2  O   UNL     1      29.513 -15.353  -1.763 -0.12 -0.00    +0.000 OA
DOCKED: ATOM      3  C   UNL     1      28.261 -15.370  -1.910 -0.23 -0.00    +0.000 C 
DOCKED: ATOM      4  N   UNL     1      27.677 -15.530  -3.212 -0.28 -0.00    +0.000 N 
DOCKED: ATOM      5  H   UNL     1      26.712 -15.713  -3.266 -0.01 -0.00    +0.000 HD
DOCKED: BRANCH   4   6
DOCKED: ATOM      6  C   UNL     1      28.415 -15.436  -4.443 -0.29 -0.00    +0.000 A 
DOCKED: ATOM      7  C   UNL     1      28.037 -14.482  -5.402 -0.34 -0.00    +0.000 A 
DOCKED: ATOM      8  C   UNL     1      28.754 -14.354  -6.594 -0.32 -0.00    +0.000 A 
DOCKED: ATOM      9  C   UNL     1      29.864 -15.167  -6.835 -0.29 -0.00    +0.000 A 
DOCKED: ATOM     10  C   UNL     1      30.264 -16.104  -5.879 -0.27 -0.00    +0.000 A 
DOCKED: ATOM     11  C   UNL     1      29.548 -16.235  -4.684 -0.26 -0.00    +0.000 A 
DOCKED: ENDBRANCH   4   6
DOCKED: ENDBRANCH   1   3
DOCKED: BRANCH   1  12
DOCKED: ATOM     12  C   UNL     1      26.880 -16.592  -0.238 -0.45 -0.00    +0.000 C 
DOCKED: BRANCH  12  13
DOCKED: ATOM     13  C   UNL     1      26.385 -17.478  -1.394 -0.49 -0.00    +0.000 C 
DOCKED: BRANCH  13  14
DOCKED: ATOM     14  C   UNL     1      25.191 -18.379  -1.012 -0.56 -0.00    +0.000 C 
DOCKED: BRANCH  14  15
DOCKED: ATOM     15  C   UNL     1      23.861 -17.605  -0.999 -0.75 -0.00    +0.000 C 
DOCKED: BRANCH  15  16
DOCKED: ATOM     16  C   UNL     1      22.812 -18.266  -0.095 -0.79 -0.00    +0.000 C 
DOCKED: BRANCH  16  17
DOCKED: ATOM     17  C   UNL     1      21.491 -18.416  -0.791 -0.82 -0.00    +0.000 C 
DOCKED: ATOM     18  N   UNL     1      21.189 -19.607  -1.521 -0.69 -0.00    +0.000 N 
DOCKED: ATOM     19  O   UNL     1      19.992 -19.749  -2.136 -2.33 -0.00    +0.000 OA
DOCKED: ATOM     20  O   UNL     1      20.633 -17.496  -0.707 -2.09 +0.00    +0.000 OA
DOCKED: ATOM     21  H   UNL     1      21.855 -20.330  -1.577 -0.36 -0.00    +0.000 HD
DOCKED: ENDBRANCH  16  17
DOCKED: ENDBRANCH  15  16
DOCKED: ENDBRANCH  14  15
DOCKED: ENDBRANCH  13  14
DOCKED: ENDBRANCH  12  13
DOCKED: ENDBRANCH   1  12
DOCKED: TORSDOF 8
DOCKED: TER
DOCKED: ENDMDL
________________________________________________________________________________


	BEGINNING GENETIC ALGORITHM DOCKING 8 of 100
Run: 8 Seed: 1284219050 647145298 [ Run 8 of 100 GA/GALS ]
Beginning LAMARCKIAN GENETIC ALGORITHM (LGA), with a maximum of 2500000 energy evaluations.

Final-Value: -15.018


	FINAL GENETIC ALGORITHM DOCKED STATE
	_______________________________________________


Detailed state:  trans 27.825 -15.411 0.148 quatxyzw 0.145887 0.325405 -0.339045 -0.870561 center 0.185 0.077 0.153 ntor 8 171.8534 179.0054 118.1798 116.7454 -86.7948 77.0418 166.3423 -76.0738
State:	 27.825 -15.411   0.148   0.296  0.661 -0.689 -58.952    171.85  179.01  118.18  116.75  -86.79   77.04  166.34  -76.07

DOCKED: MODEL        8
DOCKED: USER    Run = 8
DOCKED: USER    DPF = ligand_dock.biased.dpf
DOCKED: USER  
DOCKED: USER    Estimated Free Energy of Binding    =  -11.94 kcal/mol  [=(1)+(2)+(3)-(4)]
DOCKED: USER    Estimated Inhibition Constant, Ki   =    1.77 nM (nanomolar)  [Temperature = 298.15 K]
DOCKED: USER    
DOCKED: USER    (1) Final Intermolecular Energy     =  -14.33 kcal/mol
DOCKED: USER        vdW + Hbond + desolv Energy     =  -14.33 kcal/mol
DOCKED: USER        Electrostatic Energy            =   +0.00 kcal/mol
DOCKED: USER    (2) Final Total Internal Energy     =   -0.69 kcal/mol
DOCKED: USER    (3) Torsional Free Energy           =   +2.39 kcal/mol
DOCKED: USER    (4) Unbound System's Energy  [=(2)] =   -0.69 kcal/mol
DOCKED: USER    
DOCKED: USER    
DOCKED: USER    NEWDPF move ligand.pdbqt
DOCKED: USER    NEWDPF about 0.185000 0.077000 0.153000
DOCKED: USER    NEWDPF tran0 27.824990 -15.411244 0.148486
DOCKED: USER    NEWDPF quaternion0 0.145887 0.325405 -0.339045 -0.870561
DOCKED: USER    NEWDPF axisangle0 0.296481 0.661312 -0.689032 -58.952154
DOCKED: USER    NEWDPF quat0 0.296481 0.661312 -0.689032 -58.952154
DOCKED: USER    NEWDPF dihe0 171.85 179.01 118.18 116.75 -86.79 77.04 166.34 -76.07 
DOCKED: USER  keepresnum = 1 
DOCKED: USER  
DOCKED: REMARK  Name = 
DOCKED: REMARK  8 active torsions:
DOCKED: REMARK  status: ('A' for Active; 'I' for Inactive)
DOCKED: REMARK    1  A    between atoms: C_2  and  C_10
DOCKED: REMARK    2  A    between atoms: N_3  and  C_4
DOCKED: REMARK    3  A    between atoms: C_10  and  C_11
DOCKED: REMARK    4  A    between atoms: C_11  and  C_12
DOCKED: REMARK    5  A    between atoms: C_12  and  C_13
DOCKED: REMARK    6  A    between atoms: C_13  and  C_14
DOCKED: REMARK    7  A    between atoms: C_14  and  C_15
DOCKED: REMARK    8  A    between atoms: C_15  and  C_16
DOCKED: REMARK                            x       y       z     vdW  Elec       q    Type
DOCKED: REMARK                         _______ _______ _______ _____ _____    ______ ____
DOCKED: USER                              x       y       z     vdW  Elec       q    Type
DOCKED: USER                           _______ _______ _______ _____ _____    ______ ____
DOCKED: ROOT
DOCKED: ATOM      1  C   UNL     1      27.640 -14.878   0.034 -0.28 -0.00    +0.000 C 
DOCKED: ENDROOT
DOCKED: BRANCH   1   3
DOCKED: ATOM      2  O   UNL     1      26.452 -13.520   1.594 -0.35 -0.00    +0.000 OA
DOCKED: ATOM      3  C   UNL     1      27.450 -14.262   1.387 -0.28 -0.00    +0.000 C 
DOCKED: ATOM      4  N   UNL     1      28.402 -14.519   2.432 -0.26 -0.00    +0.000 N 
DOCKED: ATOM      5  H   UNL     1      29.063 -15.235   2.288 -1.92 -0.00    +0.000 HD
DOCKED: BRANCH   4   6
DOCKED: ATOM      6  C   UNL     1      28.451 -13.796   3.673 -0.36 -0.00    +0.000 A 
DOCKED: ATOM      7  C   UNL     1      28.104 -12.435   3.691 -0.27 -0.00    +0.000 A 
DOCKED: ATOM      8  C   UNL     1      28.119 -11.716   4.889 -0.33 +0.00    +0.000 A 
DOCKED: ATOM      9  C   UNL     1      28.466 -12.352   6.084 -0.37 -0.00    +0.000 A 
DOCKED: ATOM     10  C   UNL     1      28.791 -13.711   6.082 -0.34 -0.00    +0.000 A 
DOCKED: ATOM     11  C   UNL     1      28.778 -14.434   4.885 -0.45 -0.00    +0.000 A 
DOCKED: ENDBRANCH   4   6
DOCKED: ENDBRANCH   1   3
DOCKED: BRANCH   1  12
DOCKED: ATOM     12  C   UNL     1      27.054 -16.295   0.007 -0.39 -0.00    +0.000 C 
DOCKED: BRANCH  12  13
DOCKED: ATOM     13  C   UNL     1      25.636 -16.345  -0.587 -0.43 -0.00    +0.000 C 
DOCKED: BRANCH  13  14
DOCKED: ATOM     14  C   UNL     1      25.362 -17.615  -1.421 -0.62 -0.00    +0.000 C 
DOCKED: BRANCH  14  15
DOCKED: ATOM     15  C   UNL     1      23.876 -17.755  -1.794 -0.59 -0.00    +0.000 C 
DOCKED: BRANCH  15  16
DOCKED: ATOM     16  C   UNL     1      22.998 -18.076  -0.576 -0.82 -0.00    +0.000 C 
DOCKED: BRANCH  16  17
DOCKED: ATOM     17  C   UNL     1      21.575 -18.347  -0.970 -0.77 -0.00    +0.000 C 
DOCKED: ATOM     18  N   UNL     1      21.224 -19.575  -1.611 -0.66 -0.00    +0.000 N 
DOCKED: ATOM     19  O   UNL     1      19.939 -19.826  -1.953 -2.31 -0.00    +0.000 OA
DOCKED: ATOM     20  O   UNL     1      20.683 -17.496  -0.709 -2.09 +0.00    +0.000 OA
DOCKED: ATOM     21  H   UNL     1      21.920 -20.243  -1.805 -0.45 -0.00    +0.000 HD
DOCKED: ENDBRANCH  16  17
DOCKED: ENDBRANCH  15  16
DOCKED: ENDBRANCH  14  15
DOCKED: ENDBRANCH  13  14
DOCKED: ENDBRANCH  12  13
DOCKED: ENDBRANCH   1  12
DOCKED: TORSDOF 8
DOCKED: TER
DOCKED: ENDMDL
________________________________________________________________________________


	BEGINNING GENETIC ALGORITHM DOCKING 9 of 100
Run: 9 Seed: 481682117 187072662 [ Run 9 of 100 GA/GALS ]
Beginning LAMARCKIAN GENETIC ALGORITHM (LGA), with a maximum of 2500000 energy evaluations.

Final-Value: -13.522


	FINAL GENETIC ALGORITHM DOCKED STATE
	_______________________________________________


Detailed state:  trans 26.509 -15.174 -3.484 quatxyzw 0.441182 -0.053666 0.530361 0.721938 center 0.185 0.077 0.153 ntor 8 -140.5905 174.1737 120.5490 -48.9172 173.8525 121.8595 19.8171 18.4108
State:	 26.509 -15.174  -3.484   0.638 -0.078  0.766 87.571   -140.59  174.17  120.55  -48.92  173.85  121.86   19.82   18.41

DOCKED: MODEL        9
DOCKED: USER    Run = 9
DOCKED: USER    DPF = ligand_dock.biased.dpf
DOCKED: USER  
DOCKED: USER    Estimated Free Energy of Binding    =  -10.43 kcal/mol  [=(1)+(2)+(3)-(4)]
DOCKED: USER    Estimated Inhibition Constant, Ki   =   22.58 nM (nanomolar)  [Temperature = 298.15 K]
DOCKED: USER    
DOCKED: USER    (1) Final Intermolecular Energy     =  -12.82 kcal/mol
DOCKED: USER        vdW + Hbond + desolv Energy     =  -12.82 kcal/mol
DOCKED: USER        Electrostatic Energy            =   +0.00 kcal/mol
DOCKED: USER    (2) Final Total Internal Energy     =   -0.70 kcal/mol
DOCKED: USER    (3) Torsional Free Energy           =   +2.39 kcal/mol
DOCKED: USER    (4) Unbound System's Energy  [=(2)] =   -0.70 kcal/mol
DOCKED: USER    
DOCKED: USER    
DOCKED: USER    NEWDPF move ligand.pdbqt
DOCKED: USER    NEWDPF about 0.185000 0.077000 0.153000
DOCKED: USER    NEWDPF tran0 26.508590 -15.174348 -3.484443
DOCKED: USER    NEWDPF quaternion0 0.441182 -0.053666 0.530361 0.721938
DOCKED: USER    NEWDPF axisangle0 0.637586 -0.077557 0.766465 87.570526
DOCKED: USER    NEWDPF quat0 0.637586 -0.077557 0.766465 87.570526
DOCKED: USER    NEWDPF dihe0 -140.59 174.17 120.55 -48.92 173.85 121.86 19.82 18.41 
DOCKED: USER  keepresnum = 1 
DOCKED: USER  
DOCKED: REMARK  Name = 
DOCKED: REMARK  8 active torsions:
DOCKED: REMARK  status: ('A' for Active; 'I' for Inactive)
DOCKED: REMARK    1  A    between atoms: C_2  and  C_10
DOCKED: REMARK    2  A    between atoms: N_3  and  C_4
DOCKED: REMARK    3  A    between atoms: C_10  and  C_11
DOCKED: REMARK    4  A    between atoms: C_11  and  C_12
DOCKED: REMARK    5  A    between atoms: C_12  and  C_13
DOCKED: REMARK    6  A    between atoms: C_13  and  C_14
DOCKED: REMARK    7  A    between atoms: C_14  and  C_15
DOCKED: REMARK    8  A    between atoms: C_15  and  C_16
DOCKED: REMARK                            x       y       z     vdW  Elec       q    Type
DOCKED: REMARK                         _______ _______ _______ _____ _____    ______ ____
DOCKED: USER                              x       y       z     vdW  Elec       q    Type
DOCKED: USER                           _______ _______ _______ _____ _____    ______ ____
DOCKED: ROOT
DOCKED: ATOM      1  C   UNL     1      26.336 -15.172  -4.034 -0.55 -0.00    +0.000 C 
DOCKED: ENDROOT
DOCKED: BRANCH   1   3
DOCKED: ATOM      2  O   UNL     1      27.487 -13.162  -4.605 -0.24 -0.00    +0.000 OA
DOCKED: ATOM      3  C   UNL     1      26.373 -13.723  -4.419 -0.41 -0.00    +0.000 C 
DOCKED: ATOM      4  N   UNL     1      25.148 -12.990  -4.572 -0.34 -0.00    +0.000 N 
DOCKED: ATOM      5  H   UNL     1      24.305 -13.498  -4.592 -0.29 -0.00    +0.000 HD
DOCKED: BRANCH   4   6
DOCKED: ATOM      6  C   UNL     1      25.075 -11.560  -4.695 -0.31 -0.00    +0.000 A 
DOCKED: ATOM      7  C   UNL     1      25.941 -10.758  -3.934 -0.15 -0.00    +0.000 A 
DOCKED: ATOM      8  C   UNL     1      25.907  -9.366  -4.056 -0.19 -0.00    +0.000 A 
DOCKED: ATOM      9  C   UNL     1      25.019  -8.762  -4.948 -0.23 -0.00    +0.000 A 
DOCKED: ATOM     10  C   UNL     1      24.169  -9.550  -5.728 -0.37 -0.00    +0.000 A 
DOCKED: ATOM     11  C   UNL     1      24.199 -10.944  -5.609 -0.22 -0.00    +0.000 A 
DOCKED: ENDBRANCH   4   6
DOCKED: ENDBRANCH   1   3
DOCKED: BRANCH   1  12
DOCKED: ATOM     12  C   UNL     1      25.682 -15.340  -2.657 -0.51 -0.00    +0.000 C 
DOCKED: BRANCH  12  13
DOCKED: ATOM     13  C   UNL     1      25.868 -16.751  -2.074 -0.54 -0.00    +0.000 C 
DOCKED: BRANCH  13  14
DOCKED: ATOM     14  C   UNL     1      25.042 -17.003  -0.795 -0.63 -0.00    +0.000 C 
DOCKED: BRANCH  14  15
DOCKED: ATOM     15  C   UNL     1      23.535 -17.104  -1.088 -0.68 -0.00    +0.000 C 
DOCKED: BRANCH  15  16
DOCKED: ATOM     16  C   UNL     1      22.927 -18.414  -0.569 -0.83 -0.00    +0.000 C 
DOCKED: BRANCH  16  17
DOCKED: ATOM     17  C   UNL     1      21.509 -18.591  -1.028 -0.80 -0.00    +0.000 C 
DOCKED: ATOM     18  N   UNL     1      21.136 -19.736  -1.799 -0.60 -0.00    +0.000 N 
DOCKED: ATOM     19  O   UNL     1      19.855 -19.904  -2.200 -2.21 -0.00    +0.000 OA
DOCKED: ATOM     20  O   UNL     1      20.638 -17.739  -0.707 -2.26 +0.00    +0.000 OA
DOCKED: ATOM     21  H   UNL     1      21.815 -20.407  -2.039 -0.48 -0.00    +0.000 HD
DOCKED: ENDBRANCH  16  17
DOCKED: ENDBRANCH  15  16
DOCKED: ENDBRANCH  14  15
DOCKED: ENDBRANCH  13  14
DOCKED: ENDBRANCH  12  13
DOCKED: ENDBRANCH   1  12
DOCKED: TORSDOF 8
DOCKED: TER
DOCKED: ENDMDL
________________________________________________________________________________


	BEGINNING GENETIC ALGORITHM DOCKING 10 of 100
Run: 10 Seed: 348806076 1627056572 [ Run 10 of 100 GA/GALS ]
Beginning LAMARCKIAN GENETIC ALGORITHM (LGA), with a maximum of 2500000 energy evaluations.

Final-Value: -14.165


	FINAL GENETIC ALGORITHM DOCKED STATE
	_______________________________________________


Detailed state:  trans 28.065 -15.739 0.076 quatxyzw 0.136589 0.280319 -0.334477 -0.889320 center 0.185 0.077 0.153 ntor 8 -144.2244 166.6934 78.4408 19.0483 -55.7707 141.5595 179.5033 -80.2455
State:	 28.065 -15.739   0.076   0.299  0.613 -0.731 -54.424   -144.22  166.69   78.44   19.05  -55.77  141.56  179.50  -80.25

DOCKED: MODEL       10
DOCKED: USER    Run = 10
DOCKED: USER    DPF = ligand_dock.biased.dpf
DOCKED: USER  
DOCKED: USER    Estimated Free Energy of Binding    =  -11.07 kcal/mol  [=(1)+(2)+(3)-(4)]
DOCKED: USER    Estimated Inhibition Constant, Ki   =    7.70 nM (nanomolar)  [Temperature = 298.15 K]
DOCKED: USER    
DOCKED: USER    (1) Final Intermolecular Energy     =  -13.45 kcal/mol
DOCKED: USER        vdW + Hbond + desolv Energy     =  -13.45 kcal/mol
DOCKED: USER        Electrostatic Energy            =   +0.00 kcal/mol
DOCKED: USER    (2) Final Total Internal Energy     =   -0.71 kcal/mol
DOCKED: USER    (3) Torsional Free Energy           =   +2.39 kcal/mol
DOCKED: USER    (4) Unbound System's Energy  [=(2)] =   -0.71 kcal/mol
DOCKED: USER    
DOCKED: USER    
DOCKED: USER    NEWDPF move ligand.pdbqt
DOCKED: USER    NEWDPF about 0.185000 0.077000 0.153000
DOCKED: USER    NEWDPF tran0 28.064905 -15.739007 0.075521
DOCKED: USER    NEWDPF quaternion0 0.136589 0.280319 -0.334477 -0.889320
DOCKED: USER    NEWDPF axisangle0 0.298695 0.613006 -0.731440 -54.424131
DOCKED: USER    NEWDPF quat0 0.298695 0.613006 -0.731440 -54.424131
DOCKED: USER    NEWDPF dihe0 -144.22 166.69 78.44 19.05 -55.77 141.56 179.50 -80.25 
DOCKED: USER  keepresnum = 1 
DOCKED: USER  
DOCKED: REMARK  Name = 
DOCKED: REMARK  8 active torsions:
DOCKED: REMARK  status: ('A' for Active; 'I' for Inactive)
DOCKED: REMARK    1  A    between atoms: C_2  and  C_10
DOCKED: REMARK    2  A    between atoms: N_3  and  C_4
DOCKED: REMARK    3  A    between atoms: C_10  and  C_11
DOCKED: REMARK    4  A    between atoms: C_11  and  C_12
DOCKED: REMARK    5  A    between atoms: C_12  and  C_13
DOCKED: REMARK    6  A    between atoms: C_13  and  C_14
DOCKED: REMARK    7  A    between atoms: C_14  and  C_15
DOCKED: REMARK    8  A    between atoms: C_15  and  C_16
DOCKED: REMARK                            x       y       z     vdW  Elec       q    Type
DOCKED: REMARK                         _______ _______ _______ _____ _____    ______ ____
DOCKED: USER                              x       y       z     vdW  Elec       q    Type
DOCKED: USER                           _______ _______ _______ _____ _____    ______ ____
DOCKED: ROOT
DOCKED: ATOM      1  C   UNL     1      27.884 -15.215  -0.081 -0.28 -0.00    +0.000 C 
DOCKED: ENDROOT
DOCKED: BRANCH   1   3
DOCKED: ATOM      2  O   UNL     1      26.438 -14.011   1.385 -0.08 -0.00    +0.000 OA
DOCKED: ATOM      3  C   UNL     1      27.572 -14.537   1.219 -0.27 -0.00    +0.000 C 
DOCKED: ATOM      4  N   UNL     1      28.561 -14.491   2.259 -0.25 -0.00    +0.000 N 
DOCKED: ATOM      5  H   UNL     1      29.360 -15.058   2.162 -1.61 -0.00    +0.000 HD
DOCKED: BRANCH   4   6
DOCKED: ATOM      6  C   UNL     1      28.459 -13.667   3.433 -0.32 -0.00    +0.000 A 
DOCKED: ATOM      7  C   UNL     1      28.068 -12.324   3.300 -0.24 -0.00    +0.000 A 
DOCKED: ATOM      8  C   UNL     1      27.936 -11.510   4.428 -0.30 +0.00    +0.000 A 
DOCKED: ATOM      9  C   UNL     1      28.178 -12.032   5.701 -0.37 +0.00    +0.000 A 
DOCKED: ATOM     10  C   UNL     1      28.544 -13.372   5.848 -0.40 -0.00    +0.000 A 
DOCKED: ATOM     11  C   UNL     1      28.678 -14.190   4.721 -0.46 -0.00    +0.000 A 
DOCKED: ENDBRANCH   4   6
DOCKED: ENDBRANCH   1   3
DOCKED: BRANCH   1  12
DOCKED: ATOM     12  C   UNL     1      27.319 -16.640  -0.087 -0.41 -0.00    +0.000 C 
DOCKED: BRANCH  12  13
DOCKED: ATOM     13  C   UNL     1      25.913 -16.724  -0.706 -0.55 -0.00    +0.000 C 
DOCKED: BRANCH  13  14
DOCKED: ATOM     14  C   UNL     1      25.060 -17.880  -0.142 -0.65 -0.00    +0.000 C 
DOCKED: BRANCH  14  15
DOCKED: ATOM     15  C   UNL     1      23.913 -18.271  -1.091 -0.79 -0.00    +0.000 C 
DOCKED: BRANCH  15  16
DOCKED: ATOM     16  C   UNL     1      22.886 -19.190  -0.416 -0.67 -0.00    +0.000 C 
DOCKED: BRANCH  16  17
DOCKED: ATOM     17  C   UNL     1      21.494 -18.933  -0.916 -0.85 -0.00    +0.000 C 
DOCKED: ATOM     18  N   UNL     1      20.769 -19.961  -1.596 -0.57 -0.00    +0.000 N 
DOCKED: ATOM     19  O   UNL     1      19.509 -19.735  -2.034 -2.00 -0.00    +0.000 OA
DOCKED: ATOM     20  O   UNL     1      20.954 -17.814  -0.710 -2.18 -0.00    +0.000 OA
DOCKED: ATOM     21  H   UNL     1      21.189 -20.839  -1.746 -0.18 -0.00    +0.000 HD
DOCKED: ENDBRANCH  16  17
DOCKED: ENDBRANCH  15  16
DOCKED: ENDBRANCH  14  15
DOCKED: ENDBRANCH  13  14
DOCKED: ENDBRANCH  12  13
DOCKED: ENDBRANCH   1  12
DOCKED: TORSDOF 8
DOCKED: TER
DOCKED: ENDMDL
________________________________________________________________________________


	BEGINNING GENETIC ALGORITHM DOCKING 11 of 100
Run: 11 Seed: 74287512 2009929723 [ Run 11 of 100 GA/GALS ]
Beginning LAMARCKIAN GENETIC ALGORITHM (LGA), with a maximum of 2500000 energy evaluations.

Final-Value: -13.054


	FINAL GENETIC ALGORITHM DOCKED STATE
	_______________________________________________


Detailed state:  trans 26.114 -15.580 -3.780 quatxyzw -0.501594 0.436291 -0.646141 -0.374906 center 0.185 0.077 0.153 ntor 8 175.6932 47.1837 70.1763 -4.1323 -142.5344 176.9206 172.4849 49.0068
State:	 26.114 -15.580  -3.780  -0.541  0.471 -0.697 -135.963    175.69   47.18   70.18   -4.13 -142.53  176.92  172.48   49.01

DOCKED: MODEL       11
DOCKED: USER    Run = 11
DOCKED: USER    DPF = ligand_dock.biased.dpf
DOCKED: USER  
DOCKED: USER    Estimated Free Energy of Binding    =  -10.10 kcal/mol  [=(1)+(2)+(3)-(4)]
DOCKED: USER    Estimated Inhibition Constant, Ki   =   39.41 nM (nanomolar)  [Temperature = 298.15 K]
DOCKED: USER    
DOCKED: USER    (1) Final Intermolecular Energy     =  -12.49 kcal/mol
DOCKED: USER        vdW + Hbond + desolv Energy     =  -12.49 kcal/mol
DOCKED: USER        Electrostatic Energy            =   +0.00 kcal/mol
DOCKED: USER    (2) Final Total Internal Energy     =   -0.57 kcal/mol
DOCKED: USER    (3) Torsional Free Energy           =   +2.39 kcal/mol
DOCKED: USER    (4) Unbound System's Energy  [=(2)] =   -0.57 kcal/mol
DOCKED: USER    
DOCKED: USER    
DOCKED: USER    NEWDPF move ligand.pdbqt
DOCKED: USER    NEWDPF about 0.185000 0.077000 0.153000
DOCKED: USER    NEWDPF tran0 26.114257 -15.580056 -3.779523
DOCKED: USER    NEWDPF quaternion0 -0.501594 0.436291 -0.646141 -0.374906
DOCKED: USER    NEWDPF axisangle0 -0.541058 0.470616 -0.696977 -135.962978
DOCKED: USER    NEWDPF quat0 -0.541058 0.470616 -0.696977 -135.962978
DOCKED: USER    NEWDPF dihe0 175.69 47.18 70.18 -4.13 -142.53 176.92 172.48 49.01 
DOCKED: USER  keepresnum = 1 
DOCKED: USER  
DOCKED: REMARK  Name = 
DOCKED: REMARK  8 active torsions:
DOCKED: REMARK  status: ('A' for Active; 'I' for Inactive)
DOCKED: REMARK    1  A    between atoms: C_2  and  C_10
DOCKED: REMARK    2  A    between atoms: N_3  and  C_4
DOCKED: REMARK    3  A    between atoms: C_10  and  C_11
DOCKED: REMARK    4  A    between atoms: C_11  and  C_12
DOCKED: REMARK    5  A    between atoms: C_12  and  C_13
DOCKED: REMARK    6  A    between atoms: C_13  and  C_14
DOCKED: REMARK    7  A    between atoms: C_14  and  C_15
DOCKED: REMARK    8  A    between atoms: C_15  and  C_16
DOCKED: REMARK                            x       y       z     vdW  Elec       q    Type
DOCKED: REMARK                         _______ _______ _______ _____ _____    ______ ____
DOCKED: USER                              x       y       z     vdW  Elec       q    Type
DOCKED: USER                           _______ _______ _______ _____ _____    ______ ____
DOCKED: ROOT
DOCKED: ATOM      1  C   UNL     1      25.775 -15.319  -4.164 -0.59 -0.00    +0.000 C 
DOCKED: ENDROOT
DOCKED: BRANCH   1   3
DOCKED: ATOM      2  O   UNL     1      26.303 -13.163  -5.039 -0.32 -0.00    +0.000 OA
DOCKED: ATOM      3  C   UNL     1      26.687 -14.350  -4.854 -0.42 -0.00    +0.000 C 
DOCKED: ATOM      4  N   UNL     1      27.984 -14.778  -5.297 -0.37 -0.00    +0.000 N 
DOCKED: ATOM      5  H   UNL     1      28.315 -15.650  -4.983 -0.02 -0.00    +0.000 HD
DOCKED: BRANCH   4   6
DOCKED: ATOM      6  C   UNL     1      28.829 -14.014  -6.174 -0.28 -0.00    +0.000 A 
DOCKED: ATOM      7  C   UNL     1      29.923 -14.639  -6.794 -0.27 -0.00    +0.000 A 
DOCKED: ATOM      8  C   UNL     1      30.745 -13.924  -7.670 -0.17 -0.00    +0.000 A 
DOCKED: ATOM      9  C   UNL     1      30.473 -12.582  -7.947 -0.14 -0.00    +0.000 A 
DOCKED: ATOM     10  C   UNL     1      29.374 -11.955  -7.354 -0.13 -0.00    +0.000 A 
DOCKED: ATOM     11  C   UNL     1      28.550 -12.668  -6.476 -0.20 -0.00    +0.000 A 
DOCKED: ENDBRANCH   4   6
DOCKED: ENDBRANCH   1   3
DOCKED: BRANCH   1  12
DOCKED: ATOM     12  C   UNL     1      25.992 -15.267  -2.647 -0.48 -0.00    +0.000 C 
DOCKED: BRANCH  12  13
DOCKED: ATOM     13  C   UNL     1      26.011 -16.660  -1.996 -0.52 -0.00    +0.000 C 
DOCKED: BRANCH  13  14
DOCKED: ATOM     14  C   UNL     1      24.857 -16.889  -0.997 -0.64 -0.00    +0.000 C 
DOCKED: BRANCH  14  15
DOCKED: ATOM     15  C   UNL     1      23.880 -17.976  -1.478 -0.74 -0.00    +0.000 C 
DOCKED: BRANCH  15  16
DOCKED: ATOM     16  C   UNL     1      22.885 -18.390  -0.386 -0.83 -0.00    +0.000 C 
DOCKED: BRANCH  16  17
DOCKED: ATOM     17  C   UNL     1      21.495 -18.551  -0.929 -0.81 -0.00    +0.000 C 
DOCKED: ATOM     18  N   UNL     1      21.137 -19.723  -1.665 -0.64 -0.00    +0.000 N 
DOCKED: ATOM     19  O   UNL     1      19.881 -19.875  -2.143 -2.26 -0.00    +0.000 OA
DOCKED: ATOM     20  O   UNL     1      20.632 -17.659  -0.710 -2.21 +0.00    +0.000 OA
DOCKED: ATOM     21  H   UNL     1      21.809 -20.424  -1.826 -0.43 -0.00    +0.000 HD
DOCKED: ENDBRANCH  16  17
DOCKED: ENDBRANCH  15  16
DOCKED: ENDBRANCH  14  15
DOCKED: ENDBRANCH  13  14
DOCKED: ENDBRANCH  12  13
DOCKED: ENDBRANCH   1  12
DOCKED: TORSDOF 8
DOCKED: TER
DOCKED: ENDMDL
________________________________________________________________________________


	BEGINNING GENETIC ALGORITHM DOCKING 12 of 100
Run: 12 Seed: 1271506317 1596794925 [ Run 12 of 100 GA/GALS ]
Beginning LAMARCKIAN GENETIC ALGORITHM (LGA), with a maximum of 2500000 energy evaluations.

Final-Value: -14.255


	FINAL GENETIC ALGORITHM DOCKED STATE
	_______________________________________________


Detailed state:  trans 26.987 -14.941 -0.359 quatxyzw 0.397820 0.207453 -0.594609 -0.667190 center 0.185 0.077 0.153 ntor 8 -95.9521 49.7072 129.8201 -56.6267 178.0518 32.2050 -147.1473 62.6971
State:	 26.987 -14.941  -0.359   0.534  0.279 -0.798 -96.299    -95.95   49.71  129.82  -56.63  178.05   32.21 -147.15   62.70

DOCKED: MODEL       12
DOCKED: USER    Run = 12
DOCKED: USER    DPF = ligand_dock.biased.dpf
DOCKED: USER  
DOCKED: USER    Estimated Free Energy of Binding    =  -11.21 kcal/mol  [=(1)+(2)+(3)-(4)]
DOCKED: USER    Estimated Inhibition Constant, Ki   =    6.03 nM (nanomolar)  [Temperature = 298.15 K]
DOCKED: USER    
DOCKED: USER    (1) Final Intermolecular Energy     =  -13.60 kcal/mol
DOCKED: USER        vdW + Hbond + desolv Energy     =  -13.60 kcal/mol
DOCKED: USER        Electrostatic Energy            =   +0.00 kcal/mol
DOCKED: USER    (2) Final Total Internal Energy     =   -0.66 kcal/mol
DOCKED: USER    (3) Torsional Free Energy           =   +2.39 kcal/mol
DOCKED: USER    (4) Unbound System's Energy  [=(2)] =   -0.66 kcal/mol
DOCKED: USER    
DOCKED: USER    
DOCKED: USER    NEWDPF move ligand.pdbqt
DOCKED: USER    NEWDPF about 0.185000 0.077000 0.153000
DOCKED: USER    NEWDPF tran0 26.986915 -14.940692 -0.358642
DOCKED: USER    NEWDPF quaternion0 0.397820 0.207453 -0.594609 -0.667190
DOCKED: USER    NEWDPF axisangle0 0.534067 0.278503 -0.798254 -96.298942
DOCKED: USER    NEWDPF quat0 0.534067 0.278503 -0.798254 -96.298942
DOCKED: USER    NEWDPF dihe0 -95.95 49.71 129.82 -56.63 178.05 32.21 -147.15 62.70 
DOCKED: USER  keepresnum = 1 
DOCKED: USER  
DOCKED: REMARK  Name = 
DOCKED: REMARK  8 active torsions:
DOCKED: REMARK  status: ('A' for Active; 'I' for Inactive)
DOCKED: REMARK    1  A    between atoms: C_2  and  C_10
DOCKED: REMARK    2  A    between atoms: N_3  and  C_4
DOCKED: REMARK    3  A    between atoms: C_10  and  C_11
DOCKED: REMARK    4  A    between atoms: C_11  and  C_12
DOCKED: REMARK    5  A    between atoms: C_12  and  C_13
DOCKED: REMARK    6  A    between atoms: C_13  and  C_14
DOCKED: REMARK    7  A    between atoms: C_14  and  C_15
DOCKED: REMARK    8  A    between atoms: C_15  and  C_16
DOCKED: REMARK                            x       y       z     vdW  Elec       q    Type
DOCKED: REMARK                         _______ _______ _______ _____ _____    ______ ____
DOCKED: USER                              x       y       z     vdW  Elec       q    Type
DOCKED: USER                           _______ _______ _______ _____ _____    ______ ____
DOCKED: ROOT
DOCKED: ATOM      1  C   UNL     1      27.256 -14.433  -0.321 -0.28 -0.00    +0.000 C 
DOCKED: ENDROOT
DOCKED: BRANCH   1   3
DOCKED: ATOM      2  O   UNL     1      26.269 -13.395   1.586 -0.38 -0.00    +0.000 OA
DOCKED: ATOM      3  C   UNL     1      27.211 -14.106   1.141 -0.28 -0.00    +0.000 C 
DOCKED: ATOM      4  N   UNL     1      28.234 -14.602   2.019 -0.24 -0.00    +0.000 N 
DOCKED: ATOM      5  H   UNL     1      28.845 -15.290   1.673 -1.32 -0.00    +0.000 HD
DOCKED: BRANCH   4   6
DOCKED: ATOM      6  C   UNL     1      28.421 -14.153   3.372 -0.35 -0.00    +0.000 A 
DOCKED: ATOM      7  C   UNL     1      29.639 -14.412   4.021 -0.32 -0.00    +0.000 A 
DOCKED: ATOM      8  C   UNL     1      29.855 -13.965   5.327 -0.30 -0.00    +0.000 A 
DOCKED: ATOM      9  C   UNL     1      28.863 -13.242   5.993 -0.39 -0.00    +0.000 A 
DOCKED: ATOM     10  C   UNL     1      27.655 -12.957   5.349 -0.38 -0.00    +0.000 A 
DOCKED: ATOM     11  C   UNL     1      27.435 -13.404   4.042 -0.41 -0.00    +0.000 A 
DOCKED: ENDBRANCH   4   6
DOCKED: ENDBRANCH   1   3
DOCKED: BRANCH   1  12
DOCKED: ATOM     12  C   UNL     1      25.890 -14.940  -0.797 -0.38 -0.00    +0.000 C 
DOCKED: BRANCH  12  13
DOCKED: ATOM     13  C   UNL     1      25.961 -16.327  -1.456 -0.52 -0.00    +0.000 C 
DOCKED: BRANCH  13  14
DOCKED: ATOM     14  C   UNL     1      25.562 -17.480  -0.511 -0.64 -0.00    +0.000 C 
DOCKED: BRANCH  14  15
DOCKED: ATOM     15  C   UNL     1      24.041 -17.544  -0.284 -0.64 -0.00    +0.000 C 
DOCKED: BRANCH  15  16
DOCKED: ATOM     16  C   UNL     1      23.429 -18.853  -0.804 -0.81 -0.00    +0.000 C 
DOCKED: BRANCH  16  17
DOCKED: ATOM     17  C   UNL     1      21.941 -18.746  -0.969 -0.83 -0.00    +0.000 C 
DOCKED: ATOM     18  N   UNL     1      21.223 -19.733  -1.712 -0.58 -0.00    +0.000 N 
DOCKED: ATOM     19  O   UNL     1      19.880 -19.646  -1.848 -2.31 -0.00    +0.000 OA
DOCKED: ATOM     20  O   UNL     1      21.320 -17.794  -0.423 -1.73 -0.00    +0.000 OA
DOCKED: ATOM     21  H   UNL     1      21.709 -20.482  -2.128 -0.51 -0.00    +0.000 HD
DOCKED: ENDBRANCH  16  17
DOCKED: ENDBRANCH  15  16
DOCKED: ENDBRANCH  14  15
DOCKED: ENDBRANCH  13  14
DOCKED: ENDBRANCH  12  13
DOCKED: ENDBRANCH   1  12
DOCKED: TORSDOF 8
DOCKED: TER
DOCKED: ENDMDL
________________________________________________________________________________


	BEGINNING GENETIC ALGORITHM DOCKING 13 of 100
Run: 13 Seed: 545722965 1547642157 [ Run 13 of 100 GA/GALS ]
Beginning LAMARCKIAN GENETIC ALGORITHM (LGA), with a maximum of 2500000 energy evaluations.

Final-Value: -13.441


	FINAL GENETIC ALGORITHM DOCKED STATE
	_______________________________________________


Detailed state:  trans 26.725 -15.117 -3.305 quatxyzw -0.291346 -0.880924 -0.134533 -0.347838 center 0.185 0.077 0.153 ntor 8 -177.8509 141.3258 60.6571 46.3709 28.2667 -176.9205 -71.3865 28.3750
State:	 26.725 -15.117  -3.305  -0.311 -0.940 -0.143 -139.290   -177.85  141.33   60.66   46.37   28.27 -176.92  -71.39   28.37

DOCKED: MODEL       13
DOCKED: USER    Run = 13
DOCKED: USER    DPF = ligand_dock.biased.dpf
DOCKED: USER  
DOCKED: USER    Estimated Free Energy of Binding    =  -10.35 kcal/mol  [=(1)+(2)+(3)-(4)]
DOCKED: USER    Estimated Inhibition Constant, Ki   =   26.12 nM (nanomolar)  [Temperature = 298.15 K]
DOCKED: USER    
DOCKED: USER    (1) Final Intermolecular Energy     =  -12.73 kcal/mol
DOCKED: USER        vdW + Hbond + desolv Energy     =  -12.73 kcal/mol
DOCKED: USER        Electrostatic Energy            =   +0.00 kcal/mol
DOCKED: USER    (2) Final Total Internal Energy     =   -0.71 kcal/mol
DOCKED: USER    (3) Torsional Free Energy           =   +2.39 kcal/mol
DOCKED: USER    (4) Unbound System's Energy  [=(2)] =   -0.71 kcal/mol
DOCKED: USER    
DOCKED: USER    
DOCKED: USER    NEWDPF move ligand.pdbqt
DOCKED: USER    NEWDPF about 0.185000 0.077000 0.153000
DOCKED: USER    NEWDPF tran0 26.724628 -15.116590 -3.305324
DOCKED: USER    NEWDPF quaternion0 -0.291346 -0.880924 -0.134533 -0.347838
DOCKED: USER    NEWDPF axisangle0 -0.310751 -0.939597 -0.143494 -139.289697
DOCKED: USER    NEWDPF quat0 -0.310751 -0.939597 -0.143494 -139.289697
DOCKED: USER    NEWDPF dihe0 -177.85 141.33 60.66 46.37 28.27 -176.92 -71.39 28.37 
DOCKED: USER  keepresnum = 1 
DOCKED: USER  
DOCKED: REMARK  Name = 
DOCKED: REMARK  8 active torsions:
DOCKED: REMARK  status: ('A' for Active; 'I' for Inactive)
DOCKED: REMARK    1  A    between atoms: C_2  and  C_10
DOCKED: REMARK    2  A    between atoms: N_3  and  C_4
DOCKED: REMARK    3  A    between atoms: C_10  and  C_11
DOCKED: REMARK    4  A    between atoms: C_11  and  C_12
DOCKED: REMARK    5  A    between atoms: C_12  and  C_13
DOCKED: REMARK    6  A    between atoms: C_13  and  C_14
DOCKED: REMARK    7  A    between atoms: C_14  and  C_15
DOCKED: REMARK    8  A    between atoms: C_15  and  C_16
DOCKED: REMARK                            x       y       z     vdW  Elec       q    Type
DOCKED: REMARK                         _______ _______ _______ _____ _____    ______ ____
DOCKED: USER                              x       y       z     vdW  Elec       q    Type
DOCKED: USER                           _______ _______ _______ _____ _____    ______ ____
DOCKED: ROOT
DOCKED: ATOM      1  C   UNL     1      27.279 -15.222  -3.191 -0.35 -0.00    +0.000 C 
DOCKED: ENDROOT
DOCKED: BRANCH   1   3
DOCKED: ATOM      2  O   UNL     1      27.226 -15.331  -5.573 -1.09 +0.00    +0.000 OA
DOCKED: ATOM      3  C   UNL     1      27.936 -15.207  -4.539 -0.39 -0.00    +0.000 C 
DOCKED: ATOM      4  N   UNL     1      29.360 -15.053  -4.640 -0.19 -0.00    +0.000 N 
DOCKED: ATOM      5  H   UNL     1      29.854 -14.785  -3.832 +0.00 -0.00    +0.000 HD
DOCKED: BRANCH   4   6
DOCKED: ATOM      6  C   UNL     1      30.110 -15.268  -5.848 -0.23 -0.00    +0.000 A 
DOCKED: ATOM      7  C   UNL     1      30.274 -16.576  -6.333 -0.31 -0.00    +0.000 A 
DOCKED: ATOM      8  C   UNL     1      30.976 -16.809  -7.518 -0.28 -0.00    +0.000 A 
DOCKED: ATOM      9  C   UNL     1      31.509 -15.737  -8.239 -0.19 -0.00    +0.000 A 
DOCKED: ATOM     10  C   UNL     1      31.333 -14.430  -7.779 -0.17 -0.00    +0.000 A 
DOCKED: ATOM     11  C   UNL     1      30.630 -14.193  -6.592 -0.17 -0.00    +0.000 A 
DOCKED: ENDBRANCH   4   6
DOCKED: ENDBRANCH   1   3
DOCKED: BRANCH   1  12
DOCKED: ATOM     12  C   UNL     1      25.977 -16.029  -3.242 -0.47 -0.00    +0.000 C 
DOCKED: BRANCH  12  13
DOCKED: ATOM     13  C   UNL     1      25.001 -15.665  -2.110 -0.39 -0.00    +0.000 C 
DOCKED: BRANCH  13  14
DOCKED: ATOM     14  C   UNL     1      24.839 -16.779  -1.054 -0.63 -0.00    +0.000 C 
DOCKED: BRANCH  14  15
DOCKED: ATOM     15  C   UNL     1      23.978 -17.945  -1.569 -0.72 -0.00    +0.000 C 
DOCKED: BRANCH  15  16
DOCKED: ATOM     16  C   UNL     1      23.027 -18.487  -0.493 -0.83 -0.00    +0.000 C 
DOCKED: BRANCH  16  17
DOCKED: ATOM     17  C   UNL     1      21.611 -18.556  -0.983 -0.81 -0.00    +0.000 C 
DOCKED: ATOM     18  N   UNL     1      21.159 -19.685  -1.734 -0.62 -0.00    +0.000 N 
DOCKED: ATOM     19  O   UNL     1      19.878 -19.755  -2.164 -2.32 -0.00    +0.000 OA
DOCKED: ATOM     20  O   UNL     1      20.809 -17.624  -0.706 -2.15 +0.00    +0.000 OA
DOCKED: ATOM     21  H   UNL     1      21.784 -20.417  -1.940 -0.46 -0.00    +0.000 HD
DOCKED: ENDBRANCH  16  17
DOCKED: ENDBRANCH  15  16
DOCKED: ENDBRANCH  14  15
DOCKED: ENDBRANCH  13  14
DOCKED: ENDBRANCH  12  13
DOCKED: ENDBRANCH   1  12
DOCKED: TORSDOF 8
DOCKED: TER
DOCKED: ENDMDL
________________________________________________________________________________


	BEGINNING GENETIC ALGORITHM DOCKING 14 of 100
Run: 14 Seed: 2120348888 1037715902 [ Run 14 of 100 GA/GALS ]
Beginning LAMARCKIAN GENETIC ALGORITHM (LGA), with a maximum of 2500000 energy evaluations.

Final-Value: -13.474


	FINAL GENETIC ALGORITHM DOCKED STATE
	_______________________________________________


Detailed state:  trans 25.393 -15.276 -3.028 quatxyzw -0.090783 0.813003 -0.553864 0.154980 center 0.185 0.077 0.153 ntor 8 -68.1256 86.1359 123.9980 -60.1342 -163.0223 129.9322 26.9566 119.4392
State:	 25.393 -15.276  -3.028  -0.092  0.823 -0.561 162.169    -68.13   86.14  124.00  -60.13 -163.02  129.93   26.96  119.44

DOCKED: MODEL       14
DOCKED: USER    Run = 14
DOCKED: USER    DPF = ligand_dock.biased.dpf
DOCKED: USER  
DOCKED: USER    Estimated Free Energy of Binding    =  -10.27 kcal/mol  [=(1)+(2)+(3)-(4)]
DOCKED: USER    Estimated Inhibition Constant, Ki   =   29.81 nM (nanomolar)  [Temperature = 298.15 K]
DOCKED: USER    
DOCKED: USER    (1) Final Intermolecular Energy     =  -12.65 kcal/mol
DOCKED: USER        vdW + Hbond + desolv Energy     =  -12.65 kcal/mol
DOCKED: USER        Electrostatic Energy            =   +0.00 kcal/mol
DOCKED: USER    (2) Final Total Internal Energy     =   -0.82 kcal/mol
DOCKED: USER    (3) Torsional Free Energy           =   +2.39 kcal/mol
DOCKED: USER    (4) Unbound System's Energy  [=(2)] =   -0.82 kcal/mol
DOCKED: USER    
DOCKED: USER    
DOCKED: USER    NEWDPF move ligand.pdbqt
DOCKED: USER    NEWDPF about 0.185000 0.077000 0.153000
DOCKED: USER    NEWDPF tran0 25.392897 -15.275715 -3.028115
DOCKED: USER    NEWDPF quaternion0 -0.090783 0.813003 -0.553864 0.154980
DOCKED: USER    NEWDPF axisangle0 -0.091894 0.822946 -0.560638 162.168732
DOCKED: USER    NEWDPF quat0 -0.091894 0.822946 -0.560638 162.168732
DOCKED: USER    NEWDPF dihe0 -68.13 86.14 124.00 -60.13 -163.02 129.93 26.96 119.44 
DOCKED: USER  keepresnum = 1 
DOCKED: USER  
DOCKED: REMARK  Name = 
DOCKED: REMARK  8 active torsions:
DOCKED: REMARK  status: ('A' for Active; 'I' for Inactive)
DOCKED: REMARK    1  A    between atoms: C_2  and  C_10
DOCKED: REMARK    2  A    between atoms: N_3  and  C_4
DOCKED: REMARK    3  A    between atoms: C_10  and  C_11
DOCKED: REMARK    4  A    between atoms: C_11  and  C_12
DOCKED: REMARK    5  A    between atoms: C_12  and  C_13
DOCKED: REMARK    6  A    between atoms: C_13  and  C_14
DOCKED: REMARK    7  A    between atoms: C_14  and  C_15
DOCKED: REMARK    8  A    between atoms: C_15  and  C_16
DOCKED: REMARK                            x       y       z     vdW  Elec       q    Type
DOCKED: REMARK                         _______ _______ _______ _____ _____    ______ ____
DOCKED: USER                              x       y       z     vdW  Elec       q    Type
DOCKED: USER                           _______ _______ _______ _____ _____    ______ ____
DOCKED: ROOT
DOCKED: ATOM      1  C   UNL     1      25.647 -14.793  -3.211 -0.52 -0.00    +0.000 C 
DOCKED: ENDROOT
DOCKED: BRANCH   1   3
DOCKED: ATOM      2  O   UNL     1      26.296 -15.554  -5.377 -1.18 +0.00    +0.000 OA
DOCKED: ATOM      3  C   UNL     1      26.663 -15.273  -4.204 -0.51 -0.00    +0.000 C 
DOCKED: ATOM      4  N   UNL     1      28.039 -15.408  -3.813 -0.28 -0.00    +0.000 N 
DOCKED: ATOM      5  H   UNL     1      28.315 -15.016  -2.954 +0.00 -0.00    +0.000 HD
DOCKED: BRANCH   4   6
DOCKED: ATOM      6  C   UNL     1      29.037 -16.082  -4.599 -0.26 -0.00    +0.000 A 
DOCKED: ATOM      7  C   UNL     1      29.798 -17.106  -4.012 -0.22 -0.00    +0.000 A 
DOCKED: ATOM      8  C   UNL     1      30.757 -17.794  -4.762 -0.23 -0.00    +0.000 A 
DOCKED: ATOM      9  C   UNL     1      30.954 -17.476  -6.108 -0.26 -0.00    +0.000 A 
DOCKED: ATOM     10  C   UNL     1      30.186 -16.475  -6.709 -0.29 -0.00    +0.000 A 
DOCKED: ATOM     11  C   UNL     1      29.226 -15.784  -5.961 -0.32 -0.00    +0.000 A 
DOCKED: ENDBRANCH   4   6
DOCKED: ENDBRANCH   1   3
DOCKED: BRANCH   1  12
DOCKED: ATOM     12  C   UNL     1      25.681 -15.665  -1.951 -0.51 -0.00    +0.000 C 
DOCKED: BRANCH  12  13
DOCKED: ATOM     13  C   UNL     1      25.206 -17.105  -2.205 -0.59 -0.00    +0.000 C 
DOCKED: BRANCH  13  14
DOCKED: ATOM     14  C   UNL     1      24.843 -17.871  -0.916 -0.72 -0.00    +0.000 C 
DOCKED: BRANCH  14  15
DOCKED: ATOM     15  C   UNL     1      23.343 -17.775  -0.586 -0.78 -0.00    +0.000 C 
DOCKED: BRANCH  15  16
DOCKED: ATOM     16  C   UNL     1      22.632 -19.130  -0.701 -0.80 -0.00    +0.000 C 
DOCKED: BRANCH  16  17
DOCKED: ATOM     17  C   UNL     1      21.140 -18.983  -0.653 -0.88 -0.00    +0.000 C 
DOCKED: ATOM     18  N   UNL     1      20.306 -20.127  -0.448 -0.72 -0.00    +0.000 N 
DOCKED: ATOM     19  O   UNL     1      18.961 -19.993  -0.390 -1.24 -0.00    +0.000 OA
DOCKED: ATOM     20  O   UNL     1      20.621 -17.840  -0.767 -2.31 -0.00    +0.000 OA
DOCKED: ATOM     21  H   UNL     1      20.714 -21.017  -0.349 -0.03 -0.00    +0.000 HD
DOCKED: ENDBRANCH  16  17
DOCKED: ENDBRANCH  15  16
DOCKED: ENDBRANCH  14  15
DOCKED: ENDBRANCH  13  14
DOCKED: ENDBRANCH  12  13
DOCKED: ENDBRANCH   1  12
DOCKED: TORSDOF 8
DOCKED: TER
DOCKED: ENDMDL
________________________________________________________________________________


	BEGINNING GENETIC ALGORITHM DOCKING 15 of 100
Run: 15 Seed: 563887215 2143066432 [ Run 15 of 100 GA/GALS ]
Beginning LAMARCKIAN GENETIC ALGORITHM (LGA), with a maximum of 2500000 energy evaluations.

Final-Value: -13.430


	FINAL GENETIC ALGORITHM DOCKED STATE
	_______________________________________________


Detailed state:  trans 26.129 -15.197 -3.384 quatxyzw 0.243505 0.932281 -0.028438 0.265987 center 0.185 0.077 0.153 ntor 8 -131.5575 104.1722 112.2120 68.5789 8.5763 151.9043 -32.7697 -17.4775
State:	 26.129 -15.197  -3.384   0.253  0.967 -0.030 149.149   -131.56  104.17  112.21   68.58    8.58  151.90  -32.77  -17.48

DOCKED: MODEL       15
DOCKED: USER    Run = 15
DOCKED: USER    DPF = ligand_dock.biased.dpf
DOCKED: USER  
DOCKED: USER    Estimated Free Energy of Binding    =  -10.37 kcal/mol  [=(1)+(2)+(3)-(4)]
DOCKED: USER    Estimated Inhibition Constant, Ki   =   25.10 nM (nanomolar)  [Temperature = 298.15 K]
DOCKED: USER    
DOCKED: USER    (1) Final Intermolecular Energy     =  -12.76 kcal/mol
DOCKED: USER        vdW + Hbond + desolv Energy     =  -12.76 kcal/mol
DOCKED: USER        Electrostatic Energy            =   +0.00 kcal/mol
DOCKED: USER    (2) Final Total Internal Energy     =   -0.68 kcal/mol
DOCKED: USER    (3) Torsional Free Energy           =   +2.39 kcal/mol
DOCKED: USER    (4) Unbound System's Energy  [=(2)] =   -0.68 kcal/mol
DOCKED: USER    
DOCKED: USER    
DOCKED: USER    NEWDPF move ligand.pdbqt
DOCKED: USER    NEWDPF about 0.185000 0.077000 0.153000
DOCKED: USER    NEWDPF tran0 26.129078 -15.197463 -3.384443
DOCKED: USER    NEWDPF quaternion0 0.243505 0.932281 -0.028438 0.265987
DOCKED: USER    NEWDPF axisangle0 0.252605 0.967120 -0.029501 149.148809
DOCKED: USER    NEWDPF quat0 0.252605 0.967120 -0.029501 149.148809
DOCKED: USER    NEWDPF dihe0 -131.56 104.17 112.21 68.58 8.58 151.90 -32.77 -17.48 
DOCKED: USER  keepresnum = 1 
DOCKED: USER  
DOCKED: REMARK  Name = 
DOCKED: REMARK  8 active torsions:
DOCKED: REMARK  status: ('A' for Active; 'I' for Inactive)
DOCKED: REMARK    1  A    between atoms: C_2  and  C_10
DOCKED: REMARK    2  A    between atoms: N_3  and  C_4
DOCKED: REMARK    3  A    between atoms: C_10  and  C_11
DOCKED: REMARK    4  A    between atoms: C_11  and  C_12
DOCKED: REMARK    5  A    between atoms: C_12  and  C_13
DOCKED: REMARK    6  A    between atoms: C_13  and  C_14
DOCKED: REMARK    7  A    between atoms: C_14  and  C_15
DOCKED: REMARK    8  A    between atoms: C_15  and  C_16
DOCKED: REMARK                            x       y       z     vdW  Elec       q    Type
DOCKED: REMARK                         _______ _______ _______ _____ _____    ______ ____
DOCKED: USER                              x       y       z     vdW  Elec       q    Type
DOCKED: USER                           _______ _______ _______ _____ _____    ______ ____
DOCKED: ROOT
DOCKED: ATOM      1  C   UNL     1      26.674 -15.140  -3.207 -0.43 -0.00    +0.000 C 
DOCKED: ENDROOT
DOCKED: BRANCH   1   3
DOCKED: ATOM      2  O   UNL     1      26.942 -15.254  -5.575 -1.15 +0.00    +0.000 OA
DOCKED: ATOM      3  C   UNL     1      27.484 -15.388  -4.445 -0.41 -0.00    +0.000 C 
DOCKED: ATOM      4  N   UNL     1      28.864 -15.772  -4.333 -0.28 -0.00    +0.000 N 
DOCKED: ATOM      5  H   UNL     1      29.295 -15.694  -3.452 +0.00 -0.00    +0.000 HD
DOCKED: BRANCH   4   6
DOCKED: ATOM      6  C   UNL     1      29.654 -16.265  -5.428 -0.29 -0.00    +0.000 A 
DOCKED: ATOM      7  C   UNL     1      30.010 -17.623  -5.464 -0.30 -0.00    +0.000 A 
DOCKED: ATOM      8  C   UNL     1      30.756 -18.131  -6.531 -0.32 -0.00    +0.000 A 
DOCKED: ATOM      9  C   UNL     1      31.141 -17.293  -7.579 -0.29 -0.00    +0.000 A 
DOCKED: ATOM     10  C   UNL     1      30.772 -15.945  -7.567 -0.25 -0.00    +0.000 A 
DOCKED: ATOM     11  C   UNL     1      30.026 -15.432  -6.500 -0.29 -0.00    +0.000 A 
DOCKED: ENDBRANCH   4   6
DOCKED: ENDBRANCH   1   3
DOCKED: BRANCH   1  12
DOCKED: ATOM     12  C   UNL     1      25.562 -16.188  -3.081 -0.49 -0.00    +0.000 C 
DOCKED: BRANCH  12  13
DOCKED: ATOM     13  C   UNL     1      25.085 -16.384  -1.632 -0.59 -0.00    +0.000 C 
DOCKED: BRANCH  13  14
DOCKED: ATOM     14  C   UNL     1      24.778 -17.854  -1.277 -0.71 -0.00    +0.000 C 
DOCKED: BRANCH  14  15
DOCKED: ATOM     15  C   UNL     1      23.287 -18.195  -1.457 -0.75 -0.00    +0.000 C 
DOCKED: BRANCH  15  16
DOCKED: ATOM     16  C   UNL     1      22.622 -18.612  -0.138 -0.79 -0.00    +0.000 C 
DOCKED: BRANCH  16  17
DOCKED: ATOM     17  C   UNL     1      21.169 -18.936  -0.325 -0.84 -0.00    +0.000 C 
DOCKED: ATOM     18  N   UNL     1      20.627 -20.153   0.193 -0.69 -0.00    +0.000 N 
DOCKED: ATOM     19  O   UNL     1      19.314 -20.440   0.038 -1.12 -0.00    +0.000 OA
DOCKED: ATOM     20  O   UNL     1      20.418 -18.116  -0.918 -2.17 -0.00    +0.000 OA
DOCKED: ATOM     21  H   UNL     1      21.213 -20.788   0.666 -0.58 -0.00    +0.000 HD
DOCKED: ENDBRANCH  16  17
DOCKED: ENDBRANCH  15  16
DOCKED: ENDBRANCH  14  15
DOCKED: ENDBRANCH  13  14
DOCKED: ENDBRANCH  12  13
DOCKED: ENDBRANCH   1  12
DOCKED: TORSDOF 8
DOCKED: TER
DOCKED: ENDMDL
________________________________________________________________________________


	BEGINNING GENETIC ALGORITHM DOCKING 16 of 100
Run: 16 Seed: 1863556403 1883172612 [ Run 16 of 100 GA/GALS ]
Beginning LAMARCKIAN GENETIC ALGORITHM (LGA), with a maximum of 2500000 energy evaluations.

Final-Value: -13.376


	FINAL GENETIC ALGORITHM DOCKED STATE
	_______________________________________________


Detailed state:  trans 25.514 -16.362 -3.204 quatxyzw -0.309109 0.802397 -0.509520 0.031627 center 0.185 0.077 0.153 ntor 8 3.1322 97.6870 179.4870 156.0588 39.6262 79.3527 48.5470 -15.6431
State:	 25.514 -16.362  -3.204  -0.309  0.803 -0.510 176.375      3.13   97.69  179.49  156.06   39.63   79.35   48.55  -15.64

DOCKED: MODEL       16
DOCKED: USER    Run = 16
DOCKED: USER    DPF = ligand_dock.biased.dpf
DOCKED: USER  
DOCKED: USER    Estimated Free Energy of Binding    =  -10.10 kcal/mol  [=(1)+(2)+(3)-(4)]
DOCKED: USER    Estimated Inhibition Constant, Ki   =   39.51 nM (nanomolar)  [Temperature = 298.15 K]
DOCKED: USER    
DOCKED: USER    (1) Final Intermolecular Energy     =  -12.49 kcal/mol
DOCKED: USER        vdW + Hbond + desolv Energy     =  -12.49 kcal/mol
DOCKED: USER        Electrostatic Energy            =   +0.00 kcal/mol
DOCKED: USER    (2) Final Total Internal Energy     =   -0.89 kcal/mol
DOCKED: USER    (3) Torsional Free Energy           =   +2.39 kcal/mol
DOCKED: USER    (4) Unbound System's Energy  [=(2)] =   -0.89 kcal/mol
DOCKED: USER    
DOCKED: USER    
DOCKED: USER    NEWDPF move ligand.pdbqt
DOCKED: USER    NEWDPF about 0.185000 0.077000 0.153000
DOCKED: USER    NEWDPF tran0 25.514024 -16.361989 -3.203535
DOCKED: USER    NEWDPF quaternion0 -0.309109 0.802397 -0.509520 0.031627
DOCKED: USER    NEWDPF axisangle0 -0.309264 0.802798 -0.509775 176.375220
DOCKED: USER    NEWDPF quat0 -0.309264 0.802798 -0.509775 176.375220
DOCKED: USER    NEWDPF dihe0 3.13 97.69 179.49 156.06 39.63 79.35 48.55 -15.64 
DOCKED: USER  keepresnum = 1 
DOCKED: USER  
DOCKED: REMARK  Name = 
DOCKED: REMARK  8 active torsions:
DOCKED: REMARK  status: ('A' for Active; 'I' for Inactive)
DOCKED: REMARK    1  A    between atoms: C_2  and  C_10
DOCKED: REMARK    2  A    between atoms: N_3  and  C_4
DOCKED: REMARK    3  A    between atoms: C_10  and  C_11
DOCKED: REMARK    4  A    between atoms: C_11  and  C_12
DOCKED: REMARK    5  A    between atoms: C_12  and  C_13
DOCKED: REMARK    6  A    between atoms: C_13  and  C_14
DOCKED: REMARK    7  A    between atoms: C_14  and  C_15
DOCKED: REMARK    8  A    between atoms: C_15  and  C_16
DOCKED: REMARK                            x       y       z     vdW  Elec       q    Type
DOCKED: REMARK                         _______ _______ _______ _____ _____    ______ ____
DOCKED: USER                              x       y       z     vdW  Elec       q    Type
DOCKED: USER                           _______ _______ _______ _____ _____    ______ ____
DOCKED: ROOT
DOCKED: ATOM      1  C   UNL     1      25.501 -15.797  -3.312 -0.54 -0.00    +0.000 C 
DOCKED: ENDROOT
DOCKED: BRANCH   1   3
DOCKED: ATOM      2  O   UNL     1      26.163 -15.465  -5.579 -1.09 +0.00    +0.000 OA
DOCKED: ATOM      3  C   UNL     1      26.533 -15.609  -4.383 -0.48 -0.00    +0.000 C 
DOCKED: ATOM      4  N   UNL     1      27.927 -15.593  -4.039 -0.32 -0.00    +0.000 N 
DOCKED: ATOM      5  H   UNL     1      28.168 -15.532  -3.087 -0.00 -0.00    +0.000 HD
DOCKED: BRANCH   4   6
DOCKED: ATOM      6  C   UNL     1      28.995 -15.665  -5.000 -0.30 -0.00    +0.000 A 
DOCKED: ATOM      7  C   UNL     1      29.842 -16.785  -5.006 -0.27 -0.00    +0.000 A 
DOCKED: ATOM      8  C   UNL     1      30.870 -16.890  -5.946 -0.24 -0.00    +0.000 A 
DOCKED: ATOM      9  C   UNL     1      31.054 -15.885  -6.899 -0.23 -0.00    +0.000 A 
DOCKED: ATOM     10  C   UNL     1      30.202 -14.777  -6.918 -0.26 -0.00    +0.000 A 
DOCKED: ATOM     11  C   UNL     1      29.172 -14.668  -5.978 -0.30 -0.00    +0.000 A 
DOCKED: ENDBRANCH   4   6
DOCKED: ENDBRANCH   1   3
DOCKED: BRANCH   1  12
DOCKED: ATOM     12  C   UNL     1      26.041 -16.710  -2.206 -0.50 -0.00    +0.000 C 
DOCKED: BRANCH  12  13
DOCKED: ATOM     13  C   UNL     1      25.310 -16.526  -0.865 -0.55 -0.00    +0.000 C 
DOCKED: BRANCH  13  14
DOCKED: ATOM     14  C   UNL     1      25.185 -17.829  -0.047 -0.61 -0.00    +0.000 C 
DOCKED: BRANCH  14  15
DOCKED: ATOM     15  C   UNL     1      24.332 -18.887  -0.769 -0.63 -0.00    +0.000 C 
DOCKED: BRANCH  15  16
DOCKED: ATOM     16  C   UNL     1      23.252 -18.257  -1.659 -0.60 -0.00    +0.000 C 
DOCKED: BRANCH  16  17
DOCKED: ATOM     17  C   UNL     1      21.871 -18.536  -1.142 -0.73 -0.00    +0.000 C 
DOCKED: ATOM     18  N   UNL     1      21.120 -19.643  -1.646 -0.67 -0.00    +0.000 N 
DOCKED: ATOM     19  O   UNL     1      19.881 -19.904  -1.169 -2.02 -0.00    +0.000 OA
DOCKED: ATOM     20  O   UNL     1      21.384 -17.805  -0.238 -1.58 -0.00    +0.000 OA
DOCKED: ATOM     21  H   UNL     1      21.506 -20.219  -2.344 -0.57 -0.00    +0.000 HD
DOCKED: ENDBRANCH  16  17
DOCKED: ENDBRANCH  15  16
DOCKED: ENDBRANCH  14  15
DOCKED: ENDBRANCH  13  14
DOCKED: ENDBRANCH  12  13
DOCKED: ENDBRANCH   1  12
DOCKED: TORSDOF 8
DOCKED: TER
DOCKED: ENDMDL
________________________________________________________________________________


	BEGINNING GENETIC ALGORITHM DOCKING 17 of 100
Run: 17 Seed: 58297248 1548172391 [ Run 17 of 100 GA/GALS ]
Beginning LAMARCKIAN GENETIC ALGORITHM (LGA), with a maximum of 2500000 energy evaluations.

Final-Value: -13.734


	FINAL GENETIC ALGORITHM DOCKED STATE
	_______________________________________________


Detailed state:  trans 25.512 -15.927 -3.275 quatxyzw -0.086075 0.935912 -0.296938 0.168785 center 0.185 0.077 0.153 ntor 8 179.9363 87.4446 33.1726 3.1191 -173.9474 27.9004 14.5019 -35.0054
State:	 25.512 -15.927  -3.275  -0.087  0.950 -0.301 160.566    179.94   87.44   33.17    3.12 -173.95   27.90   14.50  -35.01

DOCKED: MODEL       17
DOCKED: USER    Run = 17
DOCKED: USER    DPF = ligand_dock.biased.dpf
DOCKED: USER  
DOCKED: USER    Estimated Free Energy of Binding    =  -10.56 kcal/mol  [=(1)+(2)+(3)-(4)]
DOCKED: USER    Estimated Inhibition Constant, Ki   =   18.23 nM (nanomolar)  [Temperature = 298.15 K]
DOCKED: USER    
DOCKED: USER    (1) Final Intermolecular Energy     =  -12.94 kcal/mol
DOCKED: USER        vdW + Hbond + desolv Energy     =  -12.94 kcal/mol
DOCKED: USER        Electrostatic Energy            =   +0.00 kcal/mol
DOCKED: USER    (2) Final Total Internal Energy     =   -0.79 kcal/mol
DOCKED: USER    (3) Torsional Free Energy           =   +2.39 kcal/mol
DOCKED: USER    (4) Unbound System's Energy  [=(2)] =   -0.79 kcal/mol
DOCKED: USER    
DOCKED: USER    
DOCKED: USER    NEWDPF move ligand.pdbqt
DOCKED: USER    NEWDPF about 0.185000 0.077000 0.153000
DOCKED: USER    NEWDPF tran0 25.512335 -15.926941 -3.275290
DOCKED: USER    NEWDPF quaternion0 -0.086075 0.935912 -0.296938 0.168785
DOCKED: USER    NEWDPF axisangle0 -0.087328 0.949535 -0.301260 160.565645
DOCKED: USER    NEWDPF quat0 -0.087328 0.949535 -0.301260 160.565645
DOCKED: USER    NEWDPF dihe0 179.94 87.44 33.17 3.12 -173.95 27.90 14.50 -35.01 
DOCKED: USER  keepresnum = 1 
DOCKED: USER  
DOCKED: REMARK  Name = 
DOCKED: REMARK  8 active torsions:
DOCKED: REMARK  status: ('A' for Active; 'I' for Inactive)
DOCKED: REMARK    1  A    between atoms: C_2  and  C_10
DOCKED: REMARK    2  A    between atoms: N_3  and  C_4
DOCKED: REMARK    3  A    between atoms: C_10  and  C_11
DOCKED: REMARK    4  A    between atoms: C_11  and  C_12
DOCKED: REMARK    5  A    between atoms: C_12  and  C_13
DOCKED: REMARK    6  A    between atoms: C_13  and  C_14
DOCKED: REMARK    7  A    between atoms: C_14  and  C_15
DOCKED: REMARK    8  A    between atoms: C_15  and  C_16
DOCKED: REMARK                            x       y       z     vdW  Elec       q    Type
DOCKED: REMARK                         _______ _______ _______ _____ _____    ______ ____
DOCKED: USER                              x       y       z     vdW  Elec       q    Type
DOCKED: USER                           _______ _______ _______ _____ _____    ______ ____
DOCKED: ROOT
DOCKED: ATOM      1  C   UNL     1      25.828 -15.453  -3.192 -0.55 -0.00    +0.000 C 
DOCKED: ENDROOT
DOCKED: BRANCH   1   3
DOCKED: ATOM      2  O   UNL     1      26.344 -15.249  -5.512 -1.07 +0.00    +0.000 OA
DOCKED: ATOM      3  C   UNL     1      26.784 -15.446  -4.346 -0.47 -0.00    +0.000 C 
DOCKED: ATOM      4  N   UNL     1      28.185 -15.662  -4.118 -0.31 -0.00    +0.000 N 
DOCKED: ATOM      5  H   UNL     1      28.511 -15.636  -3.190 -0.00 -0.00    +0.000 HD
DOCKED: BRANCH   4   6
DOCKED: ATOM      6  C   UNL     1      29.142 -15.917  -5.161 -0.30 -0.00    +0.000 A 
DOCKED: ATOM      7  C   UNL     1      29.944 -17.068  -5.094 -0.28 -0.00    +0.000 A 
DOCKED: ATOM      8  C   UNL     1      30.863 -17.350  -6.108 -0.27 -0.00    +0.000 A 
DOCKED: ATOM      9  C   UNL     1      30.980 -16.495  -7.206 -0.27 -0.00    +0.000 A 
DOCKED: ATOM     10  C   UNL     1      30.171 -15.359  -7.295 -0.22 -0.00    +0.000 A 
DOCKED: ATOM     11  C   UNL     1      29.250 -15.072  -6.282 -0.34 -0.00    +0.000 A 
DOCKED: ENDBRANCH   4   6
DOCKED: ENDBRANCH   1   3
DOCKED: BRANCH   1  12
DOCKED: ATOM     12  C   UNL     1      25.738 -16.857  -2.583 -0.33 -0.00    +0.000 C 
DOCKED: BRANCH  12  13
DOCKED: ATOM     13  C   UNL     1      25.711 -16.842  -1.045 -0.58 -0.00    +0.000 C 
DOCKED: BRANCH  13  14
DOCKED: ATOM     14  C   UNL     1      24.285 -16.874  -0.454 -0.42 -0.00    +0.000 C 
DOCKED: BRANCH  14  15
DOCKED: ATOM     15  C   UNL     1      23.719 -18.303  -0.381 -0.79 -0.00    +0.000 C 
DOCKED: BRANCH  15  16
DOCKED: ATOM     16  C   UNL     1      22.334 -18.347   0.279 -0.66 -0.00    +0.000 C 
DOCKED: BRANCH  16  17
DOCKED: ATOM     17  C   UNL     1      21.235 -18.449  -0.738 -0.82 -0.00    +0.000 C 
DOCKED: ATOM     18  N   UNL     1      20.887 -19.716  -1.302 -0.78 -0.00    +0.000 N 
DOCKED: ATOM     19  O   UNL     1      19.886 -19.811  -2.208 -2.29 -0.00    +0.000 OA
DOCKED: ATOM     20  O   UNL     1      20.597 -17.416  -1.074 -2.04 -0.00    +0.000 OA
DOCKED: ATOM     21  H   UNL     1      21.379 -20.524  -1.031 -0.15 -0.00    +0.000 HD
DOCKED: ENDBRANCH  16  17
DOCKED: ENDBRANCH  15  16
DOCKED: ENDBRANCH  14  15
DOCKED: ENDBRANCH  13  14
DOCKED: ENDBRANCH  12  13
DOCKED: ENDBRANCH   1  12
DOCKED: TORSDOF 8
DOCKED: TER
DOCKED: ENDMDL
________________________________________________________________________________


	BEGINNING GENETIC ALGORITHM DOCKING 18 of 100
Run: 18 Seed: 1538366163 45685397 [ Run 18 of 100 GA/GALS ]
Beginning LAMARCKIAN GENETIC ALGORITHM (LGA), with a maximum of 2500000 energy evaluations.

Final-Value: -12.857


	FINAL GENETIC ALGORITHM DOCKED STATE
	_______________________________________________


Detailed state:  trans 24.913 -16.720 -1.411 quatxyzw -0.218519 0.800603 -0.557287 0.026734 center 0.185 0.077 0.153 ntor 8 137.0701 -162.1260 8.0682 -25.7603 73.3255 -137.2552 -84.6220 112.7131
State:	 24.913 -16.720  -1.411  -0.219  0.801 -0.557 176.936    137.07 -162.13    8.07  -25.76   73.33 -137.26  -84.62  112.71

DOCKED: MODEL       18
DOCKED: USER    Run = 18
DOCKED: USER    DPF = ligand_dock.biased.dpf
DOCKED: USER  
DOCKED: USER    Estimated Free Energy of Binding    =   -9.71 kcal/mol  [=(1)+(2)+(3)-(4)]
DOCKED: USER    Estimated Inhibition Constant, Ki   =   75.82 nM (nanomolar)  [Temperature = 298.15 K]
DOCKED: USER    
DOCKED: USER    (1) Final Intermolecular Energy     =  -12.10 kcal/mol
DOCKED: USER        vdW + Hbond + desolv Energy     =  -12.10 kcal/mol
DOCKED: USER        Electrostatic Energy            =   +0.00 kcal/mol
DOCKED: USER    (2) Final Total Internal Energy     =   -0.76 kcal/mol
DOCKED: USER    (3) Torsional Free Energy           =   +2.39 kcal/mol
DOCKED: USER    (4) Unbound System's Energy  [=(2)] =   -0.76 kcal/mol
DOCKED: USER    
DOCKED: USER    
DOCKED: USER    NEWDPF move ligand.pdbqt
DOCKED: USER    NEWDPF about 0.185000 0.077000 0.153000
DOCKED: USER    NEWDPF tran0 24.912695 -16.719755 -1.410769
DOCKED: USER    NEWDPF quaternion0 -0.218519 0.800603 -0.557287 0.026734
DOCKED: USER    NEWDPF axisangle0 -0.218597 0.800890 -0.557486 176.936088
DOCKED: USER    NEWDPF quat0 -0.218597 0.800890 -0.557486 176.936088
DOCKED: USER    NEWDPF dihe0 137.07 -162.13 8.07 -25.76 73.33 -137.26 -84.62 112.71 
DOCKED: USER  keepresnum = 1 
DOCKED: USER  
DOCKED: REMARK  Name = 
DOCKED: REMARK  8 active torsions:
DOCKED: REMARK  status: ('A' for Active; 'I' for Inactive)
DOCKED: REMARK    1  A    between atoms: C_2  and  C_10
DOCKED: REMARK    2  A    between atoms: N_3  and  C_4
DOCKED: REMARK    3  A    between atoms: C_10  and  C_11
DOCKED: REMARK    4  A    between atoms: C_11  and  C_12
DOCKED: REMARK    5  A    between atoms: C_12  and  C_13
DOCKED: REMARK    6  A    between atoms: C_13  and  C_14
DOCKED: REMARK    7  A    between atoms: C_14  and  C_15
DOCKED: REMARK    8  A    between atoms: C_15  and  C_16
DOCKED: REMARK                            x       y       z     vdW  Elec       q    Type
DOCKED: REMARK                         _______ _______ _______ _____ _____    ______ ____
DOCKED: USER                              x       y       z     vdW  Elec       q    Type
DOCKED: USER                           _______ _______ _______ _____ _____    ______ ____
DOCKED: ROOT
DOCKED: ATOM      1  C   UNL     1      24.993 -16.170  -1.560 -0.54 -0.00    +0.000 C 
DOCKED: ENDROOT
DOCKED: BRANCH   1   3
DOCKED: ATOM      2  O   UNL     1      27.049 -17.100  -2.334 -0.32 -0.00    +0.000 OA
DOCKED: ATOM      3  C   UNL     1      26.165 -16.214  -2.493 -0.48 -0.00    +0.000 C 
DOCKED: ATOM      4  N   UNL     1      26.273 -15.254  -3.555 -0.46 -0.00    +0.000 N 
DOCKED: ATOM      5  H   UNL     1      25.487 -14.696  -3.756 -0.03 -0.00    +0.000 HD
DOCKED: BRANCH   4   6
DOCKED: ATOM      6  C   UNL     1      27.458 -15.054  -4.344 -0.37 -0.00    +0.000 A 
DOCKED: ATOM      7  C   UNL     1      28.678 -15.593  -3.903 -0.25 -0.00    +0.000 A 
DOCKED: ATOM      8  C   UNL     1      29.839 -15.435  -4.664 -0.18 -0.00    +0.000 A 
DOCKED: ATOM      9  C   UNL     1      29.791 -14.749  -5.880 -0.23 -0.00    +0.000 A 
DOCKED: ATOM     10  C   UNL     1      28.579 -14.228  -6.341 -0.33 -0.00    +0.000 A 
DOCKED: ATOM     11  C   UNL     1      27.415 -14.385  -5.582 -0.29 -0.00    +0.000 A 
DOCKED: ENDBRANCH   4   6
DOCKED: ENDBRANCH   1   3
DOCKED: BRANCH   1  12
DOCKED: ATOM     12  C   UNL     1      25.259 -17.043  -0.328 -0.48 -0.00    +0.000 C 
DOCKED: BRANCH  12  13
DOCKED: ATOM     13  C   UNL     1      25.167 -18.548  -0.630 -0.64 -0.00    +0.000 C 
DOCKED: BRANCH  13  14
DOCKED: ATOM     14  C   UNL     1      23.729 -19.035  -0.908 -0.74 -0.00    +0.000 C 
DOCKED: BRANCH  14  15
DOCKED: ATOM     15  C   UNL     1      22.678 -18.200  -0.153 -0.80 -0.00    +0.000 C 
DOCKED: BRANCH  15  16
DOCKED: ATOM     16  C   UNL     1      21.359 -18.086  -0.928 -0.66 -0.00    +0.000 C 
DOCKED: BRANCH  16  17
DOCKED: ATOM     17  C   UNL     1      20.560 -19.355  -0.858 -0.90 -0.00    +0.000 C 
DOCKED: ATOM     18  N   UNL     1      20.504 -20.108   0.355 -0.69 -0.00    +0.000 N 
DOCKED: ATOM     19  O   UNL     1      19.772 -21.244   0.423 -0.84 -0.00    +0.000 OA
DOCKED: ATOM     20  O   UNL     1      19.913 -19.741  -1.869 -2.39 -0.00    +0.000 OA
DOCKED: ATOM     21  H   UNL     1      21.001 -19.799   1.147 -0.49 -0.00    +0.000 HD
DOCKED: ENDBRANCH  16  17
DOCKED: ENDBRANCH  15  16
DOCKED: ENDBRANCH  14  15
DOCKED: ENDBRANCH  13  14
DOCKED: ENDBRANCH  12  13
DOCKED: ENDBRANCH   1  12
DOCKED: TORSDOF 8
DOCKED: TER
DOCKED: ENDMDL
________________________________________________________________________________


	BEGINNING GENETIC ALGORITHM DOCKING 19 of 100
Run: 19 Seed: 129446677 263605842 [ Run 19 of 100 GA/GALS ]
Beginning LAMARCKIAN GENETIC ALGORITHM (LGA), with a maximum of 2500000 energy evaluations.

Final-Value: -14.391


	FINAL GENETIC ALGORITHM DOCKED STATE
	_______________________________________________


Detailed state:  trans 25.496 -16.117 -2.573 quatxyzw -0.480615 0.611779 -0.626644 0.045306 center 0.185 0.077 0.153 ntor 8 168.9985 -55.8497 131.4176 27.7535 158.8921 -146.5382 52.9452 93.8318
State:	 25.496 -16.117  -2.573  -0.481  0.612 -0.627 174.807    169.00  -55.85  131.42   27.75  158.89 -146.54   52.95   93.83

DOCKED: MODEL       19
DOCKED: USER    Run = 19
DOCKED: USER    DPF = ligand_dock.biased.dpf
DOCKED: USER  
DOCKED: USER    Estimated Free Energy of Binding    =  -11.17 kcal/mol  [=(1)+(2)+(3)-(4)]
DOCKED: USER    Estimated Inhibition Constant, Ki   =    6.54 nM (nanomolar)  [Temperature = 298.15 K]
DOCKED: USER    
DOCKED: USER    (1) Final Intermolecular Energy     =  -13.55 kcal/mol
DOCKED: USER        vdW + Hbond + desolv Energy     =  -13.55 kcal/mol
DOCKED: USER        Electrostatic Energy            =   +0.00 kcal/mol
DOCKED: USER    (2) Final Total Internal Energy     =   -0.84 kcal/mol
DOCKED: USER    (3) Torsional Free Energy           =   +2.39 kcal/mol
DOCKED: USER    (4) Unbound System's Energy  [=(2)] =   -0.84 kcal/mol
DOCKED: USER    
DOCKED: USER    
DOCKED: USER    NEWDPF move ligand.pdbqt
DOCKED: USER    NEWDPF about 0.185000 0.077000 0.153000
DOCKED: USER    NEWDPF tran0 25.495756 -16.116809 -2.573076
DOCKED: USER    NEWDPF quaternion0 -0.480615 0.611779 -0.626644 0.045306
DOCKED: USER    NEWDPF axisangle0 -0.481109 0.612408 -0.627289 174.806566
DOCKED: USER    NEWDPF quat0 -0.481109 0.612408 -0.627289 174.806566
DOCKED: USER    NEWDPF dihe0 169.00 -55.85 131.42 27.75 158.89 -146.54 52.95 93.83 
DOCKED: USER  keepresnum = 1 
DOCKED: USER  
DOCKED: REMARK  Name = 
DOCKED: REMARK  8 active torsions:
DOCKED: REMARK  status: ('A' for Active; 'I' for Inactive)
DOCKED: REMARK    1  A    between atoms: C_2  and  C_10
DOCKED: REMARK    2  A    between atoms: N_3  and  C_4
DOCKED: REMARK    3  A    between atoms: C_10  and  C_11
DOCKED: REMARK    4  A    between atoms: C_11  and  C_12
DOCKED: REMARK    5  A    between atoms: C_12  and  C_13
DOCKED: REMARK    6  A    between atoms: C_13  and  C_14
DOCKED: REMARK    7  A    between atoms: C_14  and  C_15
DOCKED: REMARK    8  A    between atoms: C_15  and  C_16
DOCKED: REMARK                            x       y       z     vdW  Elec       q    Type
DOCKED: REMARK                         _______ _______ _______ _____ _____    ______ ____
DOCKED: USER                              x       y       z     vdW  Elec       q    Type
DOCKED: USER                           _______ _______ _______ _____ _____    ______ ____
DOCKED: ROOT
DOCKED: ATOM      1  C   UNL     1      25.253 -15.681  -2.861 -0.50 -0.00    +0.000 C 
DOCKED: ENDROOT
DOCKED: BRANCH   1   3
DOCKED: ATOM      2  O   UNL     1      25.563 -15.981  -5.207 -1.07 -0.00    +0.000 OA
DOCKED: ATOM      3  C   UNL     1      26.062 -15.583  -4.119 -0.56 -0.00    +0.000 C 
DOCKED: ATOM      4  N   UNL     1      27.391 -15.041  -4.076 -0.34 -0.00    +0.000 N 
DOCKED: ATOM      5  H   UNL     1      27.677 -14.583  -3.253 +0.00 -0.00    +0.000 HD
DOCKED: BRANCH   4   6
DOCKED: ATOM      6  C   UNL     1      28.331 -15.125  -5.161 -0.35 -0.00    +0.000 A 
DOCKED: ATOM      7  C   UNL     1      28.389 -14.087  -6.105 -0.30 -0.00    +0.000 A 
DOCKED: ATOM      8  C   UNL     1      29.311 -14.134  -7.154 -0.29 -0.00    +0.000 A 
DOCKED: ATOM      9  C   UNL     1      30.195 -15.210  -7.262 -0.25 -0.00    +0.000 A 
DOCKED: ATOM     10  C   UNL     1      30.164 -16.237  -6.315 -0.31 -0.00    +0.000 A 
DOCKED: ATOM     11  C   UNL     1      29.241 -16.194  -5.264 -0.29 -0.00    +0.000 A 
DOCKED: ENDBRANCH   4   6
DOCKED: ENDBRANCH   1   3
DOCKED: BRANCH   1  12
DOCKED: ATOM     12  C   UNL     1      26.174 -15.842  -1.646 -0.47 -0.00    +0.000 C 
DOCKED: BRANCH  12  13
DOCKED: ATOM     13  C   UNL     1      26.427 -17.313  -1.275 -0.52 -0.00    +0.000 C 
DOCKED: BRANCH  13  14
DOCKED: ATOM     14  C   UNL     1      25.273 -17.952  -0.474 -0.70 -0.00    +0.000 C 
DOCKED: BRANCH  14  15
DOCKED: ATOM     15  C   UNL     1      23.925 -17.841  -1.208 -0.76 -0.00    +0.000 C 
DOCKED: BRANCH  15  16
DOCKED: ATOM     16  C   UNL     1      22.730 -17.976  -0.255 -0.79 -0.00    +0.000 C 
DOCKED: BRANCH  16  17
DOCKED: ATOM     17  C   UNL     1      21.468 -18.323  -0.989 -0.74 -0.00    +0.000 C 
DOCKED: ATOM     18  N   UNL     1      21.296 -19.623  -1.558 -0.64 -0.00    +0.000 N 
DOCKED: ATOM     19  O   UNL     1      20.152 -19.942  -2.207 -2.27 -0.00    +0.000 OA
DOCKED: ATOM     20  O   UNL     1      20.544 -17.470  -1.080 -2.08 -0.00    +0.000 OA
DOCKED: ATOM     21  H   UNL     1      22.014 -20.292  -1.476 -0.33 -0.00    +0.000 HD
DOCKED: ENDBRANCH  16  17
DOCKED: ENDBRANCH  15  16
DOCKED: ENDBRANCH  14  15
DOCKED: ENDBRANCH  13  14
DOCKED: ENDBRANCH  12  13
DOCKED: ENDBRANCH   1  12
DOCKED: TORSDOF 8
DOCKED: TER
DOCKED: ENDMDL
________________________________________________________________________________


	BEGINNING GENETIC ALGORITHM DOCKING 20 of 100
Run: 20 Seed: 1073764337 188373729 [ Run 20 of 100 GA/GALS ]
Beginning LAMARCKIAN GENETIC ALGORITHM (LGA), with a maximum of 2500000 energy evaluations.

Final-Value: -14.040


	FINAL GENETIC ALGORITHM DOCKED STATE
	_______________________________________________


Detailed state:  trans 25.659 -15.933 -3.063 quatxyzw -0.389028 0.484232 -0.779991 -0.076103 center 0.185 0.077 0.153 ntor 8 129.7596 79.2703 30.7407 -118.5891 -65.4583 -55.8204 113.7166 62.1027
State:	 25.659 -15.933  -3.063  -0.390  0.486 -0.782 -171.271    129.76   79.27   30.74 -118.59  -65.46  -55.82  113.72   62.10

DOCKED: MODEL       20
DOCKED: USER    Run = 20
DOCKED: USER    DPF = ligand_dock.biased.dpf
DOCKED: USER  
DOCKED: USER    Estimated Free Energy of Binding    =  -10.72 kcal/mol  [=(1)+(2)+(3)-(4)]
DOCKED: USER    Estimated Inhibition Constant, Ki   =   13.97 nM (nanomolar)  [Temperature = 298.15 K]
DOCKED: USER    
DOCKED: USER    (1) Final Intermolecular Energy     =  -13.10 kcal/mol
DOCKED: USER        vdW + Hbond + desolv Energy     =  -13.10 kcal/mol
DOCKED: USER        Electrostatic Energy            =   +0.00 kcal/mol
DOCKED: USER    (2) Final Total Internal Energy     =   -0.94 kcal/mol
DOCKED: USER    (3) Torsional Free Energy           =   +2.39 kcal/mol
DOCKED: USER    (4) Unbound System's Energy  [=(2)] =   -0.94 kcal/mol
DOCKED: USER    
DOCKED: USER    
DOCKED: USER    NEWDPF move ligand.pdbqt
DOCKED: USER    NEWDPF about 0.185000 0.077000 0.153000
DOCKED: USER    NEWDPF tran0 25.659198 -15.933078 -3.062841
DOCKED: USER    NEWDPF quaternion0 -0.389028 0.484232 -0.779991 -0.076103
DOCKED: USER    NEWDPF axisangle0 -0.390159 0.485640 -0.782259 -171.270785
DOCKED: USER    NEWDPF quat0 -0.390159 0.485640 -0.782259 -171.270785
DOCKED: USER    NEWDPF dihe0 129.76 79.27 30.74 -118.59 -65.46 -55.82 113.72 62.10 
DOCKED: USER  keepresnum = 1 
DOCKED: USER  
DOCKED: REMARK  Name = 
DOCKED: REMARK  8 active torsions:
DOCKED: REMARK  status: ('A' for Active; 'I' for Inactive)
DOCKED: REMARK    1  A    between atoms: C_2  and  C_10
DOCKED: REMARK    2  A    between atoms: N_3  and  C_4
DOCKED: REMARK    3  A    between atoms: C_10  and  C_11
DOCKED: REMARK    4  A    between atoms: C_11  and  C_12
DOCKED: REMARK    5  A    between atoms: C_12  and  C_13
DOCKED: REMARK    6  A    between atoms: C_13  and  C_14
DOCKED: REMARK    7  A    between atoms: C_14  and  C_15
DOCKED: REMARK    8  A    between atoms: C_15  and  C_16
DOCKED: REMARK                            x       y       z     vdW  Elec       q    Type
DOCKED: REMARK                         _______ _______ _______ _____ _____    ______ ____
DOCKED: USER                              x       y       z     vdW  Elec       q    Type
DOCKED: USER                           _______ _______ _______ _____ _____    ______ ____
DOCKED: ROOT
DOCKED: ATOM      1  C   UNL     1      25.503 -15.627  -3.524 -0.55 -0.00    +0.000 C 
DOCKED: ENDROOT
DOCKED: BRANCH   1   3
DOCKED: ATOM      2  O   UNL     1      26.653 -15.210  -5.573 -1.14 +0.00    +0.000 OA
DOCKED: ATOM      3  C   UNL     1      26.736 -15.603  -4.377 -0.45 -0.00    +0.000 C 
DOCKED: ATOM      4  N   UNL     1      27.995 -16.025  -3.829 -0.26 -0.00    +0.000 N 
DOCKED: ATOM      5  H   UNL     1      28.054 -16.154  -2.855 -0.01 -0.00    +0.000 HD
DOCKED: BRANCH   4   6
DOCKED: ATOM      6  C   UNL     1      29.174 -16.272  -4.614 -0.25 -0.00    +0.000 A 
DOCKED: ATOM      7  C   UNL     1      29.915 -17.443  -4.393 -0.21 -0.00    +0.000 A 
DOCKED: ATOM      8  C   UNL     1      31.050 -17.719  -5.161 -0.21 -0.00    +0.000 A 
DOCKED: ATOM      9  C   UNL     1      31.447 -16.834  -6.167 -0.18 -0.00    +0.000 A 
DOCKED: ATOM     10  C   UNL     1      30.704 -15.677  -6.412 -0.23 -0.00    +0.000 A 
DOCKED: ATOM     11  C   UNL     1      29.567 -15.398  -5.645 -0.28 -0.00    +0.000 A 
DOCKED: ENDBRANCH   4   6
DOCKED: ENDBRANCH   1   3
DOCKED: BRANCH   1  12
DOCKED: ATOM     12  C   UNL     1      25.861 -15.340  -2.062 -0.47 -0.00    +0.000 C 
DOCKED: BRANCH  12  13
DOCKED: ATOM     13  C   UNL     1      25.380 -16.439  -1.100 -0.57 -0.00    +0.000 C 
DOCKED: BRANCH  13  14
DOCKED: ATOM     14  C   UNL     1      24.885 -17.712  -1.818 -0.59 -0.00    +0.000 C 
DOCKED: BRANCH  14  15
DOCKED: ATOM     15  C   UNL     1      24.157 -18.673  -0.861 -0.75 -0.00    +0.000 C 
DOCKED: BRANCH  15  16
DOCKED: ATOM     16  C   UNL     1      22.998 -17.991  -0.122 -0.75 -0.00    +0.000 C 
DOCKED: BRANCH  16  17
DOCKED: ATOM     17  C   UNL     1      21.676 -18.277  -0.773 -0.83 -0.00    +0.000 C 
DOCKED: ATOM     18  N   UNL     1      21.453 -19.522  -1.440 -0.68 -0.00    +0.000 N 
DOCKED: ATOM     19  O   UNL     1      20.257 -19.787  -2.014 -2.34 -0.00    +0.000 OA
DOCKED: ATOM     20  O   UNL     1      20.750 -17.425  -0.707 -2.00 +0.00    +0.000 OA
DOCKED: ATOM     21  H   UNL     1      22.174 -20.191  -1.481 -0.35 -0.00    +0.000 HD
DOCKED: ENDBRANCH  16  17
DOCKED: ENDBRANCH  15  16
DOCKED: ENDBRANCH  14  15
DOCKED: ENDBRANCH  13  14
DOCKED: ENDBRANCH  12  13
DOCKED: ENDBRANCH   1  12
DOCKED: TORSDOF 8
DOCKED: TER
DOCKED: ENDMDL
________________________________________________________________________________


	BEGINNING GENETIC ALGORITHM DOCKING 21 of 100
Run: 21 Seed: 978243750 262704418 [ Run 21 of 100 GA/GALS ]
Beginning LAMARCKIAN GENETIC ALGORITHM (LGA), with a maximum of 2500000 energy evaluations.

Final-Value: -14.976


	FINAL GENETIC ALGORITHM DOCKED STATE
	_______________________________________________


Detailed state:  trans 27.584 -15.982 0.127 quatxyzw -0.125808 -0.178728 0.446128 0.867870 center 0.185 0.077 0.153 ntor 8 -103.2815 -8.1033 -178.3183 108.7132 50.0999 -161.5507 178.0419 -34.8601
State:	 27.584 -15.982   0.127  -0.253 -0.360  0.898 59.576   -103.28   -8.10 -178.32  108.71   50.10 -161.55  178.04  -34.86

DOCKED: MODEL       21
DOCKED: USER    Run = 21
DOCKED: USER    DPF = ligand_dock.biased.dpf
DOCKED: USER  
DOCKED: USER    Estimated Free Energy of Binding    =  -11.76 kcal/mol  [=(1)+(2)+(3)-(4)]
DOCKED: USER    Estimated Inhibition Constant, Ki   =    2.42 nM (nanomolar)  [Temperature = 298.15 K]
DOCKED: USER    
DOCKED: USER    (1) Final Intermolecular Energy     =  -14.14 kcal/mol
DOCKED: USER        vdW + Hbond + desolv Energy     =  -14.14 kcal/mol
DOCKED: USER        Electrostatic Energy            =   +0.00 kcal/mol
DOCKED: USER    (2) Final Total Internal Energy     =   -0.83 kcal/mol
DOCKED: USER    (3) Torsional Free Energy           =   +2.39 kcal/mol
DOCKED: USER    (4) Unbound System's Energy  [=(2)] =   -0.83 kcal/mol
DOCKED: USER    
DOCKED: USER    
DOCKED: USER    NEWDPF move ligand.pdbqt
DOCKED: USER    NEWDPF about 0.185000 0.077000 0.153000
DOCKED: USER    NEWDPF tran0 27.583659 -15.982265 0.127019
DOCKED: USER    NEWDPF quaternion0 -0.125808 -0.178728 0.446128 0.867870
DOCKED: USER    NEWDPF axisangle0 -0.253242 -0.359764 0.898019 59.575809
DOCKED: USER    NEWDPF quat0 -0.253242 -0.359764 0.898019 59.575809
DOCKED: USER    NEWDPF dihe0 -103.28 -8.10 -178.32 108.71 50.10 -161.55 178.04 -34.86 
DOCKED: USER  keepresnum = 1 
DOCKED: USER  
DOCKED: REMARK  Name = 
DOCKED: REMARK  8 active torsions:
DOCKED: REMARK  status: ('A' for Active; 'I' for Inactive)
DOCKED: REMARK    1  A    between atoms: C_2  and  C_10
DOCKED: REMARK    2  A    between atoms: N_3  and  C_4
DOCKED: REMARK    3  A    between atoms: C_10  and  C_11
DOCKED: REMARK    4  A    between atoms: C_11  and  C_12
DOCKED: REMARK    5  A    between atoms: C_12  and  C_13
DOCKED: REMARK    6  A    between atoms: C_13  and  C_14
DOCKED: REMARK    7  A    between atoms: C_14  and  C_15
DOCKED: REMARK    8  A    between atoms: C_15  and  C_16
DOCKED: REMARK                            x       y       z     vdW  Elec       q    Type
DOCKED: REMARK                         _______ _______ _______ _____ _____    ______ ____
DOCKED: USER                              x       y       z     vdW  Elec       q    Type
DOCKED: USER                           _______ _______ _______ _____ _____    ______ ____
DOCKED: ROOT
DOCKED: ATOM      1  C   UNL     1      27.554 -15.463  -0.119 -0.32 -0.00    +0.000 C 
DOCKED: ENDROOT
DOCKED: BRANCH   1   3
DOCKED: ATOM      2  O   UNL     1      26.302 -13.732   0.943 -0.37 -0.00    +0.000 OA
DOCKED: ATOM      3  C   UNL     1      27.270 -14.536   1.024 -0.23 -0.00    +0.000 C 
DOCKED: ATOM      4  N   UNL     1      28.099 -14.570   2.197 -0.27 -0.00    +0.000 N 
DOCKED: ATOM      5  H   UNL     1      28.727 -15.321   2.297 -1.75 -0.00    +0.000 HD
DOCKED: BRANCH   4   6
DOCKED: ATOM      6  C   UNL     1      28.070 -13.574   3.233 -0.32 -0.00    +0.000 A 
DOCKED: ATOM      7  C   UNL     1      28.158 -13.975   4.576 -0.49 -0.00    +0.000 A 
DOCKED: ATOM      8  C   UNL     1      28.157 -13.024   5.601 -0.42 -0.00    +0.000 A 
DOCKED: ATOM      9  C   UNL     1      28.083 -11.663   5.294 -0.36 +0.00    +0.000 A 
DOCKED: ATOM     10  C   UNL     1      28.019 -11.251   3.960 -0.26 +0.00    +0.000 A 
DOCKED: ATOM     11  C   UNL     1      28.019 -12.200   2.932 -0.22 -0.00    +0.000 A 
DOCKED: ENDBRANCH   4   6
DOCKED: ENDBRANCH   1   3
DOCKED: BRANCH   1  12
DOCKED: ATOM     12  C   UNL     1      26.665 -16.709  -0.027 -0.41 -0.00    +0.000 C 
DOCKED: BRANCH  12  13
DOCKED: ATOM     13  C   UNL     1      26.103 -17.146  -1.391 -0.56 -0.00    +0.000 C 
DOCKED: BRANCH  13  14
DOCKED: ATOM     14  C   UNL     1      24.693 -16.591  -1.682 -0.60 -0.00    +0.000 C 
DOCKED: BRANCH  14  15
DOCKED: ATOM     15  C   UNL     1      23.700 -16.903  -0.548 -0.51 -0.00    +0.000 C 
DOCKED: BRANCH  15  16
DOCKED: ATOM     16  C   UNL     1      23.205 -18.355  -0.592 -0.82 -0.00    +0.000 C 
DOCKED: BRANCH  16  17
DOCKED: ATOM     17  C   UNL     1      21.756 -18.439  -0.975 -0.79 -0.00    +0.000 C 
DOCKED: ATOM     18  N   UNL     1      21.219 -19.651  -1.509 -0.67 -0.00    +0.000 N 
DOCKED: ATOM     19  O   UNL     1      19.910 -19.732  -1.841 -2.40 -0.00    +0.000 OA
DOCKED: ATOM     20  O   UNL     1      21.006 -17.442  -0.798 -2.01 -0.00    +0.000 OA
DOCKED: ATOM     21  H   UNL     1      21.804 -20.432  -1.636 -0.36 -0.00    +0.000 HD
DOCKED: ENDBRANCH  16  17
DOCKED: ENDBRANCH  15  16
DOCKED: ENDBRANCH  14  15
DOCKED: ENDBRANCH  13  14
DOCKED: ENDBRANCH  12  13
DOCKED: ENDBRANCH   1  12
DOCKED: TORSDOF 8
DOCKED: TER
DOCKED: ENDMDL
________________________________________________________________________________


	BEGINNING GENETIC ALGORITHM DOCKING 22 of 100
Run: 22 Seed: 1579327449 408889807 [ Run 22 of 100 GA/GALS ]
Beginning LAMARCKIAN GENETIC ALGORITHM (LGA), with a maximum of 2500000 energy evaluations.

Final-Value: -13.113


	FINAL GENETIC ALGORITHM DOCKED STATE
	_______________________________________________


Detailed state:  trans 25.721 -15.708 -3.234 quatxyzw 0.388490 -0.070937 0.451557 0.800087 center 0.185 0.077 0.153 ntor 8 -30.9328 179.7234 137.7720 179.7545 175.8699 96.2700 -169.0117 44.6202
State:	 25.721 -15.708  -3.234   0.648 -0.118  0.753 73.723    -30.93  179.72  137.77  179.75  175.87   96.27 -169.01   44.62

DOCKED: MODEL       22
DOCKED: USER    Run = 22
DOCKED: USER    DPF = ligand_dock.biased.dpf
DOCKED: USER  
DOCKED: USER    Estimated Free Energy of Binding    =  -10.15 kcal/mol  [=(1)+(2)+(3)-(4)]
DOCKED: USER    Estimated Inhibition Constant, Ki   =   36.41 nM (nanomolar)  [Temperature = 298.15 K]
DOCKED: USER    
DOCKED: USER    (1) Final Intermolecular Energy     =  -12.53 kcal/mol
DOCKED: USER        vdW + Hbond + desolv Energy     =  -12.53 kcal/mol
DOCKED: USER        Electrostatic Energy            =   +0.00 kcal/mol
DOCKED: USER    (2) Final Total Internal Energy     =   -0.58 kcal/mol
DOCKED: USER    (3) Torsional Free Energy           =   +2.39 kcal/mol
DOCKED: USER    (4) Unbound System's Energy  [=(2)] =   -0.58 kcal/mol
DOCKED: USER    
DOCKED: USER    
DOCKED: USER    NEWDPF move ligand.pdbqt
DOCKED: USER    NEWDPF about 0.185000 0.077000 0.153000
DOCKED: USER    NEWDPF tran0 25.721000 -15.707559 -3.234148
DOCKED: USER    NEWDPF quaternion0 0.388490 -0.070937 0.451557 0.800087
DOCKED: USER    NEWDPF axisangle0 0.647609 -0.118252 0.752741 73.723216
DOCKED: USER    NEWDPF quat0 0.647609 -0.118252 0.752741 73.723216
DOCKED: USER    NEWDPF dihe0 -30.93 179.72 137.77 179.75 175.87 96.27 -169.01 44.62 
DOCKED: USER  keepresnum = 1 
DOCKED: USER  
DOCKED: REMARK  Name = 
DOCKED: REMARK  8 active torsions:
DOCKED: REMARK  status: ('A' for Active; 'I' for Inactive)
DOCKED: REMARK    1  A    between atoms: C_2  and  C_10
DOCKED: REMARK    2  A    between atoms: N_3  and  C_4
DOCKED: REMARK    3  A    between atoms: C_10  and  C_11
DOCKED: REMARK    4  A    between atoms: C_11  and  C_12
DOCKED: REMARK    5  A    between atoms: C_12  and  C_13
DOCKED: REMARK    6  A    between atoms: C_13  and  C_14
DOCKED: REMARK    7  A    between atoms: C_14  and  C_15
DOCKED: REMARK    8  A    between atoms: C_15  and  C_16
DOCKED: REMARK                            x       y       z     vdW  Elec       q    Type
DOCKED: REMARK                         _______ _______ _______ _____ _____    ______ ____
DOCKED: USER                              x       y       z     vdW  Elec       q    Type
DOCKED: USER                           _______ _______ _______ _____ _____    ______ ____
DOCKED: ROOT
DOCKED: ATOM      1  C   UNL     1      25.526 -15.644  -3.772 -0.53 -0.00    +0.000 C 
DOCKED: ENDROOT
DOCKED: BRANCH   1   3
DOCKED: ATOM      2  O   UNL     1      24.124 -13.737  -4.073 -1.10 -0.00    +0.000 OA
DOCKED: ATOM      3  C   UNL     1      25.297 -14.167  -3.901 -0.52 -0.00    +0.000 C 
DOCKED: ATOM      4  N   UNL     1      26.408 -13.261  -3.827 -0.30 -0.00    +0.000 N 
DOCKED: ATOM      5  H   UNL     1      27.273 -13.614  -3.519 +0.00 -0.00    +0.000 HD
DOCKED: BRANCH   4   6
DOCKED: ATOM      6  C   UNL     1      26.336 -11.868  -4.178 -0.23 -0.00    +0.000 A 
DOCKED: ATOM      7  C   UNL     1      25.466 -11.460  -5.202 -0.31 -0.00    +0.000 A 
DOCKED: ATOM      8  C   UNL     1      25.358 -10.110  -5.545 -0.28 -0.00    +0.000 A 
DOCKED: ATOM      9  C   UNL     1      26.108  -9.151  -4.858 -0.14 -0.00    +0.000 A 
DOCKED: ATOM     10  C   UNL     1      26.959  -9.542  -3.821 -0.10 -0.00    +0.000 A 
DOCKED: ATOM     11  C   UNL     1      27.069 -10.893  -3.476 -0.12 -0.00    +0.000 A 
DOCKED: ENDBRANCH   4   6
DOCKED: ENDBRANCH   1   3
DOCKED: BRANCH   1  12
DOCKED: ATOM     12  C   UNL     1      24.973 -16.154  -2.436 -0.45 -0.00    +0.000 C 
DOCKED: BRANCH  12  13
DOCKED: ATOM     13  C   UNL     1      25.860 -17.234  -1.794 -0.51 -0.00    +0.000 C 
DOCKED: BRANCH  13  14
DOCKED: ATOM     14  C   UNL     1      25.567 -17.461  -0.296 -0.61 -0.00    +0.000 C 
DOCKED: BRANCH  14  15
DOCKED: ATOM     15  C   UNL     1      24.234 -18.197  -0.070 -0.71 -0.00    +0.000 C 
DOCKED: BRANCH  15  16
DOCKED: ATOM     16  C   UNL     1      23.444 -18.383  -1.373 -0.78 -0.00    +0.000 C 
DOCKED: BRANCH  16  17
DOCKED: ATOM     17  C   UNL     1      21.971 -18.517  -1.117 -0.76 -0.00    +0.000 C 
DOCKED: ATOM     18  N   UNL     1      21.235 -19.605  -1.680 -0.63 -0.00    +0.000 N 
DOCKED: ATOM     19  O   UNL     1      19.910 -19.735  -1.437 -2.25 -0.00    +0.000 OA
DOCKED: ATOM     20  O   UNL     1      21.387 -17.679  -0.378 -1.65 -0.00    +0.000 OA
DOCKED: ATOM     21  H   UNL     1      21.695 -20.265  -2.248 -0.56 -0.00    +0.000 HD
DOCKED: ENDBRANCH  16  17
DOCKED: ENDBRANCH  15  16
DOCKED: ENDBRANCH  14  15
DOCKED: ENDBRANCH  13  14
DOCKED: ENDBRANCH  12  13
DOCKED: ENDBRANCH   1  12
DOCKED: TORSDOF 8
DOCKED: TER
DOCKED: ENDMDL
________________________________________________________________________________


	BEGINNING GENETIC ALGORITHM DOCKING 23 of 100
Run: 23 Seed: 1356972002 1355088789 [ Run 23 of 100 GA/GALS ]
Beginning LAMARCKIAN GENETIC ALGORITHM (LGA), with a maximum of 2500000 energy evaluations.

Final-Value: -14.468


	FINAL GENETIC ALGORITHM DOCKED STATE
	_______________________________________________


Detailed state:  trans 27.444 -15.563 0.081 quatxyzw 0.300268 0.154855 -0.526878 -0.779910 center 0.185 0.077 0.153 ntor 8 -72.0225 174.4245 45.9557 -30.1757 116.6920 102.4201 -156.2208 95.2938
State:	 27.444 -15.563   0.081   0.480  0.247 -0.842 -77.495    -72.02  174.42   45.96  -30.18  116.69  102.42 -156.22   95.29

DOCKED: MODEL       23
DOCKED: USER    Run = 23
DOCKED: USER    DPF = ligand_dock.biased.dpf
DOCKED: USER  
DOCKED: USER    Estimated Free Energy of Binding    =  -11.30 kcal/mol  [=(1)+(2)+(3)-(4)]
DOCKED: USER    Estimated Inhibition Constant, Ki   =    5.22 nM (nanomolar)  [Temperature = 298.15 K]
DOCKED: USER    
DOCKED: USER    (1) Final Intermolecular Energy     =  -13.69 kcal/mol
DOCKED: USER        vdW + Hbond + desolv Energy     =  -13.69 kcal/mol
DOCKED: USER        Electrostatic Energy            =   +0.00 kcal/mol
DOCKED: USER    (2) Final Total Internal Energy     =   -0.78 kcal/mol
DOCKED: USER    (3) Torsional Free Energy           =   +2.39 kcal/mol
DOCKED: USER    (4) Unbound System's Energy  [=(2)] =   -0.78 kcal/mol
DOCKED: USER    
DOCKED: USER    
DOCKED: USER    NEWDPF move ligand.pdbqt
DOCKED: USER    NEWDPF about 0.185000 0.077000 0.153000
DOCKED: USER    NEWDPF tran0 27.444245 -15.563107 0.080500
DOCKED: USER    NEWDPF quaternion0 0.300268 0.154855 -0.526878 -0.779910
DOCKED: USER    NEWDPF axisangle0 0.479744 0.247415 -0.841803 -77.495384
DOCKED: USER    NEWDPF quat0 0.479744 0.247415 -0.841803 -77.495384
DOCKED: USER    NEWDPF dihe0 -72.02 174.42 45.96 -30.18 116.69 102.42 -156.22 95.29 
DOCKED: USER  keepresnum = 1 
DOCKED: USER  
DOCKED: REMARK  Name = 
DOCKED: REMARK  8 active torsions:
DOCKED: REMARK  status: ('A' for Active; 'I' for Inactive)
DOCKED: REMARK    1  A    between atoms: C_2  and  C_10
DOCKED: REMARK    2  A    between atoms: N_3  and  C_4
DOCKED: REMARK    3  A    between atoms: C_10  and  C_11
DOCKED: REMARK    4  A    between atoms: C_11  and  C_12
DOCKED: REMARK    5  A    between atoms: C_12  and  C_13
DOCKED: REMARK    6  A    between atoms: C_13  and  C_14
DOCKED: REMARK    7  A    between atoms: C_14  and  C_15
DOCKED: REMARK    8  A    between atoms: C_15  and  C_16
DOCKED: REMARK                            x       y       z     vdW  Elec       q    Type
DOCKED: REMARK                         _______ _______ _______ _____ _____    ______ ____
DOCKED: USER                              x       y       z     vdW  Elec       q    Type
DOCKED: USER                           _______ _______ _______ _____ _____    ______ ____
DOCKED: ROOT
DOCKED: ATOM      1  C   UNL     1      27.596 -15.015  -0.007 -0.29 -0.00    +0.000 C 
DOCKED: ENDROOT
DOCKED: BRANCH   1   3
DOCKED: ATOM      2  O   UNL     1      26.333 -13.648   1.486 -0.30 -0.00    +0.000 OA
DOCKED: ATOM      3  C   UNL     1      27.361 -14.359   1.321 -0.26 -0.00    +0.000 C 
DOCKED: ATOM      4  N   UNL     1      28.304 -14.544   2.388 -0.26 -0.00    +0.000 N 
DOCKED: ATOM      5  H   UNL     1      28.993 -15.239   2.281 -1.90 -0.00    +0.000 HD
DOCKED: BRANCH   4   6
DOCKED: ATOM      6  C   UNL     1      28.305 -13.776   3.604 -0.36 -0.00    +0.000 A 
DOCKED: ATOM      7  C   UNL     1      28.002 -12.406   3.554 -0.27 -0.00    +0.000 A 
DOCKED: ATOM      8  C   UNL     1      27.972 -11.644   4.724 -0.32 +0.00    +0.000 A 
DOCKED: ATOM      9  C   UNL     1      28.230 -12.245   5.959 -0.38 +0.00    +0.000 A 
DOCKED: ATOM     10  C   UNL     1      28.510 -13.612   6.024 -0.34 -0.00    +0.000 A 
DOCKED: ATOM     11  C   UNL     1      28.542 -14.378   4.854 -0.48 -0.00    +0.000 A 
DOCKED: ENDBRANCH   4   6
DOCKED: ENDBRANCH   1   3
DOCKED: BRANCH   1  12
DOCKED: ATOM     12  C   UNL     1      26.412 -15.918  -0.371 -0.39 -0.00    +0.000 C 
DOCKED: BRANCH  12  13
DOCKED: ATOM     13  C   UNL     1      26.595 -17.368   0.109 -0.47 -0.00    +0.000 C 
DOCKED: BRANCH  13  14
DOCKED: ATOM     14  C   UNL     1      25.315 -18.222  -0.011 -0.67 -0.00    +0.000 C 
DOCKED: BRANCH  14  15
DOCKED: ATOM     15  C   UNL     1      24.244 -17.543  -0.883 -0.74 -0.00    +0.000 C 
DOCKED: BRANCH  15  16
DOCKED: ATOM     16  C   UNL     1      23.458 -18.552  -1.732 -0.65 -0.00    +0.000 C 
DOCKED: BRANCH  16  17
DOCKED: ATOM     17  C   UNL     1      22.020 -18.635  -1.311 -0.64 -0.00    +0.000 C 
DOCKED: ATOM     18  N   UNL     1      21.172 -19.662  -1.829 -0.59 -0.00    +0.000 N 
DOCKED: ATOM     19  O   UNL     1      19.880 -19.746  -1.439 -2.25 -0.00    +0.000 OA
DOCKED: ATOM     20  O   UNL     1      21.567 -17.809  -0.473 -1.55 -0.00    +0.000 OA
DOCKED: ATOM     21  H   UNL     1      21.531 -20.313  -2.475 -0.58 -0.00    +0.000 HD
DOCKED: ENDBRANCH  16  17
DOCKED: ENDBRANCH  15  16
DOCKED: ENDBRANCH  14  15
DOCKED: ENDBRANCH  13  14
DOCKED: ENDBRANCH  12  13
DOCKED: ENDBRANCH   1  12
DOCKED: TORSDOF 8
DOCKED: TER
DOCKED: ENDMDL
________________________________________________________________________________


	BEGINNING GENETIC ALGORITHM DOCKING 24 of 100
Run: 24 Seed: 333754372 1289372326 [ Run 24 of 100 GA/GALS ]
Beginning LAMARCKIAN GENETIC ALGORITHM (LGA), with a maximum of 2500000 energy evaluations.

Final-Value: -13.769


	FINAL GENETIC ALGORITHM DOCKED STATE
	_______________________________________________


Detailed state:  trans 25.038 -15.401 -2.941 quatxyzw -0.238411 0.729160 -0.630998 0.115443 center 0.185 0.077 0.153 ntor 8 -22.9425 -43.7093 120.3890 -167.9597 -169.5626 133.9367 15.7216 134.9022
State:	 25.038 -15.401  -2.941  -0.240  0.734 -0.635 166.742    -22.94  -43.71  120.39 -167.96 -169.56  133.94   15.72  134.90

DOCKED: MODEL       24
DOCKED: USER    Run = 24
DOCKED: USER    DPF = ligand_dock.biased.dpf
DOCKED: USER  
DOCKED: USER    Estimated Free Energy of Binding    =  -10.36 kcal/mol  [=(1)+(2)+(3)-(4)]
DOCKED: USER    Estimated Inhibition Constant, Ki   =   25.30 nM (nanomolar)  [Temperature = 298.15 K]
DOCKED: USER    
DOCKED: USER    (1) Final Intermolecular Energy     =  -12.75 kcal/mol
DOCKED: USER        vdW + Hbond + desolv Energy     =  -12.75 kcal/mol
DOCKED: USER        Electrostatic Energy            =   +0.00 kcal/mol
DOCKED: USER    (2) Final Total Internal Energy     =   -1.02 kcal/mol
DOCKED: USER    (3) Torsional Free Energy           =   +2.39 kcal/mol
DOCKED: USER    (4) Unbound System's Energy  [=(2)] =   -1.02 kcal/mol
DOCKED: USER    
DOCKED: USER    
DOCKED: USER    NEWDPF move ligand.pdbqt
DOCKED: USER    NEWDPF about 0.185000 0.077000 0.153000
DOCKED: USER    NEWDPF tran0 25.038485 -15.400596 -2.940901
DOCKED: USER    NEWDPF quaternion0 -0.238411 0.729160 -0.630998 0.115443
DOCKED: USER    NEWDPF axisangle0 -0.240016 0.734068 -0.635245 166.741608
DOCKED: USER    NEWDPF quat0 -0.240016 0.734068 -0.635245 166.741608
DOCKED: USER    NEWDPF dihe0 -22.94 -43.71 120.39 -167.96 -169.56 133.94 15.72 134.90 
DOCKED: USER  keepresnum = 1 
DOCKED: USER  
DOCKED: REMARK  Name = 
DOCKED: REMARK  8 active torsions:
DOCKED: REMARK  status: ('A' for Active; 'I' for Inactive)
DOCKED: REMARK    1  A    between atoms: C_2  and  C_10
DOCKED: REMARK    2  A    between atoms: N_3  and  C_4
DOCKED: REMARK    3  A    between atoms: C_10  and  C_11
DOCKED: REMARK    4  A    between atoms: C_11  and  C_12
DOCKED: REMARK    5  A    between atoms: C_12  and  C_13
DOCKED: REMARK    6  A    between atoms: C_13  and  C_14
DOCKED: REMARK    7  A    between atoms: C_14  and  C_15
DOCKED: REMARK    8  A    between atoms: C_15  and  C_16
DOCKED: REMARK                            x       y       z     vdW  Elec       q    Type
DOCKED: REMARK                         _______ _______ _______ _____ _____    ______ ____
DOCKED: USER                              x       y       z     vdW  Elec       q    Type
DOCKED: USER                           _______ _______ _______ _____ _____    ______ ____
DOCKED: ROOT
DOCKED: ATOM      1  C   UNL     1      25.106 -14.904  -3.225 -0.43 -0.00    +0.000 C 
DOCKED: ENDROOT
DOCKED: BRANCH   1   3
DOCKED: ATOM      2  O   UNL     1      25.837 -15.987  -5.221 -1.12 +0.00    +0.000 OA
DOCKED: ATOM      3  C   UNL     1      26.137 -15.219  -4.266 -0.59 -0.00    +0.000 C 
DOCKED: ATOM      4  N   UNL     1      27.451 -14.647  -4.170 -0.31 -0.00    +0.000 N 
DOCKED: ATOM      5  H   UNL     1      27.592 -13.922  -3.519 +0.00 -0.00    +0.000 HD
DOCKED: BRANCH   4   6
DOCKED: ATOM      6  C   UNL     1      28.573 -15.068  -4.964 -0.30 -0.00    +0.000 A 
DOCKED: ATOM      7  C   UNL     1      28.993 -14.269  -6.041 -0.28 -0.00    +0.000 A 
DOCKED: ATOM      8  C   UNL     1      30.096 -14.644  -6.812 -0.26 -0.00    +0.000 A 
DOCKED: ATOM      9  C   UNL     1      30.801 -15.811  -6.507 -0.24 -0.00    +0.000 A 
DOCKED: ATOM     10  C   UNL     1      30.407 -16.601  -5.423 -0.25 -0.00    +0.000 A 
DOCKED: ATOM     11  C   UNL     1      29.303 -16.230  -4.649 -0.27 -0.00    +0.000 A 
DOCKED: ENDBRANCH   4   6
DOCKED: ENDBRANCH   1   3
DOCKED: BRANCH   1  12
DOCKED: ATOM     12  C   UNL     1      25.526 -15.481  -1.868 -0.48 -0.00    +0.000 C 
DOCKED: BRANCH  12  13
DOCKED: ATOM     13  C   UNL     1      25.894 -16.973  -1.939 -0.52 -0.00    +0.000 C 
DOCKED: BRANCH  13  14
DOCKED: ATOM     14  C   UNL     1      25.825 -17.690  -0.574 -0.65 -0.00    +0.000 C 
DOCKED: BRANCH  14  15
DOCKED: ATOM     15  C   UNL     1      24.415 -18.227  -0.271 -0.74 -0.00    +0.000 C 
DOCKED: BRANCH  15  16
DOCKED: ATOM     16  C   UNL     1      23.455 -18.043  -1.454 -0.74 -0.00    +0.000 C 
DOCKED: BRANCH  16  17
DOCKED: ATOM     17  C   UNL     1      22.042 -18.391  -1.086 -0.77 -0.00    +0.000 C 
DOCKED: ATOM     18  N   UNL     1      21.343 -19.420  -1.791 -0.62 -0.00    +0.000 N 
DOCKED: ATOM     19  O   UNL     1      20.075 -19.745  -1.449 -2.25 -0.00    +0.000 OA
DOCKED: ATOM     20  O   UNL     1      21.481 -17.791  -0.130 -1.42 -0.00    +0.000 OA
DOCKED: ATOM     21  H   UNL     1      21.787 -19.895  -2.530 -0.54 -0.00    +0.000 HD
DOCKED: ENDBRANCH  16  17
DOCKED: ENDBRANCH  15  16
DOCKED: ENDBRANCH  14  15
DOCKED: ENDBRANCH  13  14
DOCKED: ENDBRANCH  12  13
DOCKED: ENDBRANCH   1  12
DOCKED: TORSDOF 8
DOCKED: TER
DOCKED: ENDMDL
________________________________________________________________________________


	BEGINNING GENETIC ALGORITHM DOCKING 25 of 100
Run: 25 Seed: 293010019 990296964 [ Run 25 of 100 GA/GALS ]
Beginning LAMARCKIAN GENETIC ALGORITHM (LGA), with a maximum of 2500000 energy evaluations.

Final-Value: -14.333


	FINAL GENETIC ALGORITHM DOCKED STATE
	_______________________________________________


Detailed state:  trans 27.542 -15.360 0.186 quatxyzw -0.037842 0.501759 -0.198987 -0.840958 center 0.185 0.077 0.153 ntor 8 -54.5699 -76.3581 161.3391 84.3549 -5.5633 -117.6116 134.1701 -23.2306
State:	 27.542 -15.360   0.186  -0.070  0.927 -0.368 -65.517    -54.57  -76.36  161.34   84.35   -5.56 -117.61  134.17  -23.23

DOCKED: MODEL       25
DOCKED: USER    Run = 25
DOCKED: USER    DPF = ligand_dock.biased.dpf
DOCKED: USER  
DOCKED: USER    Estimated Free Energy of Binding    =  -11.18 kcal/mol  [=(1)+(2)+(3)-(4)]
DOCKED: USER    Estimated Inhibition Constant, Ki   =    6.35 nM (nanomolar)  [Temperature = 298.15 K]
DOCKED: USER    
DOCKED: USER    (1) Final Intermolecular Energy     =  -13.57 kcal/mol
DOCKED: USER        vdW + Hbond + desolv Energy     =  -13.57 kcal/mol
DOCKED: USER        Electrostatic Energy            =   +0.00 kcal/mol
DOCKED: USER    (2) Final Total Internal Energy     =   -0.76 kcal/mol
DOCKED: USER    (3) Torsional Free Energy           =   +2.39 kcal/mol
DOCKED: USER    (4) Unbound System's Energy  [=(2)] =   -0.76 kcal/mol
DOCKED: USER    
DOCKED: USER    
DOCKED: USER    NEWDPF move ligand.pdbqt
DOCKED: USER    NEWDPF about 0.185000 0.077000 0.153000
DOCKED: USER    NEWDPF tran0 27.542243 -15.360132 0.186023
DOCKED: USER    NEWDPF quaternion0 -0.037842 0.501759 -0.198987 -0.840958
DOCKED: USER    NEWDPF axisangle0 -0.069935 0.927294 -0.367744 -65.517217
DOCKED: USER    NEWDPF quat0 -0.069935 0.927294 -0.367744 -65.517217
DOCKED: USER    NEWDPF dihe0 -54.57 -76.36 161.34 84.35 -5.56 -117.61 134.17 -23.23 
DOCKED: USER  keepresnum = 1 
DOCKED: USER  
DOCKED: REMARK  Name = 
DOCKED: REMARK  8 active torsions:
DOCKED: REMARK  status: ('A' for Active; 'I' for Inactive)
DOCKED: REMARK    1  A    between atoms: C_2  and  C_10
DOCKED: REMARK    2  A    between atoms: N_3  and  C_4
DOCKED: REMARK    3  A    between atoms: C_10  and  C_11
DOCKED: REMARK    4  A    between atoms: C_11  and  C_12
DOCKED: REMARK    5  A    between atoms: C_12  and  C_13
DOCKED: REMARK    6  A    between atoms: C_13  and  C_14
DOCKED: REMARK    7  A    between atoms: C_14  and  C_15
DOCKED: REMARK    8  A    between atoms: C_15  and  C_16
DOCKED: REMARK                            x       y       z     vdW  Elec       q    Type
DOCKED: REMARK                         _______ _______ _______ _____ _____    ______ ____
DOCKED: USER                              x       y       z     vdW  Elec       q    Type
DOCKED: USER                           _______ _______ _______ _____ _____    ______ ____
DOCKED: ROOT
DOCKED: ATOM      1  C   UNL     1      27.132 -14.958   0.150 -0.31 -0.00    +0.000 C 
DOCKED: ENDROOT
DOCKED: BRANCH   1   3
DOCKED: ATOM      2  O   UNL     1      26.357 -13.360   1.743 -0.40 -0.00    +0.000 OA
DOCKED: ATOM      3  C   UNL     1      27.232 -14.220   1.451 -0.20 -0.00    +0.000 C 
DOCKED: ATOM      4  N   UNL     1      28.317 -14.498   2.351 -0.28 -0.00    +0.000 N 
DOCKED: ATOM      5  H   UNL     1      28.873 -15.290   2.173 -1.78 -0.00    +0.000 HD
DOCKED: BRANCH   4   6
DOCKED: ATOM      6  C   UNL     1      28.642 -13.689   3.494 -0.31 -0.00    +0.000 A 
DOCKED: ATOM      7  C   UNL     1      27.791 -13.703   4.612 -0.50 -0.00    +0.000 A 
DOCKED: ATOM      8  C   UNL     1      28.099 -12.945   5.745 -0.41 -0.00    +0.000 A 
DOCKED: ATOM      9  C   UNL     1      29.265 -12.178   5.780 -0.26 -0.00    +0.000 A 
DOCKED: ATOM     10  C   UNL     1      30.132 -12.175   4.683 -0.12 -0.00    +0.000 A 
DOCKED: ATOM     11  C   UNL     1      29.827 -12.931   3.547 -0.14 -0.00    +0.000 A 
DOCKED: ENDBRANCH   4   6
DOCKED: ENDBRANCH   1   3
DOCKED: BRANCH   1  12
DOCKED: ATOM     12  C   UNL     1      27.195 -16.471   0.389 -0.23 -0.00    +0.000 C 
DOCKED: BRANCH  12  13
DOCKED: ATOM     13  C   UNL     1      26.413 -17.277  -0.662 -0.57 -0.00    +0.000 C 
DOCKED: BRANCH  13  14
DOCKED: ATOM     14  C   UNL     1      24.967 -16.779  -0.869 -0.60 -0.00    +0.000 C 
DOCKED: BRANCH  14  15
DOCKED: ATOM     15  C   UNL     1      23.928 -17.760  -0.297 -0.71 -0.00    +0.000 C 
DOCKED: BRANCH  15  16
DOCKED: ATOM     16  C   UNL     1      23.265 -18.610  -1.390 -0.78 -0.00    +0.000 C 
DOCKED: BRANCH  16  17
DOCKED: ATOM     17  C   UNL     1      21.770 -18.613  -1.263 -0.62 -0.00    +0.000 C 
DOCKED: ATOM     18  N   UNL     1      21.006 -19.723  -1.742 -0.70 -0.00    +0.000 N 
DOCKED: ATOM     19  O   UNL     1      19.659 -19.734  -1.614 -2.20 -0.00    +0.000 OA
DOCKED: ATOM     20  O   UNL     1      21.188 -17.644  -0.705 -1.95 -0.00    +0.000 OA
DOCKED: ATOM     21  H   UNL     1      21.463 -20.484  -2.167 -0.51 -0.00    +0.000 HD
DOCKED: ENDBRANCH  16  17
DOCKED: ENDBRANCH  15  16
DOCKED: ENDBRANCH  14  15
DOCKED: ENDBRANCH  13  14
DOCKED: ENDBRANCH  12  13
DOCKED: ENDBRANCH   1  12
DOCKED: TORSDOF 8
DOCKED: TER
DOCKED: ENDMDL
________________________________________________________________________________


	BEGINNING GENETIC ALGORITHM DOCKING 26 of 100
Run: 26 Seed: 1278438925 1414732911 [ Run 26 of 100 GA/GALS ]
Beginning LAMARCKIAN GENETIC ALGORITHM (LGA), with a maximum of 2500000 energy evaluations.

Final-Value: -12.871


	FINAL GENETIC ALGORITHM DOCKED STATE
	_______________________________________________


Detailed state:  trans 27.737 -16.528 -0.359 quatxyzw -0.430696 -0.458500 -0.560938 -0.538170 center 0.185 0.077 0.153 ntor 8 164.5206 -17.0058 -179.7283 105.0971 33.7832 -167.2726 -12.8078 -31.4183
State:	 27.737 -16.528  -0.359  -0.511 -0.544 -0.666 -114.882    164.52  -17.01 -179.73  105.10   33.78 -167.27  -12.81  -31.42

DOCKED: MODEL       26
DOCKED: USER    Run = 26
DOCKED: USER    DPF = ligand_dock.biased.dpf
DOCKED: USER  
DOCKED: USER    Estimated Free Energy of Binding    =   -9.61 kcal/mol  [=(1)+(2)+(3)-(4)]
DOCKED: USER    Estimated Inhibition Constant, Ki   =   90.48 nM (nanomolar)  [Temperature = 298.15 K]
DOCKED: USER    
DOCKED: USER    (1) Final Intermolecular Energy     =  -12.00 kcal/mol
DOCKED: USER        vdW + Hbond + desolv Energy     =  -12.00 kcal/mol
DOCKED: USER        Electrostatic Energy            =   +0.00 kcal/mol
DOCKED: USER    (2) Final Total Internal Energy     =   -0.88 kcal/mol
DOCKED: USER    (3) Torsional Free Energy           =   +2.39 kcal/mol
DOCKED: USER    (4) Unbound System's Energy  [=(2)] =   -0.88 kcal/mol
DOCKED: USER    
DOCKED: USER    
DOCKED: USER    NEWDPF move ligand.pdbqt
DOCKED: USER    NEWDPF about 0.185000 0.077000 0.153000
DOCKED: USER    NEWDPF tran0 27.737360 -16.528384 -0.359148
DOCKED: USER    NEWDPF quaternion0 -0.430696 -0.458500 -0.560938 -0.538170
DOCKED: USER    NEWDPF axisangle0 -0.511008 -0.543997 -0.665536 -114.881643
DOCKED: USER    NEWDPF quat0 -0.511008 -0.543997 -0.665536 -114.881643
DOCKED: USER    NEWDPF dihe0 164.52 -17.01 -179.73 105.10 33.78 -167.27 -12.81 -31.42 
DOCKED: USER  keepresnum = 1 
DOCKED: USER  
DOCKED: REMARK  Name = 
DOCKED: REMARK  8 active torsions:
DOCKED: REMARK  status: ('A' for Active; 'I' for Inactive)
DOCKED: REMARK    1  A    between atoms: C_2  and  C_10
DOCKED: REMARK    2  A    between atoms: N_3  and  C_4
DOCKED: REMARK    3  A    between atoms: C_10  and  C_11
DOCKED: REMARK    4  A    between atoms: C_11  and  C_12
DOCKED: REMARK    5  A    between atoms: C_12  and  C_13
DOCKED: REMARK    6  A    between atoms: C_13  and  C_14
DOCKED: REMARK    7  A    between atoms: C_14  and  C_15
DOCKED: REMARK    8  A    between atoms: C_15  and  C_16
DOCKED: REMARK                            x       y       z     vdW  Elec       q    Type
DOCKED: REMARK                         _______ _______ _______ _____ _____    ______ ____
DOCKED: USER                              x       y       z     vdW  Elec       q    Type
DOCKED: USER                           _______ _______ _______ _____ _____    ______ ____
DOCKED: ROOT
DOCKED: ATOM      1  C   UNL     1      28.013 -16.883  -0.719 -0.38 -0.00    +0.000 C 
DOCKED: ENDROOT
DOCKED: BRANCH   1   3
DOCKED: ATOM      2  O   UNL     1      28.876 -14.841  -1.599 -0.13 -0.00    +0.000 OA
DOCKED: ATOM      3  C   UNL     1      28.435 -15.995  -1.851 -0.27 -0.00    +0.000 C 
DOCKED: ATOM      4  N   UNL     1      28.335 -16.464  -3.205 -0.23 -0.00    +0.000 N 
DOCKED: ATOM      5  H   UNL     1      28.156 -17.420  -3.351 +0.02 -0.00    +0.000 HD
DOCKED: BRANCH   4   6
DOCKED: ATOM      6  C   UNL     1      28.478 -15.621  -4.361 -0.29 -0.00    +0.000 A 
DOCKED: ATOM      7  C   UNL     1      29.339 -16.015  -5.398 -0.31 -0.00    +0.000 A 
DOCKED: ATOM      8  C   UNL     1      29.476 -15.226  -6.543 -0.31 -0.00    +0.000 A 
DOCKED: ATOM      9  C   UNL     1      28.743 -14.044  -6.671 -0.31 -0.00    +0.000 A 
DOCKED: ATOM     10  C   UNL     1      27.865 -13.654  -5.657 -0.26 -0.00    +0.000 A 
DOCKED: ATOM     11  C   UNL     1      27.726 -14.440  -4.509 -0.30 -0.00    +0.000 A 
DOCKED: ENDBRANCH   4   6
DOCKED: ENDBRANCH   1   3
DOCKED: BRANCH   1  12
DOCKED: ATOM     12  C   UNL     1      26.558 -16.595  -0.330 -0.48 -0.00    +0.000 C 
DOCKED: BRANCH  12  13
DOCKED: ATOM     13  C   UNL     1      25.775 -17.865   0.044 -0.62 -0.00    +0.000 C 
DOCKED: BRANCH  13  14
DOCKED: ATOM     14  C   UNL     1      24.866 -18.384  -1.090 -0.62 -0.00    +0.000 C 
DOCKED: BRANCH  14  15
DOCKED: ATOM     15  C   UNL     1      23.672 -17.448  -1.351 -0.69 -0.00    +0.000 C 
DOCKED: BRANCH  15  16
DOCKED: ATOM     16  C   UNL     1      22.526 -17.674  -0.356 -0.79 -0.00    +0.000 C 
DOCKED: BRANCH  16  17
DOCKED: ATOM     17  C   UNL     1      21.315 -18.257  -1.023 -0.70 -0.00    +0.000 C 
DOCKED: ATOM     18  N   UNL     1      21.355 -19.579  -1.567 -0.63 -0.00    +0.000 N 
DOCKED: ATOM     19  O   UNL     1      20.259 -20.111  -2.156 -2.25 -0.00    +0.000 OA
DOCKED: ATOM     20  O   UNL     1      20.249 -17.587  -1.079 -2.05 -0.00    +0.000 OA
DOCKED: ATOM     21  H   UNL     1      22.185 -20.106  -1.513 -0.39 -0.00    +0.000 HD
DOCKED: ENDBRANCH  16  17
DOCKED: ENDBRANCH  15  16
DOCKED: ENDBRANCH  14  15
DOCKED: ENDBRANCH  13  14
DOCKED: ENDBRANCH  12  13
DOCKED: ENDBRANCH   1  12
DOCKED: TORSDOF 8
DOCKED: TER
DOCKED: ENDMDL
________________________________________________________________________________


	BEGINNING GENETIC ALGORITHM DOCKING 27 of 100
Run: 27 Seed: 430968150 1392530860 [ Run 27 of 100 GA/GALS ]
Beginning LAMARCKIAN GENETIC ALGORITHM (LGA), with a maximum of 2500000 energy evaluations.

Final-Value: -12.432


	FINAL GENETIC ALGORITHM DOCKED STATE
	_______________________________________________


Detailed state:  trans 28.211 -16.373 -0.249 quatxyzw -0.026467 -0.162016 -0.324477 -0.931539 center 0.185 0.077 0.153 ntor 8 -105.9869 129.6402 62.0024 -87.0950 -89.3959 -170.4724 -163.9158 -114.8030
State:	 28.211 -16.373  -0.249  -0.073 -0.446 -0.892 -42.648   -105.99  129.64   62.00  -87.10  -89.40 -170.47 -163.92 -114.80

DOCKED: MODEL       27
DOCKED: USER    Run = 27
DOCKED: USER    DPF = ligand_dock.biased.dpf
DOCKED: USER  
DOCKED: USER    Estimated Free Energy of Binding    =   -9.20 kcal/mol  [=(1)+(2)+(3)-(4)]
DOCKED: USER    Estimated Inhibition Constant, Ki   =  179.48 nM (nanomolar)  [Temperature = 298.15 K]
DOCKED: USER    
DOCKED: USER    (1) Final Intermolecular Energy     =  -11.59 kcal/mol
DOCKED: USER        vdW + Hbond + desolv Energy     =  -11.59 kcal/mol
DOCKED: USER        Electrostatic Energy            =   +0.00 kcal/mol
DOCKED: USER    (2) Final Total Internal Energy     =   -0.84 kcal/mol
DOCKED: USER    (3) Torsional Free Energy           =   +2.39 kcal/mol
DOCKED: USER    (4) Unbound System's Energy  [=(2)] =   -0.84 kcal/mol
DOCKED: USER    
DOCKED: USER    
DOCKED: USER    NEWDPF move ligand.pdbqt
DOCKED: USER    NEWDPF about 0.185000 0.077000 0.153000
DOCKED: USER    NEWDPF tran0 28.210719 -16.373153 -0.249281
DOCKED: USER    NEWDPF quaternion0 -0.026467 -0.162016 -0.324477 -0.931539
DOCKED: USER    NEWDPF axisangle0 -0.072782 -0.445538 -0.892300 -42.647984
DOCKED: USER    NEWDPF quat0 -0.072782 -0.445538 -0.892300 -42.647984
DOCKED: USER    NEWDPF dihe0 -105.99 129.64 62.00 -87.10 -89.40 -170.47 -163.92 -114.80 
DOCKED: USER  keepresnum = 1 
DOCKED: USER  
DOCKED: REMARK  Name = 
DOCKED: REMARK  8 active torsions:
DOCKED: REMARK  status: ('A' for Active; 'I' for Inactive)
DOCKED: REMARK    1  A    between atoms: C_2  and  C_10
DOCKED: REMARK    2  A    between atoms: N_3  and  C_4
DOCKED: REMARK    3  A    between atoms: C_10  and  C_11
DOCKED: REMARK    4  A    between atoms: C_11  and  C_12
DOCKED: REMARK    5  A    between atoms: C_12  and  C_13
DOCKED: REMARK    6  A    between atoms: C_13  and  C_14
DOCKED: REMARK    7  A    between atoms: C_14  and  C_15
DOCKED: REMARK    8  A    between atoms: C_15  and  C_16
DOCKED: REMARK                            x       y       z     vdW  Elec       q    Type
DOCKED: REMARK                         _______ _______ _______ _____ _____    ______ ____
DOCKED: USER                              x       y       z     vdW  Elec       q    Type
DOCKED: USER                           _______ _______ _______ _____ _____    ______ ____
DOCKED: ROOT
DOCKED: ATOM      1  C   UNL     1      28.275 -16.063  -0.730 -0.30 -0.00    +0.000 C 
DOCKED: ENDROOT
DOCKED: BRANCH   1   3
DOCKED: ATOM      2  O   UNL     1      26.310 -14.809  -1.238 -0.36 -0.00    +0.000 OA
DOCKED: ATOM      3  C   UNL     1      27.352 -14.897  -0.534 -0.29 -0.00    +0.000 C 
DOCKED: ATOM      4  N   UNL     1      27.662 -13.896   0.448 -0.21 -0.00    +0.000 N 
DOCKED: ATOM      5  H   UNL     1      28.381 -14.087   1.092 -0.09 -0.00    +0.000 HD
DOCKED: BRANCH   4   6
DOCKED: ATOM      6  C   UNL     1      26.987 -12.630   0.548 -0.23 -0.00    +0.000 A 
DOCKED: ATOM      7  C   UNL     1      27.386 -11.570  -0.283 -0.13 -0.00    +0.000 A 
DOCKED: ATOM      8  C   UNL     1      26.730 -10.337  -0.223 -0.16 +0.00    +0.000 A 
DOCKED: ATOM      9  C   UNL     1      25.659 -10.156   0.656 -0.32 +0.00    +0.000 A 
DOCKED: ATOM     10  C   UNL     1      25.237 -11.211   1.470 -0.29 +0.00    +0.000 A 
DOCKED: ATOM     11  C   UNL     1      25.892 -12.445   1.413 -0.30 +0.00    +0.000 A 
DOCKED: ENDBRANCH   4   6
DOCKED: ENDBRANCH   1   3
DOCKED: BRANCH   1  12
DOCKED: ATOM     12  C   UNL     1      27.578 -17.367  -0.327 -0.39 -0.00    +0.000 C 
DOCKED: BRANCH  12  13
DOCKED: ATOM     13  C   UNL     1      26.290 -17.630  -1.127 -0.54 -0.00    +0.000 C 
DOCKED: BRANCH  13  14
DOCKED: ATOM     14  C   UNL     1      25.000 -17.339  -0.330 -0.58 -0.00    +0.000 C 
DOCKED: BRANCH  14  15
DOCKED: ATOM     15  C   UNL     1      23.755 -17.310  -1.234 -0.70 -0.00    +0.000 C 
DOCKED: BRANCH  15  16
DOCKED: ATOM     16  C   UNL     1      23.148 -18.706  -1.435 -0.77 -0.00    +0.000 C 
DOCKED: BRANCH  16  17
DOCKED: ATOM     17  C   UNL     1      21.673 -18.717  -1.160 -0.74 -0.00    +0.000 C 
DOCKED: ATOM     18  N   UNL     1      20.835 -19.714  -1.751 -0.74 -0.00    +0.000 N 
DOCKED: ATOM     19  O   UNL     1      19.507 -19.734  -1.492 -2.10 -0.00    +0.000 OA
DOCKED: ATOM     20  O   UNL     1      21.176 -17.859  -0.382 -1.85 -0.00    +0.000 OA
DOCKED: ATOM     21  H   UNL     1      21.226 -20.390  -2.350 -0.51 -0.00    +0.000 HD
DOCKED: ENDBRANCH  16  17
DOCKED: ENDBRANCH  15  16
DOCKED: ENDBRANCH  14  15
DOCKED: ENDBRANCH  13  14
DOCKED: ENDBRANCH  12  13
DOCKED: ENDBRANCH   1  12
DOCKED: TORSDOF 8
DOCKED: TER
DOCKED: ENDMDL
________________________________________________________________________________


	BEGINNING GENETIC ALGORITHM DOCKING 28 of 100
Run: 28 Seed: 1385787637 284764497 [ Run 28 of 100 GA/GALS ]
Beginning LAMARCKIAN GENETIC ALGORITHM (LGA), with a maximum of 2500000 energy evaluations.

Final-Value: -13.978


	FINAL GENETIC ALGORITHM DOCKED STATE
	_______________________________________________


Detailed state:  trans 26.154 -16.230 -3.384 quatxyzw 0.657325 -0.524864 0.447350 0.303842 center 0.185 0.077 0.153 ntor 8 -150.2242 174.7468 174.1144 57.9232 8.3529 -66.2637 1.0350 0.6974
State:	 26.154 -16.230  -3.384   0.690 -0.551  0.470 144.623   -150.22  174.75  174.11   57.92    8.35  -66.26    1.03    0.70

DOCKED: MODEL       28
DOCKED: USER    Run = 28
DOCKED: USER    DPF = ligand_dock.biased.dpf
DOCKED: USER  
DOCKED: USER    Estimated Free Energy of Binding    =  -10.81 kcal/mol  [=(1)+(2)+(3)-(4)]
DOCKED: USER    Estimated Inhibition Constant, Ki   =   12.00 nM (nanomolar)  [Temperature = 298.15 K]
DOCKED: USER    
DOCKED: USER    (1) Final Intermolecular Energy     =  -13.19 kcal/mol
DOCKED: USER        vdW + Hbond + desolv Energy     =  -13.19 kcal/mol
DOCKED: USER        Electrostatic Energy            =   +0.00 kcal/mol
DOCKED: USER    (2) Final Total Internal Energy     =   -0.79 kcal/mol
DOCKED: USER    (3) Torsional Free Energy           =   +2.39 kcal/mol
DOCKED: USER    (4) Unbound System's Energy  [=(2)] =   -0.79 kcal/mol
DOCKED: USER    
DOCKED: USER    
DOCKED: USER    NEWDPF move ligand.pdbqt
DOCKED: USER    NEWDPF about 0.185000 0.077000 0.153000
DOCKED: USER    NEWDPF tran0 26.153876 -16.230134 -3.383578
DOCKED: USER    NEWDPF quaternion0 0.657325 -0.524864 0.447350 0.303842
DOCKED: USER    NEWDPF axisangle0 0.689944 -0.550909 0.469549 144.623018
DOCKED: USER    NEWDPF quat0 0.689944 -0.550909 0.469549 144.623018
DOCKED: USER    NEWDPF dihe0 -150.22 174.75 174.11 57.92 8.35 -66.26 1.03 0.70 
DOCKED: USER  keepresnum = 1 
DOCKED: USER  
DOCKED: REMARK  Name = 
DOCKED: REMARK  8 active torsions:
DOCKED: REMARK  status: ('A' for Active; 'I' for Inactive)
DOCKED: REMARK    1  A    between atoms: C_2  and  C_10
DOCKED: REMARK    2  A    between atoms: N_3  and  C_4
DOCKED: REMARK    3  A    between atoms: C_10  and  C_11
DOCKED: REMARK    4  A    between atoms: C_11  and  C_12
DOCKED: REMARK    5  A    between atoms: C_12  and  C_13
DOCKED: REMARK    6  A    between atoms: C_13  and  C_14
DOCKED: REMARK    7  A    between atoms: C_14  and  C_15
DOCKED: REMARK    8  A    between atoms: C_15  and  C_16
DOCKED: REMARK                            x       y       z     vdW  Elec       q    Type
DOCKED: REMARK                         _______ _______ _______ _____ _____    ______ ____
DOCKED: USER                              x       y       z     vdW  Elec       q    Type
DOCKED: USER                           _______ _______ _______ _____ _____    ______ ____
DOCKED: ROOT
DOCKED: ATOM      1  C   UNL     1      25.647 -15.988  -3.509 -0.49 -0.00    +0.000 C 
DOCKED: ENDROOT
DOCKED: BRANCH   1   3
DOCKED: ATOM      2  O   UNL     1      26.670 -15.114  -5.479 -1.02 +0.00    +0.000 OA
DOCKED: ATOM      3  C   UNL     1      26.000 -14.867  -4.439 -0.57 -0.00    +0.000 C 
DOCKED: ATOM      4  N   UNL     1      25.576 -13.528  -4.141 -0.46 -0.00    +0.000 N 
DOCKED: ATOM      5  H   UNL     1      24.913 -13.402  -3.424 -0.04 -0.00    +0.000 HD
DOCKED: BRANCH   4   6
DOCKED: ATOM      6  C   UNL     1      26.060 -12.358  -4.823 -0.26 -0.00    +0.000 A 
DOCKED: ATOM      7  C   UNL     1      27.410 -12.293  -5.204 -0.19 -0.00    +0.000 A 
DOCKED: ATOM      8  C   UNL     1      27.899 -11.178  -5.890 -0.11 -0.00    +0.000 A 
DOCKED: ATOM      9  C   UNL     1      27.042 -10.125  -6.217 -0.11 -0.00    +0.000 A 
DOCKED: ATOM     10  C   UNL     1      25.691 -10.189  -5.864 -0.23 -0.00    +0.000 A 
DOCKED: ATOM     11  C   UNL     1      25.198 -11.303  -5.176 -0.34 -0.00    +0.000 A 
DOCKED: ENDBRANCH   4   6
DOCKED: ENDBRANCH   1   3
DOCKED: BRANCH   1  12
DOCKED: ATOM     12  C   UNL     1      26.608 -16.013  -2.315 -0.43 -0.00    +0.000 C 
DOCKED: BRANCH  12  13
DOCKED: ATOM     13  C   UNL     1      26.214 -17.050  -1.249 -0.55 -0.00    +0.000 C 
DOCKED: BRANCH  13  14
DOCKED: ATOM     14  C   UNL     1      24.946 -17.853  -1.611 -0.61 -0.00    +0.000 C 
DOCKED: BRANCH  14  15
DOCKED: ATOM     15  C   UNL     1      23.676 -17.241  -0.992 -0.71 -0.00    +0.000 C 
DOCKED: BRANCH  15  16
DOCKED: ATOM     16  C   UNL     1      22.848 -18.276  -0.218 -0.81 -0.00    +0.000 C 
DOCKED: BRANCH  16  17
DOCKED: ATOM     17  C   UNL     1      21.480 -18.449  -0.809 -0.82 -0.00    +0.000 C 
DOCKED: ATOM     18  N   UNL     1      21.120 -19.673  -1.455 -0.72 -0.00    +0.000 N 
DOCKED: ATOM     19  O   UNL     1      19.882 -19.836  -1.975 -2.30 -0.00    +0.000 OA
DOCKED: ATOM     20  O   UNL     1      20.634 -17.520  -0.709 -2.11 +0.00    +0.000 OA
DOCKED: ATOM     21  H   UNL     1      21.778 -20.402  -1.523 -0.33 -0.00    +0.000 HD
DOCKED: ENDBRANCH  16  17
DOCKED: ENDBRANCH  15  16
DOCKED: ENDBRANCH  14  15
DOCKED: ENDBRANCH  13  14
DOCKED: ENDBRANCH  12  13
DOCKED: ENDBRANCH   1  12
DOCKED: TORSDOF 8
DOCKED: TER
DOCKED: ENDMDL
________________________________________________________________________________


	BEGINNING GENETIC ALGORITHM DOCKING 29 of 100
Run: 29 Seed: 2137907840 20439627 [ Run 29 of 100 GA/GALS ]
Beginning LAMARCKIAN GENETIC ALGORITHM (LGA), with a maximum of 2500000 energy evaluations.

Final-Value: -13.186


	FINAL GENETIC ALGORITHM DOCKED STATE
	_______________________________________________


Detailed state:  trans 25.750 -16.357 -2.994 quatxyzw 0.362470 -0.456855 0.754048 0.302177 center 0.185 0.077 0.153 ntor 8 157.6832 135.6436 134.2613 53.2028 129.0837 -172.8843 -79.6871 96.7897
State:	 25.750 -16.357  -2.994   0.380 -0.479  0.791 144.823    157.68  135.64  134.26   53.20  129.08 -172.88  -79.69   96.79

DOCKED: MODEL       29
DOCKED: USER    Run = 29
DOCKED: USER    DPF = ligand_dock.biased.dpf
DOCKED: USER  
DOCKED: USER    Estimated Free Energy of Binding    =   -9.99 kcal/mol  [=(1)+(2)+(3)-(4)]
DOCKED: USER    Estimated Inhibition Constant, Ki   =   47.80 nM (nanomolar)  [Temperature = 298.15 K]
DOCKED: USER    
DOCKED: USER    (1) Final Intermolecular Energy     =  -12.37 kcal/mol
DOCKED: USER        vdW + Hbond + desolv Energy     =  -12.37 kcal/mol
DOCKED: USER        Electrostatic Energy            =   +0.00 kcal/mol
DOCKED: USER    (2) Final Total Internal Energy     =   -0.81 kcal/mol
DOCKED: USER    (3) Torsional Free Energy           =   +2.39 kcal/mol
DOCKED: USER    (4) Unbound System's Energy  [=(2)] =   -0.81 kcal/mol
DOCKED: USER    
DOCKED: USER    
DOCKED: USER    NEWDPF move ligand.pdbqt
DOCKED: USER    NEWDPF about 0.185000 0.077000 0.153000
DOCKED: USER    NEWDPF tran0 25.749866 -16.357113 -2.993973
DOCKED: USER    NEWDPF quaternion0 0.362470 -0.456855 0.754048 0.302177
DOCKED: USER    NEWDPF axisangle0 0.380246 -0.479259 0.791027 144.823207
DOCKED: USER    NEWDPF quat0 0.380246 -0.479259 0.791027 144.823207
DOCKED: USER    NEWDPF dihe0 157.68 135.64 134.26 53.20 129.08 -172.88 -79.69 96.79 
DOCKED: USER  keepresnum = 1 
DOCKED: USER  
DOCKED: REMARK  Name = 
DOCKED: REMARK  8 active torsions:
DOCKED: REMARK  status: ('A' for Active; 'I' for Inactive)
DOCKED: REMARK    1  A    between atoms: C_2  and  C_10
DOCKED: REMARK    2  A    between atoms: N_3  and  C_4
DOCKED: REMARK    3  A    between atoms: C_10  and  C_11
DOCKED: REMARK    4  A    between atoms: C_11  and  C_12
DOCKED: REMARK    5  A    between atoms: C_12  and  C_13
DOCKED: REMARK    6  A    between atoms: C_13  and  C_14
DOCKED: REMARK    7  A    between atoms: C_14  and  C_15
DOCKED: REMARK    8  A    between atoms: C_15  and  C_16
DOCKED: REMARK                            x       y       z     vdW  Elec       q    Type
DOCKED: REMARK                         _______ _______ _______ _____ _____    ______ ____
DOCKED: USER                              x       y       z     vdW  Elec       q    Type
DOCKED: USER                           _______ _______ _______ _____ _____    ______ ____
DOCKED: ROOT
DOCKED: ATOM      1  C   UNL     1      25.594 -16.031  -3.442 -0.47 -0.00    +0.000 C 
DOCKED: ENDROOT
DOCKED: BRANCH   1   3
DOCKED: ATOM      2  O   UNL     1      27.841 -15.298  -3.118 -0.27 -0.00    +0.000 OA
DOCKED: ATOM      3  C   UNL     1      26.883 -15.439  -3.927 -0.45 -0.00    +0.000 C 
DOCKED: ATOM      4  N   UNL     1      27.017 -15.041  -5.300 -0.48 -0.00    +0.000 N 
DOCKED: ATOM      5  H   UNL     1      26.321 -15.325  -5.934 -0.07 +0.00    +0.000 HD
DOCKED: BRANCH   4   6
DOCKED: ATOM      6  C   UNL     1      28.106 -14.249  -5.806 -0.32 -0.00    +0.000 A 
DOCKED: ATOM      7  C   UNL     1      28.123 -12.866  -5.563 -0.19 -0.00    +0.000 A 
DOCKED: ATOM      8  C   UNL     1      29.182 -12.079  -6.022 -0.09 -0.00    +0.000 A 
DOCKED: ATOM      9  C   UNL     1      30.242 -12.668  -6.716 -0.11 -0.00    +0.000 A 
DOCKED: ATOM     10  C   UNL     1      30.248 -14.046  -6.944 -0.21 -0.00    +0.000 A 
DOCKED: ATOM     11  C   UNL     1      29.189 -14.837  -6.486 -0.33 -0.00    +0.000 A 
DOCKED: ENDBRANCH   4   6
DOCKED: ENDBRANCH   1   3
DOCKED: BRANCH   1  12
DOCKED: ATOM     12  C   UNL     1      25.509 -15.944  -1.914 -0.55 -0.00    +0.000 C 
DOCKED: BRANCH  12  13
DOCKED: ATOM     13  C   UNL     1      26.102 -17.176  -1.210 -0.57 -0.00    +0.000 C 
DOCKED: BRANCH  13  14
DOCKED: ATOM     14  C   UNL     1      25.036 -18.117  -0.612 -0.72 -0.00    +0.000 C 
DOCKED: BRANCH  14  15
DOCKED: ATOM     15  C   UNL     1      23.688 -18.008  -1.347 -0.76 -0.00    +0.000 C 
DOCKED: BRANCH  15  16
DOCKED: ATOM     16  C   UNL     1      22.504 -17.886  -0.379 -0.81 -0.00    +0.000 C 
DOCKED: BRANCH  16  17
DOCKED: ATOM     17  C   UNL     1      21.213 -18.301  -1.021 -0.71 -0.00    +0.000 C 
DOCKED: ATOM     18  N   UNL     1      21.055 -19.625  -1.539 -0.73 -0.00    +0.000 N 
DOCKED: ATOM     19  O   UNL     1      19.886 -20.004  -2.105 -2.19 -0.00    +0.000 OA
DOCKED: ATOM     20  O   UNL     1      20.254 -17.485  -1.079 -2.01 -0.00    +0.000 OA
DOCKED: ATOM     21  H   UNL     1      21.801 -20.264  -1.482 -0.35 -0.00    +0.000 HD
DOCKED: ENDBRANCH  16  17
DOCKED: ENDBRANCH  15  16
DOCKED: ENDBRANCH  14  15
DOCKED: ENDBRANCH  13  14
DOCKED: ENDBRANCH  12  13
DOCKED: ENDBRANCH   1  12
DOCKED: TORSDOF 8
DOCKED: TER
DOCKED: ENDMDL
________________________________________________________________________________


	BEGINNING GENETIC ALGORITHM DOCKING 30 of 100
Run: 30 Seed: 361187729 1027772812 [ Run 30 of 100 GA/GALS ]
Beginning LAMARCKIAN GENETIC ALGORITHM (LGA), with a maximum of 2500000 energy evaluations.

Final-Value: -12.542


	FINAL GENETIC ALGORITHM DOCKED STATE
	_______________________________________________


Detailed state:  trans 27.966 -16.022 -1.771 quatxyzw -0.457760 -0.374731 -0.649617 -0.477526 center 0.185 0.077 0.153 ntor 8 -133.4770 134.7646 160.1099 48.1352 -16.9757 -161.8487 9.2809 7.1887
State:	 27.966 -16.022  -1.771  -0.521 -0.427 -0.739 -122.952   -133.48  134.76  160.11   48.14  -16.98 -161.85    9.28    7.19

DOCKED: MODEL       30
DOCKED: USER    Run = 30
DOCKED: USER    DPF = ligand_dock.biased.dpf
DOCKED: USER  
DOCKED: USER    Estimated Free Energy of Binding    =   -9.45 kcal/mol  [=(1)+(2)+(3)-(4)]
DOCKED: USER    Estimated Inhibition Constant, Ki   =  117.35 nM (nanomolar)  [Temperature = 298.15 K]
DOCKED: USER    
DOCKED: USER    (1) Final Intermolecular Energy     =  -11.84 kcal/mol
DOCKED: USER        vdW + Hbond + desolv Energy     =  -11.84 kcal/mol
DOCKED: USER        Electrostatic Energy            =   +0.00 kcal/mol
DOCKED: USER    (2) Final Total Internal Energy     =   -0.70 kcal/mol
DOCKED: USER    (3) Torsional Free Energy           =   +2.39 kcal/mol
DOCKED: USER    (4) Unbound System's Energy  [=(2)] =   -0.70 kcal/mol
DOCKED: USER    
DOCKED: USER    
DOCKED: USER    NEWDPF move ligand.pdbqt
DOCKED: USER    NEWDPF about 0.185000 0.077000 0.153000
DOCKED: USER    NEWDPF tran0 27.965735 -16.021901 -1.771361
DOCKED: USER    NEWDPF quaternion0 -0.457760 -0.374731 -0.649617 -0.477526
DOCKED: USER    NEWDPF axisangle0 -0.521000 -0.426501 -0.739362 -122.952148
DOCKED: USER    NEWDPF quat0 -0.521000 -0.426501 -0.739362 -122.952148
DOCKED: USER    NEWDPF dihe0 -133.48 134.76 160.11 48.14 -16.98 -161.85 9.28 7.19 
DOCKED: USER  keepresnum = 1 
DOCKED: USER  
DOCKED: REMARK  Name = 
DOCKED: REMARK  8 active torsions:
DOCKED: REMARK  status: ('A' for Active; 'I' for Inactive)
DOCKED: REMARK    1  A    between atoms: C_2  and  C_10
DOCKED: REMARK    2  A    between atoms: N_3  and  C_4
DOCKED: REMARK    3  A    between atoms: C_10  and  C_11
DOCKED: REMARK    4  A    between atoms: C_11  and  C_12
DOCKED: REMARK    5  A    between atoms: C_12  and  C_13
DOCKED: REMARK    6  A    between atoms: C_13  and  C_14
DOCKED: REMARK    7  A    between atoms: C_14  and  C_15
DOCKED: REMARK    8  A    between atoms: C_15  and  C_16
DOCKED: REMARK                            x       y       z     vdW  Elec       q    Type
DOCKED: REMARK                         _______ _______ _______ _____ _____    ______ ____
DOCKED: USER                              x       y       z     vdW  Elec       q    Type
DOCKED: USER                           _______ _______ _______ _____ _____    ______ ____
DOCKED: ROOT
DOCKED: ATOM      1  C   UNL     1      28.149 -16.402  -2.163 -0.31 -0.00    +0.000 C 
DOCKED: ENDROOT
DOCKED: BRANCH   1   3
DOCKED: ATOM      2  O   UNL     1      29.828 -14.873  -2.896 -0.10 -0.00    +0.000 OA
DOCKED: ATOM      3  C   UNL     1      28.812 -15.553  -3.207 -0.23 -0.00    +0.000 C 
DOCKED: ATOM      4  N   UNL     1      28.289 -15.522  -4.544 -0.33 -0.00    +0.000 N 
DOCKED: ATOM      5  H   UNL     1      27.612 -16.192  -4.791 -0.03 +0.00    +0.000 HD
DOCKED: BRANCH   4   6
DOCKED: ATOM      6  C   UNL     1      28.691 -14.570  -5.544 -0.30 -0.00    +0.000 A 
DOCKED: ATOM      7  C   UNL     1      28.181 -13.262  -5.494 -0.21 -0.00    +0.000 A 
DOCKED: ATOM      8  C   UNL     1      28.576 -12.312  -6.440 -0.16 -0.00    +0.000 A 
DOCKED: ATOM      9  C   UNL     1      29.495 -12.654  -7.435 -0.18 -0.00    +0.000 A 
DOCKED: ATOM     10  C   UNL     1      30.027 -13.945  -7.480 -0.22 -0.00    +0.000 A 
DOCKED: ATOM     11  C   UNL     1      29.633 -14.899  -6.536 -0.31 -0.00    +0.000 A 
DOCKED: ENDBRANCH   4   6
DOCKED: ENDBRANCH   1   3
DOCKED: BRANCH   1  12
DOCKED: ATOM     12  C   UNL     1      26.809 -15.784  -1.748 -0.39 -0.00    +0.000 C 
DOCKED: BRANCH  12  13
DOCKED: ATOM     13  C   UNL     1      26.083 -16.601  -0.665 -0.52 -0.00    +0.000 C 
DOCKED: BRANCH  13  14
DOCKED: ATOM     14  C   UNL     1      25.044 -17.590  -1.234 -0.68 -0.00    +0.000 C 
DOCKED: BRANCH  14  15
DOCKED: ATOM     15  C   UNL     1      23.625 -17.307  -0.710 -0.73 -0.00    +0.000 C 
DOCKED: BRANCH  15  16
DOCKED: ATOM     16  C   UNL     1      22.869 -18.593  -0.349 -0.83 -0.00    +0.000 C 
DOCKED: BRANCH  16  17
DOCKED: ATOM     17  C   UNL     1      21.483 -18.605  -0.925 -0.82 -0.00    +0.000 C 
DOCKED: ATOM     18  N   UNL     1      21.028 -19.723  -1.691 -0.69 -0.00    +0.000 N 
DOCKED: ATOM     19  O   UNL     1      19.774 -19.742  -2.197 -2.19 -0.00    +0.000 OA
DOCKED: ATOM     20  O   UNL     1      20.708 -17.635  -0.707 -2.17 +0.00    +0.000 OA
DOCKED: ATOM     21  H   UNL     1      21.631 -20.485  -1.850 -0.42 -0.00    +0.000 HD
DOCKED: ENDBRANCH  16  17
DOCKED: ENDBRANCH  15  16
DOCKED: ENDBRANCH  14  15
DOCKED: ENDBRANCH  13  14
DOCKED: ENDBRANCH  12  13
DOCKED: ENDBRANCH   1  12
DOCKED: TORSDOF 8
DOCKED: TER
DOCKED: ENDMDL
________________________________________________________________________________


	BEGINNING GENETIC ALGORITHM DOCKING 31 of 100
Run: 31 Seed: 97726181 572532608 [ Run 31 of 100 GA/GALS ]
Beginning LAMARCKIAN GENETIC ALGORITHM (LGA), with a maximum of 2500000 energy evaluations.

Final-Value: -12.746


	FINAL GENETIC ALGORITHM DOCKED STATE
	_______________________________________________


Detailed state:  trans 27.335 -15.289 -0.472 quatxyzw -0.088469 0.870720 -0.070471 -0.478596 center 0.185 0.077 0.153 ntor 8 178.7273 -21.8306 161.1048 30.0825 -146.6377 -174.2549 23.2639 28.4612
State:	 27.335 -15.289  -0.472  -0.101  0.992 -0.080 -122.812    178.73  -21.83  161.10   30.08 -146.64 -174.25   23.26   28.46

DOCKED: MODEL       31
DOCKED: USER    Run = 31
DOCKED: USER    DPF = ligand_dock.biased.dpf
DOCKED: USER  
DOCKED: USER    Estimated Free Energy of Binding    =   -9.61 kcal/mol  [=(1)+(2)+(3)-(4)]
DOCKED: USER    Estimated Inhibition Constant, Ki   =   90.14 nM (nanomolar)  [Temperature = 298.15 K]
DOCKED: USER    
DOCKED: USER    (1) Final Intermolecular Energy     =  -12.00 kcal/mol
DOCKED: USER        vdW + Hbond + desolv Energy     =  -12.00 kcal/mol
DOCKED: USER        Electrostatic Energy            =   +0.00 kcal/mol
DOCKED: USER    (2) Final Total Internal Energy     =   -0.75 kcal/mol
DOCKED: USER    (3) Torsional Free Energy           =   +2.39 kcal/mol
DOCKED: USER    (4) Unbound System's Energy  [=(2)] =   -0.75 kcal/mol
DOCKED: USER    
DOCKED: USER    
DOCKED: USER    NEWDPF move ligand.pdbqt
DOCKED: USER    NEWDPF about 0.185000 0.077000 0.153000
DOCKED: USER    NEWDPF tran0 27.334826 -15.288933 -0.472486
DOCKED: USER    NEWDPF quaternion0 -0.088469 0.870720 -0.070471 -0.478596
DOCKED: USER    NEWDPF axisangle0 -0.100758 0.991668 -0.080260 -122.812453
DOCKED: USER    NEWDPF quat0 -0.100758 0.991668 -0.080260 -122.812453
DOCKED: USER    NEWDPF dihe0 178.73 -21.83 161.10 30.08 -146.64 -174.25 23.26 28.46 
DOCKED: USER  keepresnum = 1 
DOCKED: USER  
DOCKED: REMARK  Name = 
DOCKED: REMARK  8 active torsions:
DOCKED: REMARK  status: ('A' for Active; 'I' for Inactive)
DOCKED: REMARK    1  A    between atoms: C_2  and  C_10
DOCKED: REMARK    2  A    between atoms: N_3  and  C_4
DOCKED: REMARK    3  A    between atoms: C_10  and  C_11
DOCKED: REMARK    4  A    between atoms: C_11  and  C_12
DOCKED: REMARK    5  A    between atoms: C_12  and  C_13
DOCKED: REMARK    6  A    between atoms: C_13  and  C_14
DOCKED: REMARK    7  A    between atoms: C_14  and  C_15
DOCKED: REMARK    8  A    between atoms: C_15  and  C_16
DOCKED: REMARK                            x       y       z     vdW  Elec       q    Type
DOCKED: REMARK                         _______ _______ _______ _____ _____    ______ ____
DOCKED: USER                              x       y       z     vdW  Elec       q    Type
DOCKED: USER                           _______ _______ _______ _____ _____    ______ ____
DOCKED: ROOT
DOCKED: ATOM      1  C   UNL     1      27.106 -14.958  -0.061 -0.32 -0.00    +0.000 C 
DOCKED: ENDROOT
DOCKED: BRANCH   1   3
DOCKED: ATOM      2  O   UNL     1      28.893 -13.381   0.041 -0.10 -0.00    +0.000 OA
DOCKED: ATOM      3  C   UNL     1      28.296 -14.336   0.607 -0.23 -0.00    +0.000 C 
DOCKED: ATOM      4  N   UNL     1      28.744 -14.831   1.878 -0.06 -0.00    +0.000 N 
DOCKED: ATOM      5  H   UNL     1      28.156 -15.451   2.366 -1.20 -0.00    +0.000 HD
DOCKED: BRANCH   4   6
DOCKED: ATOM      6  C   UNL     1      30.001 -14.479   2.483 -0.14 -0.00    +0.000 A 
DOCKED: ATOM      7  C   UNL     1      30.015 -13.957   3.786 -0.25 -0.00    +0.000 A 
DOCKED: ATOM      8  C   UNL     1      31.225 -13.630   4.405 -0.18 -0.00    +0.000 A 
DOCKED: ATOM      9  C   UNL     1      32.433 -13.836   3.734 -0.12 -0.00    +0.000 A 
DOCKED: ATOM     10  C   UNL     1      32.432 -14.377   2.446 -0.09 -0.00    +0.000 A 
DOCKED: ATOM     11  C   UNL     1      31.223 -14.705   1.823 -0.12 -0.00    +0.000 A 
DOCKED: ENDBRANCH   4   6
DOCKED: ENDBRANCH   1   3
DOCKED: BRANCH   1  12
DOCKED: ATOM     12  C   UNL     1      27.344 -16.455  -0.286 -0.41 -0.00    +0.000 C 
DOCKED: BRANCH  12  13
DOCKED: ATOM     13  C   UNL     1      26.459 -17.041  -1.400 -0.52 -0.00    +0.000 C 
DOCKED: BRANCH  13  14
DOCKED: ATOM     14  C   UNL     1      25.326 -17.947  -0.874 -0.67 -0.00    +0.000 C 
DOCKED: BRANCH  14  15
DOCKED: ATOM     15  C   UNL     1      23.939 -17.304  -1.053 -0.72 -0.00    +0.000 C 
DOCKED: BRANCH  15  16
DOCKED: ATOM     16  C   UNL     1      22.905 -17.863  -0.066 -0.71 -0.00    +0.000 C 
DOCKED: BRANCH  16  17
DOCKED: ATOM     17  C   UNL     1      21.632 -18.257  -0.755 -0.83 -0.00    +0.000 C 
DOCKED: ATOM     18  N   UNL     1      21.536 -19.511  -1.435 -0.67 -0.00    +0.000 N 
DOCKED: ATOM     19  O   UNL     1      20.384 -19.874  -2.044 -2.21 -0.00    +0.000 OA
DOCKED: ATOM     20  O   UNL     1      20.634 -17.489  -0.710 -2.09 +0.00    +0.000 OA
DOCKED: ATOM     21  H   UNL     1      22.313 -20.115  -1.461 -0.36 -0.00    +0.000 HD
DOCKED: ENDBRANCH  16  17
DOCKED: ENDBRANCH  15  16
DOCKED: ENDBRANCH  14  15
DOCKED: ENDBRANCH  13  14
DOCKED: ENDBRANCH  12  13
DOCKED: ENDBRANCH   1  12
DOCKED: TORSDOF 8
DOCKED: TER
DOCKED: ENDMDL
________________________________________________________________________________


	BEGINNING GENETIC ALGORITHM DOCKING 32 of 100
Run: 32 Seed: 1530711777 313242848 [ Run 32 of 100 GA/GALS ]
Beginning LAMARCKIAN GENETIC ALGORITHM (LGA), with a maximum of 2500000 energy evaluations.

Final-Value: -12.688


	FINAL GENETIC ALGORITHM DOCKED STATE
	_______________________________________________


Detailed state:  trans 27.700 -16.194 -1.117 quatxyzw 0.054733 0.943629 -0.147013 -0.291471 center 0.185 0.077 0.153 ntor 8 -164.9504 -3.8403 79.6211 -101.3472 -141.5063 -11.4963 -14.8686 -28.2899
State:	 27.700 -16.194  -1.117   0.057  0.986 -0.154 -146.108   -164.95   -3.84   79.62 -101.35 -141.51  -11.50  -14.87  -28.29

DOCKED: MODEL       32
DOCKED: USER    Run = 32
DOCKED: USER    DPF = ligand_dock.biased.dpf
DOCKED: USER  
DOCKED: USER    Estimated Free Energy of Binding    =   -9.60 kcal/mol  [=(1)+(2)+(3)-(4)]
DOCKED: USER    Estimated Inhibition Constant, Ki   =   92.50 nM (nanomolar)  [Temperature = 298.15 K]
DOCKED: USER    
DOCKED: USER    (1) Final Intermolecular Energy     =  -11.98 kcal/mol
DOCKED: USER        vdW + Hbond + desolv Energy     =  -11.98 kcal/mol
DOCKED: USER        Electrostatic Energy            =   +0.00 kcal/mol
DOCKED: USER    (2) Final Total Internal Energy     =   -0.71 kcal/mol
DOCKED: USER    (3) Torsional Free Energy           =   +2.39 kcal/mol
DOCKED: USER    (4) Unbound System's Energy  [=(2)] =   -0.71 kcal/mol
DOCKED: USER    
DOCKED: USER    
DOCKED: USER    NEWDPF move ligand.pdbqt
DOCKED: USER    NEWDPF about 0.185000 0.077000 0.153000
DOCKED: USER    NEWDPF tran0 27.699503 -16.193614 -1.117113
DOCKED: USER    NEWDPF quaternion0 0.054733 0.943629 -0.147013 -0.291471
DOCKED: USER    NEWDPF axisangle0 0.057218 0.986462 -0.153687 -146.107917
DOCKED: USER    NEWDPF quat0 0.057218 0.986462 -0.153687 -146.107917
DOCKED: USER    NEWDPF dihe0 -164.95 -3.84 79.62 -101.35 -141.51 -11.50 -14.87 -28.29 
DOCKED: USER  keepresnum = 1 
DOCKED: USER  
DOCKED: REMARK  Name = 
DOCKED: REMARK  8 active torsions:
DOCKED: REMARK  status: ('A' for Active; 'I' for Inactive)
DOCKED: REMARK    1  A    between atoms: C_2  and  C_10
DOCKED: REMARK    2  A    between atoms: N_3  and  C_4
DOCKED: REMARK    3  A    between atoms: C_10  and  C_11
DOCKED: REMARK    4  A    between atoms: C_11  and  C_12
DOCKED: REMARK    5  A    between atoms: C_12  and  C_13
DOCKED: REMARK    6  A    between atoms: C_13  and  C_14
DOCKED: REMARK    7  A    between atoms: C_14  and  C_15
DOCKED: REMARK    8  A    between atoms: C_15  and  C_16
DOCKED: REMARK                            x       y       z     vdW  Elec       q    Type
DOCKED: REMARK                         _______ _______ _______ _____ _____    ______ ____
DOCKED: USER                              x       y       z     vdW  Elec       q    Type
DOCKED: USER                           _______ _______ _______ _____ _____    ______ ____
DOCKED: ROOT
DOCKED: ATOM      1  C   UNL     1      27.761 -15.823  -0.681 -0.33 -0.00    +0.000 C 
DOCKED: ENDROOT
DOCKED: BRANCH   1   3
DOCKED: ATOM      2  O   UNL     1      29.978 -15.667  -1.549 -0.12 -0.00    +0.000 OA
DOCKED: ATOM      3  C   UNL     1      29.246 -15.694  -0.522 -0.20 -0.00    +0.000 C 
DOCKED: ATOM      4  N   UNL     1      29.821 -15.603   0.791 -0.07 -0.00    +0.000 N 
DOCKED: ATOM      5  H   UNL     1      29.215 -15.451   1.551 -1.23 -0.00    +0.000 HD
DOCKED: BRANCH   4   6
DOCKED: ATOM      6  C   UNL     1      31.227 -15.722   1.065 -0.11 -0.00    +0.000 A 
DOCKED: ATOM      7  C   UNL     1      31.801 -14.934   2.076 -0.12 -0.00    +0.000 A 
DOCKED: ATOM      8  C   UNL     1      33.161 -15.049   2.378 -0.09 -0.00    +0.000 A 
DOCKED: ATOM      9  C   UNL     1      33.957 -15.964   1.685 -0.05 -0.00    +0.000 A 
DOCKED: ATOM     10  C   UNL     1      33.393 -16.771   0.693 -0.04 -0.00    +0.000 A 
DOCKED: ATOM     11  C   UNL     1      32.032 -16.657   0.387 -0.10 -0.00    +0.000 A 
DOCKED: ENDBRANCH   4   6
DOCKED: ENDBRANCH   1   3
DOCKED: BRANCH   1  12
DOCKED: ATOM     12  C   UNL     1      27.369 -17.295  -0.849 -0.47 -0.00    +0.000 C 
DOCKED: BRANCH  12  13
DOCKED: ATOM     13  C   UNL     1      26.018 -17.634  -0.196 -0.60 -0.00    +0.000 C 
DOCKED: BRANCH  13  14
DOCKED: ATOM     14  C   UNL     1      24.856 -16.746  -0.689 -0.56 -0.00    +0.000 C 
DOCKED: BRANCH  14  15
DOCKED: ATOM     15  C   UNL     1      23.791 -17.554  -1.451 -0.71 -0.00    +0.000 C 
DOCKED: BRANCH  15  16
DOCKED: ATOM     16  C   UNL     1      22.956 -18.442  -0.518 -0.83 -0.00    +0.000 C 
DOCKED: BRANCH  16  17
DOCKED: ATOM     17  C   UNL     1      21.544 -18.588  -1.004 -0.81 -0.00    +0.000 C 
DOCKED: ATOM     18  N   UNL     1      21.156 -19.733  -1.768 -0.60 -0.00    +0.000 N 
DOCKED: ATOM     19  O   UNL     1      19.880 -19.873  -2.193 -2.26 -0.00    +0.000 OA
DOCKED: ATOM     20  O   UNL     1      20.689 -17.709  -0.712 -2.22 +0.00    +0.000 OA
DOCKED: ATOM     21  H   UNL     1      21.823 -20.424  -1.985 -0.46 -0.00    +0.000 HD
DOCKED: ENDBRANCH  16  17
DOCKED: ENDBRANCH  15  16
DOCKED: ENDBRANCH  14  15
DOCKED: ENDBRANCH  13  14
DOCKED: ENDBRANCH  12  13
DOCKED: ENDBRANCH   1  12
DOCKED: TORSDOF 8
DOCKED: TER
DOCKED: ENDMDL
________________________________________________________________________________


	BEGINNING GENETIC ALGORITHM DOCKING 33 of 100
Run: 33 Seed: 1259403161 952961013 [ Run 33 of 100 GA/GALS ]
Beginning LAMARCKIAN GENETIC ALGORITHM (LGA), with a maximum of 2500000 energy evaluations.

Final-Value: -13.964


	FINAL GENETIC ALGORITHM DOCKED STATE
	_______________________________________________


Detailed state:  trans 27.466 -15.401 0.258 quatxyzw 0.236716 0.236137 -0.537758 -0.773965 center 0.185 0.077 0.153 ntor 8 -79.1446 63.6475 176.3311 2.0649 156.6777 79.2616 -175.1886 -53.6650
State:	 27.466 -15.401   0.258   0.374  0.373 -0.849 -78.577    -79.14   63.65  176.33    2.06  156.68   79.26 -175.19  -53.67

DOCKED: MODEL       33
DOCKED: USER    Run = 33
DOCKED: USER    DPF = ligand_dock.biased.dpf
DOCKED: USER  
DOCKED: USER    Estimated Free Energy of Binding    =  -10.94 kcal/mol  [=(1)+(2)+(3)-(4)]
DOCKED: USER    Estimated Inhibition Constant, Ki   =    9.51 nM (nanomolar)  [Temperature = 298.15 K]
DOCKED: USER    
DOCKED: USER    (1) Final Intermolecular Energy     =  -13.33 kcal/mol
DOCKED: USER        vdW + Hbond + desolv Energy     =  -13.33 kcal/mol
DOCKED: USER        Electrostatic Energy            =   +0.00 kcal/mol
DOCKED: USER    (2) Final Total Internal Energy     =   -0.63 kcal/mol
DOCKED: USER    (3) Torsional Free Energy           =   +2.39 kcal/mol
DOCKED: USER    (4) Unbound System's Energy  [=(2)] =   -0.63 kcal/mol
DOCKED: USER    
DOCKED: USER    
DOCKED: USER    NEWDPF move ligand.pdbqt
DOCKED: USER    NEWDPF about 0.185000 0.077000 0.153000
DOCKED: USER    NEWDPF tran0 27.466432 -15.400668 0.257777
DOCKED: USER    NEWDPF quaternion0 0.236716 0.236137 -0.537758 -0.773965
DOCKED: USER    NEWDPF axisangle0 0.373823 0.372910 -0.849232 -78.577438
DOCKED: USER    NEWDPF quat0 0.373823 0.372910 -0.849232 -78.577438
DOCKED: USER    NEWDPF dihe0 -79.14 63.65 176.33 2.06 156.68 79.26 -175.19 -53.67 
DOCKED: USER  keepresnum = 1 
DOCKED: USER  
DOCKED: REMARK  Name = 
DOCKED: REMARK  8 active torsions:
DOCKED: REMARK  status: ('A' for Active; 'I' for Inactive)
DOCKED: REMARK    1  A    between atoms: C_2  and  C_10
DOCKED: REMARK    2  A    between atoms: N_3  and  C_4
DOCKED: REMARK    3  A    between atoms: C_10  and  C_11
DOCKED: REMARK    4  A    between atoms: C_11  and  C_12
DOCKED: REMARK    5  A    between atoms: C_12  and  C_13
DOCKED: REMARK    6  A    between atoms: C_13  and  C_14
DOCKED: REMARK    7  A    between atoms: C_14  and  C_15
DOCKED: REMARK    8  A    between atoms: C_15  and  C_16
DOCKED: REMARK                            x       y       z     vdW  Elec       q    Type
DOCKED: REMARK                         _______ _______ _______ _____ _____    ______ ____
DOCKED: USER                              x       y       z     vdW  Elec       q    Type
DOCKED: USER                           _______ _______ _______ _____ _____    ______ ____
DOCKED: ROOT
DOCKED: ATOM      1  C   UNL     1      27.572 -14.848   0.137 -0.29 -0.00    +0.000 C 
DOCKED: ENDROOT
DOCKED: BRANCH   1   3
DOCKED: ATOM      2  O   UNL     1      26.768 -13.239   1.705 -0.38 -0.00    +0.000 OA
DOCKED: ATOM      3  C   UNL     1      27.578 -14.179   1.479 -0.29 -0.00    +0.000 C 
DOCKED: ATOM      4  N   UNL     1      28.501 -14.612   2.491 -0.18 -0.00    +0.000 N 
DOCKED: ATOM      5  H   UNL     1      28.989 -15.453   2.341 -1.84 -0.00    +0.000 HD
DOCKED: BRANCH   4   6
DOCKED: ATOM      6  C   UNL     1      28.758 -13.892   3.709 -0.34 -0.00    +0.000 A 
DOCKED: ATOM      7  C   UNL     1      30.032 -13.961   4.294 -0.28 -0.00    +0.000 A 
DOCKED: ATOM      8  C   UNL     1      30.314 -13.250   5.463 -0.24 -0.00    +0.000 A 
DOCKED: ATOM      9  C   UNL     1      29.331 -12.451   6.051 -0.29 -0.00    +0.000 A 
DOCKED: ATOM     10  C   UNL     1      28.066 -12.355   5.465 -0.38 +0.00    +0.000 A 
DOCKED: ATOM     11  C   UNL     1      27.780 -13.066   4.295 -0.40 -0.00    +0.000 A 
DOCKED: ENDBRANCH   4   6
DOCKED: ENDBRANCH   1   3
DOCKED: BRANCH   1  12
DOCKED: ATOM     12  C   UNL     1      26.382 -15.808   0.026 -0.11 -0.00    +0.000 C 
DOCKED: BRANCH  12  13
DOCKED: ATOM     13  C   UNL     1      25.423 -15.445  -1.119 -0.37 -0.00    +0.000 C 
DOCKED: BRANCH  13  14
DOCKED: ATOM     14  C   UNL     1      24.775 -16.672  -1.793 -0.62 -0.00    +0.000 C 
DOCKED: BRANCH  14  15
DOCKED: ATOM     15  C   UNL     1      24.083 -17.596  -0.775 -0.75 -0.00    +0.000 C 
DOCKED: BRANCH  15  16
DOCKED: ATOM     16  C   UNL     1      23.347 -18.761  -1.450 -0.77 -0.00    +0.000 C 
DOCKED: BRANCH  16  17
DOCKED: ATOM     17  C   UNL     1      21.866 -18.694  -1.219 -0.70 -0.00    +0.000 C 
DOCKED: ATOM     18  N   UNL     1      21.009 -19.725  -1.717 -0.70 -0.00    +0.000 N 
DOCKED: ATOM     19  O   UNL     1      19.676 -19.673  -1.495 -2.15 -0.00    +0.000 OA
DOCKED: ATOM     20  O   UNL     1      21.380 -17.738  -0.557 -1.74 -0.00    +0.000 OA
DOCKED: ATOM     21  H   UNL     1      21.392 -20.477  -2.223 -0.52 -0.00    +0.000 HD
DOCKED: ENDBRANCH  16  17
DOCKED: ENDBRANCH  15  16
DOCKED: ENDBRANCH  14  15
DOCKED: ENDBRANCH  13  14
DOCKED: ENDBRANCH  12  13
DOCKED: ENDBRANCH   1  12
DOCKED: TORSDOF 8
DOCKED: TER
DOCKED: ENDMDL
________________________________________________________________________________


	BEGINNING GENETIC ALGORITHM DOCKING 34 of 100
Run: 34 Seed: 1341091710 73286274 [ Run 34 of 100 GA/GALS ]
Beginning LAMARCKIAN GENETIC ALGORITHM (LGA), with a maximum of 2500000 energy evaluations.

Final-Value: -13.570


	FINAL GENETIC ALGORITHM DOCKED STATE
	_______________________________________________


Detailed state:  trans 27.319 -16.037 -0.255 quatxyzw -0.503495 0.297981 0.667599 0.460447 center 0.185 0.077 0.153 ntor 8 178.1062 167.2668 153.7513 67.5242 -88.3482 -179.7049 -89.0130 134.7685
State:	 27.319 -16.037  -0.255  -0.567  0.336  0.752 125.168    178.11  167.27  153.75   67.52  -88.35 -179.70  -89.01  134.77

DOCKED: MODEL       34
DOCKED: USER    Run = 34
DOCKED: USER    DPF = ligand_dock.biased.dpf
DOCKED: USER  
DOCKED: USER    Estimated Free Energy of Binding    =  -10.74 kcal/mol  [=(1)+(2)+(3)-(4)]
DOCKED: USER    Estimated Inhibition Constant, Ki   =   13.37 nM (nanomolar)  [Temperature = 298.15 K]
DOCKED: USER    
DOCKED: USER    (1) Final Intermolecular Energy     =  -13.13 kcal/mol
DOCKED: USER        vdW + Hbond + desolv Energy     =  -13.13 kcal/mol
DOCKED: USER        Electrostatic Energy            =   +0.00 kcal/mol
DOCKED: USER    (2) Final Total Internal Energy     =   -0.44 kcal/mol
DOCKED: USER    (3) Torsional Free Energy           =   +2.39 kcal/mol
DOCKED: USER    (4) Unbound System's Energy  [=(2)] =   -0.44 kcal/mol
DOCKED: USER    
DOCKED: USER    
DOCKED: USER    NEWDPF move ligand.pdbqt
DOCKED: USER    NEWDPF about 0.185000 0.077000 0.153000
DOCKED: USER    NEWDPF tran0 27.318856 -16.036557 -0.255092
DOCKED: USER    NEWDPF quaternion0 -0.503495 0.297981 0.667599 0.460447
DOCKED: USER    NEWDPF axisangle0 -0.567199 0.335682 0.752066 125.168035
DOCKED: USER    NEWDPF quat0 -0.567199 0.335682 0.752066 125.168035
DOCKED: USER    NEWDPF dihe0 178.11 167.27 153.75 67.52 -88.35 -179.70 -89.01 134.77 
DOCKED: USER  keepresnum = 1 
DOCKED: USER  
DOCKED: REMARK  Name = 
DOCKED: REMARK  8 active torsions:
DOCKED: REMARK  status: ('A' for Active; 'I' for Inactive)
DOCKED: REMARK    1  A    between atoms: C_2  and  C_10
DOCKED: REMARK    2  A    between atoms: N_3  and  C_4
DOCKED: REMARK    3  A    between atoms: C_10  and  C_11
DOCKED: REMARK    4  A    between atoms: C_11  and  C_12
DOCKED: REMARK    5  A    between atoms: C_12  and  C_13
DOCKED: REMARK    6  A    between atoms: C_13  and  C_14
DOCKED: REMARK    7  A    between atoms: C_14  and  C_15
DOCKED: REMARK    8  A    between atoms: C_15  and  C_16
DOCKED: REMARK                            x       y       z     vdW  Elec       q    Type
DOCKED: REMARK                         _______ _______ _______ _____ _____    ______ ____
DOCKED: USER                              x       y       z     vdW  Elec       q    Type
DOCKED: USER                           _______ _______ _______ _____ _____    ______ ____
DOCKED: ROOT
DOCKED: ATOM      1  C   UNL     1      27.822 -15.845  -0.052 -0.32 -0.00    +0.000 C 
DOCKED: ENDROOT
DOCKED: BRANCH   1   3
DOCKED: ATOM      2  O   UNL     1      26.413 -14.114   0.791 -0.31 -0.00    +0.000 OA
DOCKED: ATOM      3  C   UNL     1      27.433 -14.831   0.982 -0.25 -0.00    +0.000 C 
DOCKED: ATOM      4  N   UNL     1      28.220 -14.684   2.174 -0.21 -0.00    +0.000 N 
DOCKED: ATOM      5  H   UNL     1      28.896 -15.372   2.368 -1.86 -0.00    +0.000 HD
DOCKED: BRANCH   4   6
DOCKED: ATOM      6  C   UNL     1      28.082 -13.594   3.101 -0.31 -0.00    +0.000 A 
DOCKED: ATOM      7  C   UNL     1      27.980 -12.282   2.610 -0.21 -0.00    +0.000 A 
DOCKED: ATOM      8  C   UNL     1      27.820 -11.207   3.489 -0.25 +0.00    +0.000 A 
DOCKED: ATOM      9  C   UNL     1      27.746 -11.433   4.866 -0.34 +0.00    +0.000 A 
DOCKED: ATOM     10  C   UNL     1      27.823 -12.736   5.365 -0.41 -0.00    +0.000 A 
DOCKED: ATOM     11  C   UNL     1      27.984 -13.814   4.488 -0.49 -0.00    +0.000 A 
DOCKED: ENDBRANCH   4   6
DOCKED: ENDBRANCH   1   3
DOCKED: BRANCH   1  12
DOCKED: ATOM     12  C   UNL     1      26.986 -15.657  -1.323 -0.37 -0.00    +0.000 C 
DOCKED: BRANCH  12  13
DOCKED: ATOM     13  C   UNL     1      25.474 -15.615  -1.045 -0.44 -0.00    +0.000 C 
DOCKED: BRANCH  13  14
DOCKED: ATOM     14  C   UNL     1      24.708 -16.824  -1.621 -0.64 -0.00    +0.000 C 
DOCKED: BRANCH  14  15
DOCKED: ATOM     15  C   UNL     1      23.264 -16.902  -1.092 -0.52 -0.00    +0.000 C 
DOCKED: BRANCH  15  16
DOCKED: ATOM     16  C   UNL     1      23.000 -18.196  -0.311 -0.81 -0.00    +0.000 C 
DOCKED: BRANCH  16  17
DOCKED: ATOM     17  C   UNL     1      21.654 -18.777  -0.634 -0.86 -0.00    +0.000 C 
DOCKED: ATOM     18  N   UNL     1      21.464 -19.543  -1.826 -0.50 -0.00    +0.000 N 
DOCKED: ATOM     19  O   UNL     1      20.256 -20.079  -2.111 -2.27 -0.00    +0.000 OA
DOCKED: ATOM     20  O   UNL     1      20.694 -18.611   0.166 -1.28 -0.00    +0.000 OA
DOCKED: ATOM     21  H   UNL     1      22.218 -19.681  -2.444 -0.48 -0.00    +0.000 HD
DOCKED: ENDBRANCH  16  17
DOCKED: ENDBRANCH  15  16
DOCKED: ENDBRANCH  14  15
DOCKED: ENDBRANCH  13  14
DOCKED: ENDBRANCH  12  13
DOCKED: ENDBRANCH   1  12
DOCKED: TORSDOF 8
DOCKED: TER
DOCKED: ENDMDL
________________________________________________________________________________


	BEGINNING GENETIC ALGORITHM DOCKING 35 of 100
Run: 35 Seed: 614802047 1983382124 [ Run 35 of 100 GA/GALS ]
Beginning LAMARCKIAN GENETIC ALGORITHM (LGA), with a maximum of 2500000 energy evaluations.

Final-Value: -12.653


	FINAL GENETIC ALGORITHM DOCKED STATE
	_______________________________________________


Detailed state:  trans 26.431 -15.372 -0.694 quatxyzw 0.263536 0.923156 0.127740 0.249028 center 0.185 0.077 0.153 ntor 8 167.8767 100.4321 178.8600 103.0616 87.1655 129.0450 104.7986 -77.9590
State:	 26.431 -15.372  -0.694   0.272  0.953  0.132 151.160    167.88  100.43  178.86  103.06   87.17  129.04  104.80  -77.96

DOCKED: MODEL       35
DOCKED: USER    Run = 35
DOCKED: USER    DPF = ligand_dock.biased.dpf
DOCKED: USER  
DOCKED: USER    Estimated Free Energy of Binding    =   -9.32 kcal/mol  [=(1)+(2)+(3)-(4)]
DOCKED: USER    Estimated Inhibition Constant, Ki   =  148.29 nM (nanomolar)  [Temperature = 298.15 K]
DOCKED: USER    
DOCKED: USER    (1) Final Intermolecular Energy     =  -11.70 kcal/mol
DOCKED: USER        vdW + Hbond + desolv Energy     =  -11.70 kcal/mol
DOCKED: USER        Electrostatic Energy            =   +0.00 kcal/mol
DOCKED: USER    (2) Final Total Internal Energy     =   -0.95 kcal/mol
DOCKED: USER    (3) Torsional Free Energy           =   +2.39 kcal/mol
DOCKED: USER    (4) Unbound System's Energy  [=(2)] =   -0.95 kcal/mol
DOCKED: USER    
DOCKED: USER    
DOCKED: USER    NEWDPF move ligand.pdbqt
DOCKED: USER    NEWDPF about 0.185000 0.077000 0.153000
DOCKED: USER    NEWDPF tran0 26.431021 -15.371832 -0.693748
DOCKED: USER    NEWDPF quaternion0 0.263536 0.923156 0.127740 0.249028
DOCKED: USER    NEWDPF axisangle0 0.272108 0.953185 0.131895 151.159994
DOCKED: USER    NEWDPF quat0 0.272108 0.953185 0.131895 151.159994
DOCKED: USER    NEWDPF dihe0 167.88 100.43 178.86 103.06 87.17 129.04 104.80 -77.96 
DOCKED: USER  keepresnum = 1 
DOCKED: USER  
DOCKED: REMARK  Name = 
DOCKED: REMARK  8 active torsions:
DOCKED: REMARK  status: ('A' for Active; 'I' for Inactive)
DOCKED: REMARK    1  A    between atoms: C_2  and  C_10
DOCKED: REMARK    2  A    between atoms: N_3  and  C_4
DOCKED: REMARK    3  A    between atoms: C_10  and  C_11
DOCKED: REMARK    4  A    between atoms: C_11  and  C_12
DOCKED: REMARK    5  A    between atoms: C_12  and  C_13
DOCKED: REMARK    6  A    between atoms: C_13  and  C_14
DOCKED: REMARK    7  A    between atoms: C_14  and  C_15
DOCKED: REMARK    8  A    between atoms: C_15  and  C_16
DOCKED: REMARK                            x       y       z     vdW  Elec       q    Type
DOCKED: REMARK                         _______ _______ _______ _____ _____    ______ ____
DOCKED: USER                              x       y       z     vdW  Elec       q    Type
DOCKED: USER                           _______ _______ _______ _____ _____    ______ ____
DOCKED: ROOT
DOCKED: ATOM      1  C   UNL     1      26.954 -15.438  -0.462 -0.36 -0.00    +0.000 C 
DOCKED: ENDROOT
DOCKED: BRANCH   1   3
DOCKED: ATOM      2  O   UNL     1      29.095 -15.186  -1.484 -0.14 -0.00    +0.000 OA
DOCKED: ATOM      3  C   UNL     1      27.875 -15.461  -1.645 -0.27 -0.00    +0.000 C 
DOCKED: ATOM      4  N   UNL     1      27.363 -15.793  -2.945 -0.31 -0.00    +0.000 N 
DOCKED: ATOM      5  H   UNL     1      26.455 -16.170  -3.002 -0.02 -0.00    +0.000 HD
DOCKED: BRANCH   4   6
DOCKED: ATOM      6  C   UNL     1      28.093 -15.609  -4.170 -0.30 -0.00    +0.000 A 
DOCKED: ATOM      7  C   UNL     1      27.660 -14.642  -5.091 -0.37 -0.00    +0.000 A 
DOCKED: ATOM      8  C   UNL     1      28.367 -14.426  -6.277 -0.32 -0.00    +0.000 A 
DOCKED: ATOM      9  C   UNL     1      29.523 -15.163  -6.547 -0.31 -0.00    +0.000 A 
DOCKED: ATOM     10  C   UNL     1      29.977 -16.112  -5.627 -0.28 -0.00    +0.000 A 
DOCKED: ATOM     11  C   UNL     1      29.271 -16.331  -4.439 -0.25 -0.00    +0.000 A 
DOCKED: ENDBRANCH   4   6
DOCKED: ENDBRANCH   1   3
DOCKED: BRANCH   1  12
DOCKED: ATOM     12  C   UNL     1      25.728 -16.321  -0.724 -0.50 -0.00    +0.000 C 
DOCKED: BRANCH  12  13
DOCKED: ATOM     13  C   UNL     1      25.880 -17.741  -0.154 -0.62 -0.00    +0.000 C 
DOCKED: BRANCH  13  14
DOCKED: ATOM     14  C   UNL     1      24.857 -18.746  -0.725 -0.56 -0.00    +0.000 C 
DOCKED: BRANCH  14  15
DOCKED: ATOM     15  C   UNL     1      23.680 -18.043  -1.424 -0.76 -0.00    +0.000 C 
DOCKED: BRANCH  15  16
DOCKED: ATOM     16  C   UNL     1      22.594 -17.602  -0.434 -0.78 -0.00    +0.000 C 
DOCKED: BRANCH  16  17
DOCKED: ATOM     17  C   UNL     1      21.313 -18.357  -0.639 -0.79 -0.00    +0.000 C 
DOCKED: ATOM     18  N   UNL     1      21.231 -19.745  -0.306 -0.71 -0.00    +0.000 N 
DOCKED: ATOM     19  O   UNL     1      20.072 -20.423  -0.477 -1.39 -0.00    +0.000 OA
DOCKED: ATOM     20  O   UNL     1      20.298 -17.755  -1.081 -2.14 -0.00    +0.000 OA
DOCKED: ATOM     21  H   UNL     1      22.022 -20.211   0.049 -0.54 -0.00    +0.000 HD
DOCKED: ENDBRANCH  16  17
DOCKED: ENDBRANCH  15  16
DOCKED: ENDBRANCH  14  15
DOCKED: ENDBRANCH  13  14
DOCKED: ENDBRANCH  12  13
DOCKED: ENDBRANCH   1  12
DOCKED: TORSDOF 8
DOCKED: TER
DOCKED: ENDMDL
________________________________________________________________________________


	BEGINNING GENETIC ALGORITHM DOCKING 36 of 100
Run: 36 Seed: 514566403 1156521478 [ Run 36 of 100 GA/GALS ]
Beginning LAMARCKIAN GENETIC ALGORITHM (LGA), with a maximum of 2500000 energy evaluations.

Final-Value: -13.458


	FINAL GENETIC ALGORITHM DOCKED STATE
	_______________________________________________


Detailed state:  trans 26.432 -15.500 -3.445 quatxyzw 0.397185 0.083206 0.557161 0.724495 center 0.185 0.077 0.153 ntor 8 -158.8698 163.9916 106.7620 31.0465 68.4943 178.6238 55.5161 59.7652
State:	 26.432 -15.500  -3.445   0.576  0.121  0.808 87.146   -158.87  163.99  106.76   31.05   68.49  178.62   55.52   59.77

DOCKED: MODEL       36
DOCKED: USER    Run = 36
DOCKED: USER    DPF = ligand_dock.biased.dpf
DOCKED: USER  
DOCKED: USER    Estimated Free Energy of Binding    =  -10.29 kcal/mol  [=(1)+(2)+(3)-(4)]
DOCKED: USER    Estimated Inhibition Constant, Ki   =   28.53 nM (nanomolar)  [Temperature = 298.15 K]
DOCKED: USER    
DOCKED: USER    (1) Final Intermolecular Energy     =  -12.68 kcal/mol
DOCKED: USER        vdW + Hbond + desolv Energy     =  -12.68 kcal/mol
DOCKED: USER        Electrostatic Energy            =   +0.00 kcal/mol
DOCKED: USER    (2) Final Total Internal Energy     =   -0.78 kcal/mol
DOCKED: USER    (3) Torsional Free Energy           =   +2.39 kcal/mol
DOCKED: USER    (4) Unbound System's Energy  [=(2)] =   -0.78 kcal/mol
DOCKED: USER    
DOCKED: USER    
DOCKED: USER    NEWDPF move ligand.pdbqt
DOCKED: USER    NEWDPF about 0.185000 0.077000 0.153000
DOCKED: USER    NEWDPF tran0 26.431787 -15.500366 -3.444523
DOCKED: USER    NEWDPF quaternion0 0.397185 0.083206 0.557161 0.724495
DOCKED: USER    NEWDPF axisangle0 0.576231 0.120714 0.808323 87.146296
DOCKED: USER    NEWDPF quat0 0.576231 0.120714 0.808323 87.146296
DOCKED: USER    NEWDPF dihe0 -158.87 163.99 106.76 31.05 68.49 178.62 55.52 59.77 
DOCKED: USER  keepresnum = 1 
DOCKED: USER  
DOCKED: REMARK  Name = 
DOCKED: REMARK  8 active torsions:
DOCKED: REMARK  status: ('A' for Active; 'I' for Inactive)
DOCKED: REMARK    1  A    between atoms: C_2  and  C_10
DOCKED: REMARK    2  A    between atoms: N_3  and  C_4
DOCKED: REMARK    3  A    between atoms: C_10  and  C_11
DOCKED: REMARK    4  A    between atoms: C_11  and  C_12
DOCKED: REMARK    5  A    between atoms: C_12  and  C_13
DOCKED: REMARK    6  A    between atoms: C_13  and  C_14
DOCKED: REMARK    7  A    between atoms: C_14  and  C_15
DOCKED: REMARK    8  A    between atoms: C_15  and  C_16
DOCKED: REMARK                            x       y       z     vdW  Elec       q    Type
DOCKED: REMARK                         _______ _______ _______ _____ _____    ______ ____
DOCKED: USER                              x       y       z     vdW  Elec       q    Type
DOCKED: USER                           _______ _______ _______ _____ _____    ______ ____
DOCKED: ROOT
DOCKED: ATOM      1  C   UNL     1      26.413 -15.552  -4.018 -0.51 -0.00    +0.000 C 
DOCKED: ENDROOT
DOCKED: BRANCH   1   3
DOCKED: ATOM      2  O   UNL     1      27.493 -13.713  -5.085 -0.31 -0.00    +0.000 OA
DOCKED: ATOM      3  C   UNL     1      26.454 -14.137  -4.511 -0.44 -0.00    +0.000 C 
DOCKED: ATOM      4  N   UNL     1      25.316 -13.281  -4.327 -0.44 -0.00    +0.000 N 
DOCKED: ATOM      5  H   UNL     1      24.470 -13.693  -4.038 -0.14 -0.00    +0.000 HD
DOCKED: BRANCH   4   6
DOCKED: ATOM      6  C   UNL     1      25.335 -11.859  -4.537 -0.28 -0.00    +0.000 A 
DOCKED: ATOM      7  C   UNL     1      26.366 -11.093  -3.969 -0.18 -0.00    +0.000 A 
DOCKED: ATOM      8  C   UNL     1      26.421  -9.712  -4.179 -0.14 -0.00    +0.000 A 
DOCKED: ATOM      9  C   UNL     1      25.457  -9.085  -4.972 -0.20 -0.00    +0.000 A 
DOCKED: ATOM     10  C   UNL     1      24.440  -9.840  -5.562 -0.37 -0.00    +0.000 A 
DOCKED: ATOM     11  C   UNL     1      24.381 -11.222  -5.353 -0.31 -0.00    +0.000 A 
DOCKED: ENDBRANCH   4   6
DOCKED: ENDBRANCH   1   3
DOCKED: BRANCH   1  12
DOCKED: ATOM     12  C   UNL     1      25.426 -15.681  -2.851 -0.54 -0.00    +0.000 C 
DOCKED: BRANCH  12  13
DOCKED: ATOM     13  C   UNL     1      26.053 -16.329  -1.605 -0.52 -0.00    +0.000 C 
DOCKED: BRANCH  13  14
DOCKED: ATOM     14  C   UNL     1      25.439 -17.699  -1.247 -0.62 -0.00    +0.000 C 
DOCKED: BRANCH  14  15
DOCKED: ATOM     15  C   UNL     1      23.934 -17.760  -1.563 -0.70 -0.00    +0.000 C 
DOCKED: BRANCH  15  16
DOCKED: ATOM     16  C   UNL     1      23.201 -18.802  -0.707 -0.82 -0.00    +0.000 C 
DOCKED: BRANCH  16  17
DOCKED: ATOM     17  C   UNL     1      21.717 -18.758  -0.924 -0.84 -0.00    +0.000 C 
DOCKED: ATOM     18  N   UNL     1      21.075 -19.748  -1.731 -0.63 -0.00    +0.000 N 
DOCKED: ATOM     19  O   UNL     1      19.735 -19.718  -1.916 -2.24 -0.00    +0.000 OA
DOCKED: ATOM     20  O   UNL     1      21.031 -17.859  -0.368 -1.94 +0.00    +0.000 OA
DOCKED: ATOM     21  H   UNL     1      21.611 -20.457  -2.156 -0.52 -0.00    +0.000 HD
DOCKED: ENDBRANCH  16  17
DOCKED: ENDBRANCH  15  16
DOCKED: ENDBRANCH  14  15
DOCKED: ENDBRANCH  13  14
DOCKED: ENDBRANCH  12  13
DOCKED: ENDBRANCH   1  12
DOCKED: TORSDOF 8
DOCKED: TER
DOCKED: ENDMDL
________________________________________________________________________________


	BEGINNING GENETIC ALGORITHM DOCKING 37 of 100
Run: 37 Seed: 656081408 858130897 [ Run 37 of 100 GA/GALS ]
Beginning LAMARCKIAN GENETIC ALGORITHM (LGA), with a maximum of 2500000 energy evaluations.

Final-Value: -12.816


	FINAL GENETIC ALGORITHM DOCKED STATE
	_______________________________________________


Detailed state:  trans 25.406 -15.506 -2.318 quatxyzw -0.217511 -0.847699 -0.176923 -0.450326 center 0.185 0.077 0.153 ntor 8 135.7790 148.6439 104.6178 -144.7292 -14.9546 -174.2636 -109.7488 13.0968
State:	 25.406 -15.506  -2.318  -0.244 -0.949 -0.198 -126.471    135.78  148.64  104.62 -144.73  -14.95 -174.26 -109.75   13.10

DOCKED: MODEL       37
DOCKED: USER    Run = 37
DOCKED: USER    DPF = ligand_dock.biased.dpf
DOCKED: USER  
DOCKED: USER    Estimated Free Energy of Binding    =   -9.69 kcal/mol  [=(1)+(2)+(3)-(4)]
DOCKED: USER    Estimated Inhibition Constant, Ki   =   78.87 nM (nanomolar)  [Temperature = 298.15 K]
DOCKED: USER    
DOCKED: USER    (1) Final Intermolecular Energy     =  -12.08 kcal/mol
DOCKED: USER        vdW + Hbond + desolv Energy     =  -12.08 kcal/mol
DOCKED: USER        Electrostatic Energy            =   +0.00 kcal/mol
DOCKED: USER    (2) Final Total Internal Energy     =   -0.74 kcal/mol
DOCKED: USER    (3) Torsional Free Energy           =   +2.39 kcal/mol
DOCKED: USER    (4) Unbound System's Energy  [=(2)] =   -0.74 kcal/mol
DOCKED: USER    
DOCKED: USER    
DOCKED: USER    NEWDPF move ligand.pdbqt
DOCKED: USER    NEWDPF about 0.185000 0.077000 0.153000
DOCKED: USER    NEWDPF tran0 25.406355 -15.506071 -2.317996
DOCKED: USER    NEWDPF quaternion0 -0.217511 -0.847699 -0.176923 -0.450326
DOCKED: USER    NEWDPF axisangle0 -0.243610 -0.949415 -0.198153 -126.470800
DOCKED: USER    NEWDPF quat0 -0.243610 -0.949415 -0.198153 -126.470800
DOCKED: USER    NEWDPF dihe0 135.78 148.64 104.62 -144.73 -14.95 -174.26 -109.75 13.10 
DOCKED: USER  keepresnum = 1 
DOCKED: USER  
DOCKED: REMARK  Name = 
DOCKED: REMARK  8 active torsions:
DOCKED: REMARK  status: ('A' for Active; 'I' for Inactive)
DOCKED: REMARK    1  A    between atoms: C_2  and  C_10
DOCKED: REMARK    2  A    between atoms: N_3  and  C_4
DOCKED: REMARK    3  A    between atoms: C_10  and  C_11
DOCKED: REMARK    4  A    between atoms: C_11  and  C_12
DOCKED: REMARK    5  A    between atoms: C_12  and  C_13
DOCKED: REMARK    6  A    between atoms: C_13  and  C_14
DOCKED: REMARK    7  A    between atoms: C_14  and  C_15
DOCKED: REMARK    8  A    between atoms: C_15  and  C_16
DOCKED: REMARK                            x       y       z     vdW  Elec       q    Type
DOCKED: REMARK                         _______ _______ _______ _____ _____    ______ ____
DOCKED: USER                              x       y       z     vdW  Elec       q    Type
DOCKED: USER                           _______ _______ _______ _____ _____    ______ ____
DOCKED: ROOT
DOCKED: ATOM      1  C   UNL     1      25.979 -15.561  -2.310 -0.49 -0.00    +0.000 C 
DOCKED: ENDROOT
DOCKED: BRANCH   1   3
DOCKED: ATOM      2  O   UNL     1      25.901 -15.858  -4.676 -0.85 -0.00    +0.000 OA
DOCKED: ATOM      3  C   UNL     1      26.396 -15.218  -3.709 -0.52 -0.00    +0.000 C 
DOCKED: ATOM      4  N   UNL     1      27.351 -14.169  -3.935 -0.26 -0.00    +0.000 N 
DOCKED: ATOM      5  H   UNL     1      27.579 -13.581  -3.179 +0.00 -0.00    +0.000 HD
DOCKED: BRANCH   4   6
DOCKED: ATOM      6  C   UNL     1      27.996 -13.925  -5.196 -0.27 -0.00    +0.000 A 
DOCKED: ATOM      7  C   UNL     1      28.848 -14.903  -5.734 -0.33 -0.00    +0.000 A 
DOCKED: ATOM      8  C   UNL     1      29.467 -14.701  -6.971 -0.29 -0.00    +0.000 A 
DOCKED: ATOM      9  C   UNL     1      29.229 -13.527  -7.689 -0.21 -0.00    +0.000 A 
DOCKED: ATOM     10  C   UNL     1      28.364 -12.557  -7.176 -0.21 -0.00    +0.000 A 
DOCKED: ATOM     11  C   UNL     1      27.744 -12.755  -5.938 -0.20 -0.00    +0.000 A 
DOCKED: ENDBRANCH   4   6
DOCKED: ENDBRANCH   1   3
DOCKED: BRANCH   1  12
DOCKED: ATOM     12  C   UNL     1      24.767 -16.499  -2.330 -0.42 -0.00    +0.000 C 
DOCKED: BRANCH  12  13
DOCKED: ATOM     13  C   UNL     1      24.190 -16.763  -0.930 -0.61 -0.00    +0.000 C 
DOCKED: BRANCH  13  14
DOCKED: ATOM     14  C   UNL     1      24.481 -18.184  -0.401 -0.74 -0.00    +0.000 C 
DOCKED: BRANCH  14  15
DOCKED: ATOM     15  C   UNL     1      23.192 -18.987  -0.153 -0.54 -0.00    +0.000 C 
DOCKED: BRANCH  15  16
DOCKED: ATOM     16  C   UNL     1      22.049 -18.554  -1.081 -0.81 -0.00    +0.000 C 
DOCKED: BRANCH  16  17
DOCKED: ATOM     17  C   UNL     1      20.861 -19.464  -0.963 -0.86 -0.00    +0.000 C 
DOCKED: ATOM     18  N   UNL     1      20.481 -19.997   0.308 -0.71 -0.00    +0.000 N 
DOCKED: ATOM     19  O   UNL     1      19.401 -20.804   0.417 -0.94 -0.00    +0.000 OA
DOCKED: ATOM     20  O   UNL     1      20.178 -19.735  -1.988 -2.36 -0.00    +0.000 OA
DOCKED: ATOM     21  H   UNL     1      21.009 -19.775   1.109 -0.48 -0.00    +0.000 HD
DOCKED: ENDBRANCH  16  17
DOCKED: ENDBRANCH  15  16
DOCKED: ENDBRANCH  14  15
DOCKED: ENDBRANCH  13  14
DOCKED: ENDBRANCH  12  13
DOCKED: ENDBRANCH   1  12
DOCKED: TORSDOF 8
DOCKED: TER
DOCKED: ENDMDL
________________________________________________________________________________


	BEGINNING GENETIC ALGORITHM DOCKING 38 of 100
Run: 38 Seed: 1723206389 1021084300 [ Run 38 of 100 GA/GALS ]
Beginning LAMARCKIAN GENETIC ALGORITHM (LGA), with a maximum of 2500000 energy evaluations.

Final-Value: -12.869


	FINAL GENETIC ALGORITHM DOCKED STATE
	_______________________________________________


Detailed state:  trans 26.431 -14.930 -2.894 quatxyzw -0.053961 -0.704428 -0.221293 -0.672234 center 0.185 0.077 0.153 ntor 8 -104.7169 -6.3888 -146.4388 42.0344 -89.4597 87.2697 -173.4727 54.8569
State:	 26.431 -14.930  -2.894  -0.073 -0.951 -0.299 -95.520   -104.72   -6.39 -146.44   42.03  -89.46   87.27 -173.47   54.86

DOCKED: MODEL       38
DOCKED: USER    Run = 38
DOCKED: USER    DPF = ligand_dock.biased.dpf
DOCKED: USER  
DOCKED: USER    Estimated Free Energy of Binding    =   -9.78 kcal/mol  [=(1)+(2)+(3)-(4)]
DOCKED: USER    Estimated Inhibition Constant, Ki   =   67.35 nM (nanomolar)  [Temperature = 298.15 K]
DOCKED: USER    
DOCKED: USER    (1) Final Intermolecular Energy     =  -12.17 kcal/mol
DOCKED: USER        vdW + Hbond + desolv Energy     =  -12.17 kcal/mol
DOCKED: USER        Electrostatic Energy            =   +0.00 kcal/mol
DOCKED: USER    (2) Final Total Internal Energy     =   -0.70 kcal/mol
DOCKED: USER    (3) Torsional Free Energy           =   +2.39 kcal/mol
DOCKED: USER    (4) Unbound System's Energy  [=(2)] =   -0.70 kcal/mol
DOCKED: USER    
DOCKED: USER    
DOCKED: USER    NEWDPF move ligand.pdbqt
DOCKED: USER    NEWDPF about 0.185000 0.077000 0.153000
DOCKED: USER    NEWDPF tran0 26.431206 -14.930115 -2.893526
DOCKED: USER    NEWDPF quaternion0 -0.053961 -0.704428 -0.221293 -0.672234
DOCKED: USER    NEWDPF axisangle0 -0.072888 -0.951494 -0.298907 -95.520489
DOCKED: USER    NEWDPF quat0 -0.072888 -0.951494 -0.298907 -95.520489
DOCKED: USER    NEWDPF dihe0 -104.72 -6.39 -146.44 42.03 -89.46 87.27 -173.47 54.86 
DOCKED: USER  keepresnum = 1 
DOCKED: USER  
DOCKED: REMARK  Name = 
DOCKED: REMARK  8 active torsions:
DOCKED: REMARK  status: ('A' for Active; 'I' for Inactive)
DOCKED: REMARK    1  A    between atoms: C_2  and  C_10
DOCKED: REMARK    2  A    between atoms: N_3  and  C_4
DOCKED: REMARK    3  A    between atoms: C_10  and  C_11
DOCKED: REMARK    4  A    between atoms: C_11  and  C_12
DOCKED: REMARK    5  A    between atoms: C_12  and  C_13
DOCKED: REMARK    6  A    between atoms: C_13  and  C_14
DOCKED: REMARK    7  A    between atoms: C_14  and  C_15
DOCKED: REMARK    8  A    between atoms: C_15  and  C_16
DOCKED: REMARK                            x       y       z     vdW  Elec       q    Type
DOCKED: REMARK                         _______ _______ _______ _____ _____    ______ ____
DOCKED: USER                              x       y       z     vdW  Elec       q    Type
DOCKED: USER                           _______ _______ _______ _____ _____    ______ ____
DOCKED: ROOT
DOCKED: ATOM      1  C   UNL     1      26.946 -14.799  -3.115 -0.36 -0.00    +0.000 C 
DOCKED: ENDROOT
DOCKED: BRANCH   1   3
DOCKED: ATOM      2  O   UNL     1      26.981 -14.313  -5.451 -0.48 -0.00    +0.000 OA
DOCKED: ATOM      3  C   UNL     1      26.621 -13.940  -4.301 -0.41 -0.00    +0.000 C 
DOCKED: ATOM      4  N   UNL     1      25.906 -12.708  -4.119 -0.35 -0.00    +0.000 N 
DOCKED: ATOM      5  H   UNL     1      25.492 -12.540  -3.243 +0.02 -0.00    +0.000 HD
DOCKED: BRANCH   4   6
DOCKED: ATOM      6  C   UNL     1      25.759 -11.704  -5.138 -0.26 -0.00    +0.000 A 
DOCKED: ATOM      7  C   UNL     1      24.536 -11.024  -5.263 -0.37 -0.00    +0.000 A 
DOCKED: ATOM      8  C   UNL     1      24.376 -10.027  -6.229 -0.39 -0.00    +0.000 A 
DOCKED: ATOM      9  C   UNL     1      25.440  -9.688  -7.069 -0.21 -0.00    +0.000 A 
DOCKED: ATOM     10  C   UNL     1      26.668 -10.342  -6.938 -0.15 -0.00    +0.000 A 
DOCKED: ATOM     11  C   UNL     1      26.832 -11.341  -5.973 -0.18 -0.00    +0.000 A 
DOCKED: ENDBRANCH   4   6
DOCKED: ENDBRANCH   1   3
DOCKED: BRANCH   1  12
DOCKED: ATOM     12  C   UNL     1      26.026 -16.025  -3.077 -0.48 -0.00    +0.000 C 
DOCKED: BRANCH  12  13
DOCKED: ATOM     13  C   UNL     1      25.397 -16.259  -1.693 -0.57 -0.00    +0.000 C 
DOCKED: BRANCH  13  14
DOCKED: ATOM     14  C   UNL     1      24.055 -17.019  -1.747 -0.51 -0.00    +0.000 C 
DOCKED: BRANCH  14  15
DOCKED: ATOM     15  C   UNL     1      23.610 -17.509  -0.357 -0.70 -0.00    +0.000 C 
DOCKED: BRANCH  15  16
DOCKED: ATOM     16  C   UNL     1      22.902 -18.869  -0.418 -0.79 -0.00    +0.000 C 
DOCKED: BRANCH  16  17
DOCKED: ATOM     17  C   UNL     1      21.477 -18.736  -0.870 -0.84 -0.00    +0.000 C 
DOCKED: ATOM     18  N   UNL     1      20.796 -19.850  -1.452 -0.69 -0.00    +0.000 N 
DOCKED: ATOM     19  O   UNL     1      19.506 -19.735  -1.845 -2.13 -0.00    +0.000 OA
DOCKED: ATOM     20  O   UNL     1      20.870 -17.643  -0.707 -2.14 -0.00    +0.000 OA
DOCKED: ATOM     21  H   UNL     1      21.267 -20.706  -1.568 -0.18 -0.00    +0.000 HD
DOCKED: ENDBRANCH  16  17
DOCKED: ENDBRANCH  15  16
DOCKED: ENDBRANCH  14  15
DOCKED: ENDBRANCH  13  14
DOCKED: ENDBRANCH  12  13
DOCKED: ENDBRANCH   1  12
DOCKED: TORSDOF 8
DOCKED: TER
DOCKED: ENDMDL
________________________________________________________________________________


	BEGINNING GENETIC ALGORITHM DOCKING 39 of 100
Run: 39 Seed: 333431963 1851957813 [ Run 39 of 100 GA/GALS ]
Beginning LAMARCKIAN GENETIC ALGORITHM (LGA), with a maximum of 2500000 energy evaluations.

Final-Value: -12.018


	FINAL GENETIC ALGORITHM DOCKED STATE
	_______________________________________________


Detailed state:  trans 26.950 -14.865 -2.071 quatxyzw -0.464994 -0.856643 0.144387 -0.170576 center 0.185 0.077 0.153 ntor 8 2.2560 6.5679 100.3573 -89.2710 -4.2945 -176.3083 -155.1696 -87.4506
State:	 26.950 -14.865  -2.071  -0.472 -0.869  0.147 -160.357      2.26    6.57  100.36  -89.27   -4.29 -176.31 -155.17  -87.45

DOCKED: MODEL       39
DOCKED: USER    Run = 39
DOCKED: USER    DPF = ligand_dock.biased.dpf
DOCKED: USER  
DOCKED: USER    Estimated Free Energy of Binding    =   -8.84 kcal/mol  [=(1)+(2)+(3)-(4)]
DOCKED: USER    Estimated Inhibition Constant, Ki   =  331.83 nM (nanomolar)  [Temperature = 298.15 K]
DOCKED: USER    
DOCKED: USER    (1) Final Intermolecular Energy     =  -11.23 kcal/mol
DOCKED: USER        vdW + Hbond + desolv Energy     =  -11.23 kcal/mol
DOCKED: USER        Electrostatic Energy            =   +0.00 kcal/mol
DOCKED: USER    (2) Final Total Internal Energy     =   -0.79 kcal/mol
DOCKED: USER    (3) Torsional Free Energy           =   +2.39 kcal/mol
DOCKED: USER    (4) Unbound System's Energy  [=(2)] =   -0.79 kcal/mol
DOCKED: USER    
DOCKED: USER    
DOCKED: USER    NEWDPF move ligand.pdbqt
DOCKED: USER    NEWDPF about 0.185000 0.077000 0.153000
DOCKED: USER    NEWDPF tran0 26.949596 -14.864891 -2.071259
DOCKED: USER    NEWDPF quaternion0 -0.464994 -0.856643 0.144387 -0.170576
DOCKED: USER    NEWDPF axisangle0 -0.471910 -0.869384 0.146535 -160.357346
DOCKED: USER    NEWDPF quat0 -0.471910 -0.869384 0.146535 -160.357346
DOCKED: USER    NEWDPF dihe0 2.26 6.57 100.36 -89.27 -4.29 -176.31 -155.17 -87.45 
DOCKED: USER  keepresnum = 1 
DOCKED: USER  
DOCKED: REMARK  Name = 
DOCKED: REMARK  8 active torsions:
DOCKED: REMARK  status: ('A' for Active; 'I' for Inactive)
DOCKED: REMARK    1  A    between atoms: C_2  and  C_10
DOCKED: REMARK    2  A    between atoms: N_3  and  C_4
DOCKED: REMARK    3  A    between atoms: C_10  and  C_11
DOCKED: REMARK    4  A    between atoms: C_11  and  C_12
DOCKED: REMARK    5  A    between atoms: C_12  and  C_13
DOCKED: REMARK    6  A    between atoms: C_13  and  C_14
DOCKED: REMARK    7  A    between atoms: C_14  and  C_15
DOCKED: REMARK    8  A    between atoms: C_15  and  C_16
DOCKED: REMARK                            x       y       z     vdW  Elec       q    Type
DOCKED: REMARK                         _______ _______ _______ _____ _____    ______ ____
DOCKED: USER                              x       y       z     vdW  Elec       q    Type
DOCKED: USER                           _______ _______ _______ _____ _____    ______ ____
DOCKED: ROOT
DOCKED: ATOM      1  C   UNL     1      27.471 -14.938  -1.839 -0.26 -0.00    +0.000 C 
DOCKED: ENDROOT
DOCKED: BRANCH   1   3
DOCKED: ATOM      2  O   UNL     1      28.224 -17.125  -2.424 -0.32 -0.00    +0.000 OA
DOCKED: ATOM      3  C   UNL     1      28.144 -15.912  -2.759 -0.28 -0.00    +0.000 C 
DOCKED: ATOM      4  N   UNL     1      28.688 -15.459  -4.009 -0.24 -0.00    +0.000 N 
DOCKED: ATOM      5  H   UNL     1      28.454 -14.553  -4.313 +0.00 -0.00    +0.000 HD
DOCKED: BRANCH   4   6
DOCKED: ATOM      6  C   UNL     1      29.556 -16.246  -4.842 -0.27 -0.00    +0.000 A 
DOCKED: ATOM      7  C   UNL     1      29.602 -15.992  -6.222 -0.31 -0.00    +0.000 A 
DOCKED: ATOM      8  C   UNL     1      30.456 -16.726  -7.050 -0.28 -0.00    +0.000 A 
DOCKED: ATOM      9  C   UNL     1      31.284 -17.711  -6.505 -0.24 -0.00    +0.000 A 
DOCKED: ATOM     10  C   UNL     1      31.264 -17.957  -5.129 -0.20 -0.00    +0.000 A 
DOCKED: ATOM     11  C   UNL     1      30.410 -17.225  -4.298 -0.22 -0.00    +0.000 A 
DOCKED: ENDBRANCH   4   6
DOCKED: ENDBRANCH   1   3
DOCKED: BRANCH   1  12
DOCKED: ATOM     12  C   UNL     1      26.039 -15.394  -1.536 -0.44 -0.00    +0.000 C 
DOCKED: BRANCH  12  13
DOCKED: ATOM     13  C   UNL     1      25.961 -16.382  -0.359 -0.39 -0.00    +0.000 C 
DOCKED: BRANCH  13  14
DOCKED: ATOM     14  C   UNL     1      25.605 -17.821  -0.787 -0.66 -0.00    +0.000 C 
DOCKED: BRANCH  14  15
DOCKED: ATOM     15  C   UNL     1      24.169 -18.206  -0.389 -0.77 -0.00    +0.000 C 
DOCKED: BRANCH  15  16
DOCKED: ATOM     16  C   UNL     1      23.134 -17.740  -1.422 -0.60 -0.00    +0.000 C 
DOCKED: BRANCH  16  17
DOCKED: ATOM     17  C   UNL     1      21.789 -18.362  -1.183 -0.58 -0.00    +0.000 C 
DOCKED: ATOM     18  N   UNL     1      21.400 -19.540  -1.894 -0.43 -0.00    +0.000 N 
DOCKED: ATOM     19  O   UNL     1      20.194 -20.109  -1.668 -2.22 -0.00    +0.000 OA
DOCKED: ATOM     20  O   UNL     1      21.011 -17.857  -0.330 -1.92 +0.00    +0.000 OA
DOCKED: ATOM     21  H   UNL     1      22.013 -19.939  -2.553 -0.58 -0.00    +0.000 HD
DOCKED: ENDBRANCH  16  17
DOCKED: ENDBRANCH  15  16
DOCKED: ENDBRANCH  14  15
DOCKED: ENDBRANCH  13  14
DOCKED: ENDBRANCH  12  13
DOCKED: ENDBRANCH   1  12
DOCKED: TORSDOF 8
DOCKED: TER
DOCKED: ENDMDL
________________________________________________________________________________


	BEGINNING GENETIC ALGORITHM DOCKING 40 of 100
Run: 40 Seed: 1506586360 1184795553 [ Run 40 of 100 GA/GALS ]
Beginning LAMARCKIAN GENETIC ALGORITHM (LGA), with a maximum of 2500000 energy evaluations.

Final-Value: -13.081


	FINAL GENETIC ALGORITHM DOCKED STATE
	_______________________________________________


Detailed state:  trans 25.239 -15.492 -2.843 quatxyzw -0.275042 0.716432 -0.621748 -0.156545 center 0.185 0.077 0.153 ntor 8 34.8735 172.5146 100.8249 176.3639 -175.1306 128.5464 -179.8706 107.4398
State:	 25.239 -15.492  -2.843  -0.278  0.725 -0.630 -161.987     34.87  172.51  100.82  176.36 -175.13  128.55 -179.87  107.44

DOCKED: MODEL       40
DOCKED: USER    Run = 40
DOCKED: USER    DPF = ligand_dock.biased.dpf
DOCKED: USER  
DOCKED: USER    Estimated Free Energy of Binding    =   -9.89 kcal/mol  [=(1)+(2)+(3)-(4)]
DOCKED: USER    Estimated Inhibition Constant, Ki   =   56.69 nM (nanomolar)  [Temperature = 298.15 K]
DOCKED: USER    
DOCKED: USER    (1) Final Intermolecular Energy     =  -12.27 kcal/mol
DOCKED: USER        vdW + Hbond + desolv Energy     =  -12.27 kcal/mol
DOCKED: USER        Electrostatic Energy            =   +0.00 kcal/mol
DOCKED: USER    (2) Final Total Internal Energy     =   -0.81 kcal/mol
DOCKED: USER    (3) Torsional Free Energy           =   +2.39 kcal/mol
DOCKED: USER    (4) Unbound System's Energy  [=(2)] =   -0.81 kcal/mol
DOCKED: USER    
DOCKED: USER    
DOCKED: USER    NEWDPF move ligand.pdbqt
DOCKED: USER    NEWDPF about 0.185000 0.077000 0.153000
DOCKED: USER    NEWDPF tran0 25.239236 -15.491972 -2.843291
DOCKED: USER    NEWDPF quaternion0 -0.275042 0.716432 -0.621748 -0.156545
DOCKED: USER    NEWDPF axisangle0 -0.278475 0.725375 -0.629510 -161.987162
DOCKED: USER    NEWDPF quat0 -0.278475 0.725375 -0.629510 -161.987162
DOCKED: USER    NEWDPF dihe0 34.87 172.51 100.82 176.36 -175.13 128.55 -179.87 107.44 
DOCKED: USER  keepresnum = 1 
DOCKED: USER  
DOCKED: REMARK  Name = 
DOCKED: REMARK  8 active torsions:
DOCKED: REMARK  status: ('A' for Active; 'I' for Inactive)
DOCKED: REMARK    1  A    between atoms: C_2  and  C_10
DOCKED: REMARK    2  A    between atoms: N_3  and  C_4
DOCKED: REMARK    3  A    between atoms: C_10  and  C_11
DOCKED: REMARK    4  A    between atoms: C_11  and  C_12
DOCKED: REMARK    5  A    between atoms: C_12  and  C_13
DOCKED: REMARK    6  A    between atoms: C_13  and  C_14
DOCKED: REMARK    7  A    between atoms: C_14  and  C_15
DOCKED: REMARK    8  A    between atoms: C_15  and  C_16
DOCKED: REMARK                            x       y       z     vdW  Elec       q    Type
DOCKED: REMARK                         _______ _______ _______ _____ _____    ______ ____
DOCKED: USER                              x       y       z     vdW  Elec       q    Type
DOCKED: USER                           _______ _______ _______ _____ _____    ______ ____
DOCKED: ROOT
DOCKED: ATOM      1  C   UNL     1      25.180 -14.959  -3.053 -0.47 -0.00    +0.000 C 
DOCKED: ENDROOT
DOCKED: BRANCH   1   3
DOCKED: ATOM      2  O   UNL     1      27.134 -13.620  -3.338 -0.24 -0.00    +0.000 OA
DOCKED: ATOM      3  C   UNL     1      26.512 -14.665  -3.675 -0.45 -0.00    +0.000 C 
DOCKED: ATOM      4  N   UNL     1      27.067 -15.569  -4.643 -0.46 -0.00    +0.000 N 
DOCKED: ATOM      5  H   UNL     1      26.642 -16.450  -4.748 +0.05 +0.00    +0.000 HD
DOCKED: BRANCH   4   6
DOCKED: ATOM      6  C   UNL     1      28.203 -15.265  -5.471 -0.37 -0.00    +0.000 A 
DOCKED: ATOM      7  C   UNL     1      28.333 -13.977  -6.016 -0.29 -0.00    +0.000 A 
DOCKED: ATOM      8  C   UNL     1      29.441 -13.650  -6.802 -0.24 -0.00    +0.000 A 
DOCKED: ATOM      9  C   UNL     1      30.437 -14.601  -7.040 -0.23 -0.00    +0.000 A 
DOCKED: ATOM     10  C   UNL     1      30.330 -15.878  -6.483 -0.28 -0.00    +0.000 A 
DOCKED: ATOM     11  C   UNL     1      29.222 -16.209  -5.696 -0.26 -0.00    +0.000 A 
DOCKED: ENDBRANCH   4   6
DOCKED: ENDBRANCH   1   3
DOCKED: BRANCH   1  12
DOCKED: ATOM     12  C   UNL     1      25.366 -15.602  -1.674 -0.45 -0.00    +0.000 C 
DOCKED: BRANCH  12  13
DOCKED: ATOM     13  C   UNL     1      25.708 -17.100  -1.753 -0.58 -0.00    +0.000 C 
DOCKED: BRANCH  13  14
DOCKED: ATOM     14  C   UNL     1      25.533 -17.843  -0.411 -0.68 -0.00    +0.000 C 
DOCKED: BRANCH  14  15
DOCKED: ATOM     15  C   UNL     1      24.067 -18.235  -0.153 -0.74 -0.00    +0.000 C 
DOCKED: BRANCH  15  16
DOCKED: ATOM     16  C   UNL     1      23.105 -17.586  -1.157 -0.68 -0.00    +0.000 C 
DOCKED: BRANCH  16  17
DOCKED: ATOM     17  C   UNL     1      21.730 -18.184  -1.078 -0.70 -0.00    +0.000 C 
DOCKED: ATOM     18  N   UNL     1      21.523 -19.564  -1.391 -0.65 -0.00    +0.000 N 
DOCKED: ATOM     19  O   UNL     1      20.287 -20.107  -1.306 -2.07 -0.00    +0.000 OA
DOCKED: ATOM     20  O   UNL     1      20.760 -17.471  -0.707 -2.06 +0.00    +0.000 OA
DOCKED: ATOM     21  H   UNL     1      22.284 -20.122  -1.670 -0.42 -0.00    +0.000 HD
DOCKED: ENDBRANCH  16  17
DOCKED: ENDBRANCH  15  16
DOCKED: ENDBRANCH  14  15
DOCKED: ENDBRANCH  13  14
DOCKED: ENDBRANCH  12  13
DOCKED: ENDBRANCH   1  12
DOCKED: TORSDOF 8
DOCKED: TER
DOCKED: ENDMDL
________________________________________________________________________________


	BEGINNING GENETIC ALGORITHM DOCKING 41 of 100
Run: 41 Seed: 1523181698 98110109 [ Run 41 of 100 GA/GALS ]
Beginning LAMARCKIAN GENETIC ALGORITHM (LGA), with a maximum of 2500000 energy evaluations.

Final-Value: -11.876


	FINAL GENETIC ALGORITHM DOCKED STATE
	_______________________________________________


Detailed state:  trans 26.655 -15.154 -0.755 quatxyzw 0.307184 -0.636540 -0.537095 -0.460417 center 0.185 0.077 0.153 ntor 8 -102.5559 148.1784 -166.6882 77.6580 -24.6759 41.7928 -147.9362 35.3000
State:	 26.655 -15.154  -0.755   0.346 -0.717 -0.605 -125.172   -102.56  148.18 -166.69   77.66  -24.68   41.79 -147.94   35.30

DOCKED: MODEL       41
DOCKED: USER    Run = 41
DOCKED: USER    DPF = ligand_dock.biased.dpf
DOCKED: USER  
DOCKED: USER    Estimated Free Energy of Binding    =   -8.76 kcal/mol  [=(1)+(2)+(3)-(4)]
DOCKED: USER    Estimated Inhibition Constant, Ki   =  379.90 nM (nanomolar)  [Temperature = 298.15 K]
DOCKED: USER    
DOCKED: USER    (1) Final Intermolecular Energy     =  -11.15 kcal/mol
DOCKED: USER        vdW + Hbond + desolv Energy     =  -11.15 kcal/mol
DOCKED: USER        Electrostatic Energy            =   +0.00 kcal/mol
DOCKED: USER    (2) Final Total Internal Energy     =   -0.73 kcal/mol
DOCKED: USER    (3) Torsional Free Energy           =   +2.39 kcal/mol
DOCKED: USER    (4) Unbound System's Energy  [=(2)] =   -0.73 kcal/mol
DOCKED: USER    
DOCKED: USER    
DOCKED: USER    NEWDPF move ligand.pdbqt
DOCKED: USER    NEWDPF about 0.185000 0.077000 0.153000
DOCKED: USER    NEWDPF tran0 26.655429 -15.154142 -0.755404
DOCKED: USER    NEWDPF quaternion0 0.307184 -0.636540 -0.537095 -0.460417
DOCKED: USER    NEWDPF axisangle0 0.346044 -0.717065 -0.605039 -125.172004
DOCKED: USER    NEWDPF quat0 0.346044 -0.717065 -0.605039 -125.172004
DOCKED: USER    NEWDPF dihe0 -102.56 148.18 -166.69 77.66 -24.68 41.79 -147.94 35.30 
DOCKED: USER  keepresnum = 1 
DOCKED: USER  
DOCKED: REMARK  Name = 
DOCKED: REMARK  8 active torsions:
DOCKED: REMARK  status: ('A' for Active; 'I' for Inactive)
DOCKED: REMARK    1  A    between atoms: C_2  and  C_10
DOCKED: REMARK    2  A    between atoms: N_3  and  C_4
DOCKED: REMARK    3  A    between atoms: C_10  and  C_11
DOCKED: REMARK    4  A    between atoms: C_11  and  C_12
DOCKED: REMARK    5  A    between atoms: C_12  and  C_13
DOCKED: REMARK    6  A    between atoms: C_13  and  C_14
DOCKED: REMARK    7  A    between atoms: C_14  and  C_15
DOCKED: REMARK    8  A    between atoms: C_15  and  C_16
DOCKED: REMARK                            x       y       z     vdW  Elec       q    Type
DOCKED: REMARK                         _______ _______ _______ _____ _____    ______ ____
DOCKED: USER                              x       y       z     vdW  Elec       q    Type
DOCKED: USER                           _______ _______ _______ _____ _____    ______ ____
DOCKED: ROOT
DOCKED: ATOM      1  C   UNL     1      27.184 -15.007  -0.582 -0.31 -0.00    +0.000 C 
DOCKED: ENDROOT
DOCKED: BRANCH   1   3
DOCKED: ATOM      2  O   UNL     1      27.558 -12.871  -1.576 -0.16 -0.00    +0.000 OA
DOCKED: ATOM      3  C   UNL     1      27.155 -13.508  -0.566 -0.23 -0.00    +0.000 C 
DOCKED: ATOM      4  N   UNL     1      26.670 -12.813   0.594 -0.28 -0.00    +0.000 N 
DOCKED: ATOM      5  H   UNL     1      26.204 -13.337   1.285 -0.02 -0.00    +0.000 HD
DOCKED: BRANCH   4   6
DOCKED: ATOM      6  C   UNL     1      26.824 -11.400   0.810 -0.23 +0.00    +0.000 A 
DOCKED: ATOM      7  C   UNL     1      28.113 -10.863   0.958 -0.10 +0.00    +0.000 A 
DOCKED: ATOM      8  C   UNL     1      28.291  -9.489   1.143 -0.09 +0.00    +0.000 A 
DOCKED: ATOM      9  C   UNL     1      27.185  -8.636   1.167 -0.16 +0.00    +0.000 A 
DOCKED: ATOM     10  C   UNL     1      25.899  -9.156   0.997 -0.13 +0.00    +0.000 A 
DOCKED: ATOM     11  C   UNL     1      25.717 -10.531   0.812 -0.34 +0.00    +0.000 A 
DOCKED: ENDBRANCH   4   6
DOCKED: ENDBRANCH   1   3
DOCKED: BRANCH   1  12
DOCKED: ATOM     12  C   UNL     1      26.538 -15.538  -1.866 -0.41 -0.00    +0.000 C 
DOCKED: BRANCH  12  13
DOCKED: ATOM     13  C   UNL     1      25.900 -16.926  -1.686 -0.56 -0.00    +0.000 C 
DOCKED: BRANCH  13  14
DOCKED: ATOM     14  C   UNL     1      24.357 -16.901  -1.702 -0.61 -0.00    +0.000 C 
DOCKED: BRANCH  14  15
DOCKED: ATOM     15  C   UNL     1      23.753 -17.610  -0.476 -0.73 -0.00    +0.000 C 
DOCKED: BRANCH  15  16
DOCKED: ATOM     16  C   UNL     1      23.093 -18.947  -0.843 -0.81 -0.00    +0.000 C 
DOCKED: BRANCH  16  17
DOCKED: ATOM     17  C   UNL     1      21.604 -18.815  -0.978 -0.84 -0.00    +0.000 C 
DOCKED: ATOM     18  N   UNL     1      20.857 -19.783  -1.719 -0.68 -0.00    +0.000 N 
DOCKED: ATOM     19  O   UNL     1      19.513 -19.673  -1.829 -2.06 -0.00    +0.000 OA
DOCKED: ATOM     20  O   UNL     1      21.008 -17.861  -0.410 -1.99 +0.00    +0.000 OA
DOCKED: ATOM     21  H   UNL     1      21.323 -20.533  -2.153 -0.42 -0.00    +0.000 HD
DOCKED: ENDBRANCH  16  17
DOCKED: ENDBRANCH  15  16
DOCKED: ENDBRANCH  14  15
DOCKED: ENDBRANCH  13  14
DOCKED: ENDBRANCH  12  13
DOCKED: ENDBRANCH   1  12
DOCKED: TORSDOF 8
DOCKED: TER
DOCKED: ENDMDL
________________________________________________________________________________


	BEGINNING GENETIC ALGORITHM DOCKING 42 of 100
Run: 42 Seed: 302414349 434022259 [ Run 42 of 100 GA/GALS ]
Beginning LAMARCKIAN GENETIC ALGORITHM (LGA), with a maximum of 2500000 energy evaluations.

Final-Value: -13.479


	FINAL GENETIC ALGORITHM DOCKED STATE
	_______________________________________________


Detailed state:  trans 27.528 -14.918 -2.558 quatxyzw 0.534399 0.217140 0.230744 0.783598 center 0.185 0.077 0.153 ntor 8 -171.2306 -69.1197 47.3777 -59.8745 -98.9415 -169.3119 -179.8100 -72.1658
State:	 27.528 -14.918  -2.558   0.860  0.350  0.371 76.818   -171.23  -69.12   47.38  -59.87  -98.94 -169.31 -179.81  -72.17

DOCKED: MODEL       42
DOCKED: USER    Run = 42
DOCKED: USER    DPF = ligand_dock.biased.dpf
DOCKED: USER  
DOCKED: USER    Estimated Free Energy of Binding    =  -10.26 kcal/mol  [=(1)+(2)+(3)-(4)]
DOCKED: USER    Estimated Inhibition Constant, Ki   =   30.15 nM (nanomolar)  [Temperature = 298.15 K]
DOCKED: USER    
DOCKED: USER    (1) Final Intermolecular Energy     =  -12.65 kcal/mol
DOCKED: USER        vdW + Hbond + desolv Energy     =  -12.65 kcal/mol
DOCKED: USER        Electrostatic Energy            =   +0.00 kcal/mol
DOCKED: USER    (2) Final Total Internal Energy     =   -0.83 kcal/mol
DOCKED: USER    (3) Torsional Free Energy           =   +2.39 kcal/mol
DOCKED: USER    (4) Unbound System's Energy  [=(2)] =   -0.83 kcal/mol
DOCKED: USER    
DOCKED: USER    
DOCKED: USER    NEWDPF move ligand.pdbqt
DOCKED: USER    NEWDPF about 0.185000 0.077000 0.153000
DOCKED: USER    NEWDPF tran0 27.528419 -14.918458 -2.558197
DOCKED: USER    NEWDPF quaternion0 0.534399 0.217140 0.230744 0.783598
DOCKED: USER    NEWDPF axisangle0 0.860174 0.349510 0.371408 76.817625
DOCKED: USER    NEWDPF quat0 0.860174 0.349510 0.371408 76.817625
DOCKED: USER    NEWDPF dihe0 -171.23 -69.12 47.38 -59.87 -98.94 -169.31 -179.81 -72.17 
DOCKED: USER  keepresnum = 1 
DOCKED: USER  
DOCKED: REMARK  Name = 
DOCKED: REMARK  8 active torsions:
DOCKED: REMARK  status: ('A' for Active; 'I' for Inactive)
DOCKED: REMARK    1  A    between atoms: C_2  and  C_10
DOCKED: REMARK    2  A    between atoms: N_3  and  C_4
DOCKED: REMARK    3  A    between atoms: C_10  and  C_11
DOCKED: REMARK    4  A    between atoms: C_11  and  C_12
DOCKED: REMARK    5  A    between atoms: C_12  and  C_13
DOCKED: REMARK    6  A    between atoms: C_13  and  C_14
DOCKED: REMARK    7  A    between atoms: C_14  and  C_15
DOCKED: REMARK    8  A    between atoms: C_15  and  C_16
DOCKED: REMARK                            x       y       z     vdW  Elec       q    Type
DOCKED: REMARK                         _______ _______ _______ _____ _____    ______ ____
DOCKED: USER                              x       y       z     vdW  Elec       q    Type
DOCKED: USER                           _______ _______ _______ _____ _____    ______ ____
DOCKED: ROOT
DOCKED: ATOM      1  C   UNL     1      27.488 -15.196  -3.061 -0.31 -0.00    +0.000 C 
DOCKED: ENDROOT
DOCKED: BRANCH   1   3
DOCKED: ATOM      2  O   UNL     1      25.569 -14.816  -4.425 -0.82 -0.00    +0.000 OA
DOCKED: ATOM      3  C   UNL     1      26.597 -14.320  -3.889 -0.42 -0.00    +0.000 C 
DOCKED: ATOM      4  N   UNL     1      26.919 -12.932  -4.064 -0.24 -0.00    +0.000 N 
DOCKED: ATOM      5  H   UNL     1      27.622 -12.545  -3.494 +0.00 -0.00    +0.000 HD
DOCKED: BRANCH   4   6
DOCKED: ATOM      6  C   UNL     1      26.280 -12.071  -5.023 -0.24 -0.00    +0.000 A 
DOCKED: ATOM      7  C   UNL     1      25.007 -11.550  -4.739 -0.32 -0.00    +0.000 A 
DOCKED: ATOM      8  C   UNL     1      24.376 -10.691  -5.643 -0.40 -0.00    +0.000 A 
DOCKED: ATOM      9  C   UNL     1      25.016 -10.333  -6.832 -0.32 -0.00    +0.000 A 
DOCKED: ATOM     10  C   UNL     1      26.292 -10.826  -7.115 -0.18 -0.00    +0.000 A 
DOCKED: ATOM     11  C   UNL     1      26.927 -11.687  -6.213 -0.14 -0.00    +0.000 A 
DOCKED: ENDBRANCH   4   6
DOCKED: ENDBRANCH   1   3
DOCKED: BRANCH   1  12
DOCKED: ATOM     12  C   UNL     1      26.915 -15.355  -1.648 -0.35 -0.00    +0.000 C 
DOCKED: BRANCH  12  13
DOCKED: ATOM     13  C   UNL     1      26.192 -16.696  -1.441 -0.53 -0.00    +0.000 C 
DOCKED: BRANCH  13  14
DOCKED: ATOM     14  C   UNL     1      24.653 -16.579  -1.484 -0.60 -0.00    +0.000 C 
DOCKED: BRANCH  14  15
DOCKED: ATOM     15  C   UNL     1      23.979 -17.921  -1.821 -0.64 -0.00    +0.000 C 
DOCKED: BRANCH  15  16
DOCKED: ATOM     16  C   UNL     1      23.152 -18.467  -0.649 -0.83 -0.00    +0.000 C 
DOCKED: BRANCH  16  17
DOCKED: ATOM     17  C   UNL     1      21.688 -18.516  -0.974 -0.80 -0.00    +0.000 C 
DOCKED: ATOM     18  N   UNL     1      21.114 -19.690  -1.555 -0.69 -0.00    +0.000 N 
DOCKED: ATOM     19  O   UNL     1      19.792 -19.740  -1.834 -2.33 -0.00    +0.000 OA
DOCKED: ATOM     20  O   UNL     1      20.956 -17.525  -0.707 -2.09 -0.00    +0.000 OA
DOCKED: ATOM     21  H   UNL     1      21.685 -20.467  -1.752 -0.39 -0.00    +0.000 HD
DOCKED: ENDBRANCH  16  17
DOCKED: ENDBRANCH  15  16
DOCKED: ENDBRANCH  14  15
DOCKED: ENDBRANCH  13  14
DOCKED: ENDBRANCH  12  13
DOCKED: ENDBRANCH   1  12
DOCKED: TORSDOF 8
DOCKED: TER
DOCKED: ENDMDL
________________________________________________________________________________


	BEGINNING GENETIC ALGORITHM DOCKING 43 of 100
Run: 43 Seed: 1686959383 2062617371 [ Run 43 of 100 GA/GALS ]
Beginning LAMARCKIAN GENETIC ALGORITHM (LGA), with a maximum of 2500000 energy evaluations.

Final-Value: -13.341


	FINAL GENETIC ALGORITHM DOCKED STATE
	_______________________________________________


Detailed state:  trans 26.847 -15.243 0.026 quatxyzw 0.418325 -0.042948 -0.706297 -0.569477 center 0.185 0.077 0.153 ntor 8 -101.6562 -180.0000 -135.6698 -30.8888 91.3617 27.0139 -120.0597 6.3680
State:	 26.847 -15.243   0.026   0.509 -0.052 -0.859 -110.572   -101.66 -180.00 -135.67  -30.89   91.36   27.01 -120.06    6.37

DOCKED: MODEL       43
DOCKED: USER    Run = 43
DOCKED: USER    DPF = ligand_dock.biased.dpf
DOCKED: USER  
DOCKED: USER    Estimated Free Energy of Binding    =  -10.04 kcal/mol  [=(1)+(2)+(3)-(4)]
DOCKED: USER    Estimated Inhibition Constant, Ki   =   43.57 nM (nanomolar)  [Temperature = 298.15 K]
DOCKED: USER    
DOCKED: USER    (1) Final Intermolecular Energy     =  -12.43 kcal/mol
DOCKED: USER        vdW + Hbond + desolv Energy     =  -12.43 kcal/mol
DOCKED: USER        Electrostatic Energy            =   +0.00 kcal/mol
DOCKED: USER    (2) Final Total Internal Energy     =   -0.91 kcal/mol
DOCKED: USER    (3) Torsional Free Energy           =   +2.39 kcal/mol
DOCKED: USER    (4) Unbound System's Energy  [=(2)] =   -0.91 kcal/mol
DOCKED: USER    
DOCKED: USER    
DOCKED: USER    NEWDPF move ligand.pdbqt
DOCKED: USER    NEWDPF about 0.185000 0.077000 0.153000
DOCKED: USER    NEWDPF tran0 26.847464 -15.242679 0.025727
DOCKED: USER    NEWDPF quaternion0 0.418325 -0.042948 -0.706297 -0.569477
DOCKED: USER    NEWDPF axisangle0 0.508907 -0.052248 -0.859234 -110.572446
DOCKED: USER    NEWDPF quat0 0.508907 -0.052248 -0.859234 -110.572446
DOCKED: USER    NEWDPF dihe0 -101.66 -180.00 -135.67 -30.89 91.36 27.01 -120.06 6.37 
DOCKED: USER  keepresnum = 1 
DOCKED: USER  
DOCKED: REMARK  Name = 
DOCKED: REMARK  8 active torsions:
DOCKED: REMARK  status: ('A' for Active; 'I' for Inactive)
DOCKED: REMARK    1  A    between atoms: C_2  and  C_10
DOCKED: REMARK    2  A    between atoms: N_3  and  C_4
DOCKED: REMARK    3  A    between atoms: C_10  and  C_11
DOCKED: REMARK    4  A    between atoms: C_11  and  C_12
DOCKED: REMARK    5  A    between atoms: C_12  and  C_13
DOCKED: REMARK    6  A    between atoms: C_13  and  C_14
DOCKED: REMARK    7  A    between atoms: C_14  and  C_15
DOCKED: REMARK    8  A    between atoms: C_15  and  C_16
DOCKED: REMARK                            x       y       z     vdW  Elec       q    Type
DOCKED: REMARK                         _______ _______ _______ _____ _____    ______ ____
DOCKED: USER                              x       y       z     vdW  Elec       q    Type
DOCKED: USER                           _______ _______ _______ _____ _____    ______ ____
DOCKED: ROOT
DOCKED: ATOM      1  C   UNL     1      27.317 -14.911   0.047 -0.31 -0.00    +0.000 C 
DOCKED: ENDROOT
DOCKED: BRANCH   1   3
DOCKED: ATOM      2  O   UNL     1      26.263 -13.366   1.527 -0.40 -0.00    +0.000 OA
DOCKED: ATOM      3  C   UNL     1      27.197 -14.196   1.359 -0.21 -0.00    +0.000 C 
DOCKED: ATOM      4  N   UNL     1      28.141 -14.461   2.409 -0.31 -0.00    +0.000 N 
DOCKED: ATOM      5  H   UNL     1      28.741 -15.234   2.306 -1.79 -0.00    +0.000 HD
DOCKED: BRANCH   4   6
DOCKED: ATOM      6  C   UNL     1      28.265 -13.666   3.600 -0.35 -0.00    +0.000 A 
DOCKED: ATOM      7  C   UNL     1      28.005 -12.287   3.538 -0.26 -0.00    +0.000 A 
DOCKED: ATOM      8  C   UNL     1      28.094 -11.497   4.687 -0.31 +0.00    +0.000 A 
DOCKED: ATOM      9  C   UNL     1      28.429 -12.078   5.913 -0.36 +0.00    +0.000 A 
DOCKED: ATOM     10  C   UNL     1      28.666 -13.453   5.992 -0.38 -0.00    +0.000 A 
DOCKED: ATOM     11  C   UNL     1      28.579 -14.247   4.843 -0.47 -0.00    +0.000 A 
DOCKED: ENDBRANCH   4   6
DOCKED: ENDBRANCH   1   3
DOCKED: BRANCH   1  12
DOCKED: ATOM     12  C   UNL     1      25.974 -14.899  -0.691 -0.37 -0.00    +0.000 C 
DOCKED: BRANCH  12  13
DOCKED: ATOM     13  C   UNL     1      26.031 -15.614  -2.051 -0.48 -0.00    +0.000 C 
DOCKED: BRANCH  13  14
DOCKED: ATOM     14  C   UNL     1      25.609 -17.098  -1.986 -0.55 -0.00    +0.000 C 
DOCKED: BRANCH  14  15
DOCKED: ATOM     15  C   UNL     1      25.506 -17.608  -0.537 -0.66 -0.00    +0.000 C 
DOCKED: BRANCH  15  16
DOCKED: ATOM     16  C   UNL     1      24.338 -18.585  -0.346 -0.69 -0.00    +0.000 C 
DOCKED: BRANCH  16  17
DOCKED: ATOM     17  C   UNL     1      23.010 -17.901  -0.486 -0.80 -0.00    +0.000 C 
DOCKED: ATOM     18  N   UNL     1      21.831 -18.661  -0.762 -0.77 -0.00    +0.000 N 
DOCKED: ATOM     19  O   UNL     1      20.630 -18.047  -0.873 -2.24 -0.00    +0.000 OA
DOCKED: ATOM     20  O   UNL     1      22.931 -16.653  -0.332 -0.65 -0.00    +0.000 OA
DOCKED: ATOM     21  H   UNL     1      21.892 -19.637  -0.871 -0.07 -0.00    +0.000 HD
DOCKED: ENDBRANCH  16  17
DOCKED: ENDBRANCH  15  16
DOCKED: ENDBRANCH  14  15
DOCKED: ENDBRANCH  13  14
DOCKED: ENDBRANCH  12  13
DOCKED: ENDBRANCH   1  12
DOCKED: TORSDOF 8
DOCKED: TER
DOCKED: ENDMDL
________________________________________________________________________________


	BEGINNING GENETIC ALGORITHM DOCKING 44 of 100
Run: 44 Seed: 369062122 1513455392 [ Run 44 of 100 GA/GALS ]
Beginning LAMARCKIAN GENETIC ALGORITHM (LGA), with a maximum of 2500000 energy evaluations.

Final-Value: -13.601


	FINAL GENETIC ALGORITHM DOCKED STATE
	_______________________________________________


Detailed state:  trans 25.381 -15.646 -3.379 quatxyzw 0.181890 -0.811013 0.544849 -0.110964 center 0.185 0.077 0.153 ntor 8 -41.2076 109.9798 -172.8055 178.1238 -41.0497 142.0058 28.2877 52.7298
State:	 25.381 -15.646  -3.379   0.183 -0.816  0.548 -167.258    -41.21  109.98 -172.81  178.12  -41.05  142.01   28.29   52.73

DOCKED: MODEL       44
DOCKED: USER    Run = 44
DOCKED: USER    DPF = ligand_dock.biased.dpf
DOCKED: USER  
DOCKED: USER    Estimated Free Energy of Binding    =  -10.38 kcal/mol  [=(1)+(2)+(3)-(4)]
DOCKED: USER    Estimated Inhibition Constant, Ki   =   24.71 nM (nanomolar)  [Temperature = 298.15 K]
DOCKED: USER    
DOCKED: USER    (1) Final Intermolecular Energy     =  -12.76 kcal/mol
DOCKED: USER        vdW + Hbond + desolv Energy     =  -12.76 kcal/mol
DOCKED: USER        Electrostatic Energy            =   +0.00 kcal/mol
DOCKED: USER    (2) Final Total Internal Energy     =   -0.84 kcal/mol
DOCKED: USER    (3) Torsional Free Energy           =   +2.39 kcal/mol
DOCKED: USER    (4) Unbound System's Energy  [=(2)] =   -0.84 kcal/mol
DOCKED: USER    
DOCKED: USER    
DOCKED: USER    NEWDPF move ligand.pdbqt
DOCKED: USER    NEWDPF about 0.185000 0.077000 0.153000
DOCKED: USER    NEWDPF tran0 25.381272 -15.646427 -3.378510
DOCKED: USER    NEWDPF quaternion0 0.181890 -0.811013 0.544849 -0.110964
DOCKED: USER    NEWDPF axisangle0 0.183021 -0.816053 0.548234 -167.258254
DOCKED: USER    NEWDPF quat0 0.183021 -0.816053 0.548234 -167.258254
DOCKED: USER    NEWDPF dihe0 -41.21 109.98 -172.81 178.12 -41.05 142.01 28.29 52.73 
DOCKED: USER  keepresnum = 1 
DOCKED: USER  
DOCKED: REMARK  Name = 
DOCKED: REMARK  8 active torsions:
DOCKED: REMARK  status: ('A' for Active; 'I' for Inactive)
DOCKED: REMARK    1  A    between atoms: C_2  and  C_10
DOCKED: REMARK    2  A    between atoms: N_3  and  C_4
DOCKED: REMARK    3  A    between atoms: C_10  and  C_11
DOCKED: REMARK    4  A    between atoms: C_11  and  C_12
DOCKED: REMARK    5  A    between atoms: C_12  and  C_13
DOCKED: REMARK    6  A    between atoms: C_13  and  C_14
DOCKED: REMARK    7  A    between atoms: C_14  and  C_15
DOCKED: REMARK    8  A    between atoms: C_15  and  C_16
DOCKED: REMARK                            x       y       z     vdW  Elec       q    Type
DOCKED: REMARK                         _______ _______ _______ _____ _____    ______ ____
DOCKED: USER                              x       y       z     vdW  Elec       q    Type
DOCKED: USER                           _______ _______ _______ _____ _____    ______ ____
DOCKED: ROOT
DOCKED: ATOM      1  C   UNL     1      25.531 -15.116  -3.543 -0.57 -0.00    +0.000 C 
DOCKED: ENDROOT
DOCKED: BRANCH   1   3
DOCKED: ATOM      2  O   UNL     1      26.235 -15.612  -5.768 -0.99 +0.00    +0.000 OA
DOCKED: ATOM      3  C   UNL     1      26.584 -15.344  -4.586 -0.52 -0.00    +0.000 C 
DOCKED: ATOM      4  N   UNL     1      27.973 -15.255  -4.233 -0.31 -0.00    +0.000 N 
DOCKED: ATOM      5  H   UNL     1      28.204 -14.874  -3.355 +0.00 -0.00    +0.000 HD
DOCKED: BRANCH   4   6
DOCKED: ATOM      6  C   UNL     1      29.050 -15.690  -5.082 -0.30 -0.00    +0.000 A 
DOCKED: ATOM      7  C   UNL     1      29.684 -16.914  -4.817 -0.25 -0.00    +0.000 A 
DOCKED: ATOM      8  C   UNL     1      30.716 -17.370  -5.642 -0.26 -0.00    +0.000 A 
DOCKED: ATOM      9  C   UNL     1      31.113 -16.616  -6.748 -0.25 -0.00    +0.000 A 
DOCKED: ATOM     10  C   UNL     1      30.473 -15.408  -7.036 -0.27 -0.00    +0.000 A 
DOCKED: ATOM     11  C   UNL     1      29.441 -14.947  -6.212 -0.31 -0.00    +0.000 A 
DOCKED: ENDBRANCH   4   6
DOCKED: ENDBRANCH   1   3
DOCKED: BRANCH   1  12
DOCKED: ATOM     12  C   UNL     1      25.778 -16.021  -2.331 -0.53 -0.00    +0.000 C 
DOCKED: BRANCH  12  13
DOCKED: ATOM     13  C   UNL     1      24.502 -16.728  -1.841 -0.58 -0.00    +0.000 C 
DOCKED: BRANCH  13  14
DOCKED: ATOM     14  C   UNL     1      24.513 -17.041  -0.330 -0.45 -0.00    +0.000 C 
DOCKED: BRANCH  14  15
DOCKED: ATOM     15  C   UNL     1      23.818 -18.377  -0.010 -0.69 -0.00    +0.000 C 
DOCKED: BRANCH  15  16
DOCKED: ATOM     16  C   UNL     1      23.109 -18.972  -1.234 -0.79 -0.00    +0.000 C 
DOCKED: BRANCH  16  17
DOCKED: ATOM     17  C   UNL     1      21.619 -18.811  -1.148 -0.77 -0.00    +0.000 C 
DOCKED: ATOM     18  N   UNL     1      20.752 -19.873  -1.553 -0.67 -0.00    +0.000 N 
DOCKED: ATOM     19  O   UNL     1      19.409 -19.734  -1.461 -1.96 -0.00    +0.000 OA
DOCKED: ATOM     20  O   UNL     1      21.133 -17.742  -0.689 -2.01 -0.00    +0.000 OA
DOCKED: ATOM     21  H   UNL     1      21.134 -20.711  -1.900 -0.29 -0.00    +0.000 HD
DOCKED: ENDBRANCH  16  17
DOCKED: ENDBRANCH  15  16
DOCKED: ENDBRANCH  14  15
DOCKED: ENDBRANCH  13  14
DOCKED: ENDBRANCH  12  13
DOCKED: ENDBRANCH   1  12
DOCKED: TORSDOF 8
DOCKED: TER
DOCKED: ENDMDL
________________________________________________________________________________


	BEGINNING GENETIC ALGORITHM DOCKING 45 of 100
Run: 45 Seed: 1916436617 152819768 [ Run 45 of 100 GA/GALS ]
Beginning LAMARCKIAN GENETIC ALGORITHM (LGA), with a maximum of 2500000 energy evaluations.

Final-Value: -13.410


	FINAL GENETIC ALGORITHM DOCKED STATE
	_______________________________________________


Detailed state:  trans 25.064 -15.858 -2.868 quatxyzw 0.249707 -0.798875 0.532497 -0.126062 center 0.185 0.077 0.153 ntor 8 86.5095 117.5740 174.1277 114.5898 -64.2812 -169.2917 17.3150 83.3504
State:	 25.064 -15.858  -2.868   0.252 -0.805  0.537 -165.516     86.51  117.57  174.13  114.59  -64.28 -169.29   17.32   83.35

DOCKED: MODEL       45
DOCKED: USER    Run = 45
DOCKED: USER    DPF = ligand_dock.biased.dpf
DOCKED: USER  
DOCKED: USER    Estimated Free Energy of Binding    =  -10.22 kcal/mol  [=(1)+(2)+(3)-(4)]
DOCKED: USER    Estimated Inhibition Constant, Ki   =   32.48 nM (nanomolar)  [Temperature = 298.15 K]
DOCKED: USER    
DOCKED: USER    (1) Final Intermolecular Energy     =  -12.60 kcal/mol
DOCKED: USER        vdW + Hbond + desolv Energy     =  -12.60 kcal/mol
DOCKED: USER        Electrostatic Energy            =   +0.00 kcal/mol
DOCKED: USER    (2) Final Total Internal Energy     =   -0.81 kcal/mol
DOCKED: USER    (3) Torsional Free Energy           =   +2.39 kcal/mol
DOCKED: USER    (4) Unbound System's Energy  [=(2)] =   -0.81 kcal/mol
DOCKED: USER    
DOCKED: USER    
DOCKED: USER    NEWDPF move ligand.pdbqt
DOCKED: USER    NEWDPF about 0.185000 0.077000 0.153000
DOCKED: USER    NEWDPF tran0 25.064469 -15.857927 -2.868210
DOCKED: USER    NEWDPF quaternion0 0.249707 -0.798875 0.532497 -0.126062
DOCKED: USER    NEWDPF axisangle0 0.251715 -0.805299 0.536780 -165.515850
DOCKED: USER    NEWDPF quat0 0.251715 -0.805299 0.536780 -165.515850
DOCKED: USER    NEWDPF dihe0 86.51 117.57 174.13 114.59 -64.28 -169.29 17.32 83.35 
DOCKED: USER  keepresnum = 1 
DOCKED: USER  
DOCKED: REMARK  Name = 
DOCKED: REMARK  8 active torsions:
DOCKED: REMARK  status: ('A' for Active; 'I' for Inactive)
DOCKED: REMARK    1  A    between atoms: C_2  and  C_10
DOCKED: REMARK    2  A    between atoms: N_3  and  C_4
DOCKED: REMARK    3  A    between atoms: C_10  and  C_11
DOCKED: REMARK    4  A    between atoms: C_11  and  C_12
DOCKED: REMARK    5  A    between atoms: C_12  and  C_13
DOCKED: REMARK    6  A    between atoms: C_13  and  C_14
DOCKED: REMARK    7  A    between atoms: C_14  and  C_15
DOCKED: REMARK    8  A    between atoms: C_15  and  C_16
DOCKED: REMARK                            x       y       z     vdW  Elec       q    Type
DOCKED: REMARK                         _______ _______ _______ _____ _____    ______ ____
DOCKED: USER                              x       y       z     vdW  Elec       q    Type
DOCKED: USER                           _______ _______ _______ _____ _____    ______ ____
DOCKED: ROOT
DOCKED: ATOM      1  C   UNL     1      25.145 -15.313  -3.036 -0.46 -0.00    +0.000 C 
DOCKED: ENDROOT
DOCKED: BRANCH   1   3
DOCKED: ATOM      2  O   UNL     1      25.694 -15.914  -5.279 -1.06 +0.00    +0.000 OA
DOCKED: ATOM      3  C   UNL     1      26.099 -15.428  -4.188 -0.57 -0.00    +0.000 C 
DOCKED: ATOM      4  N   UNL     1      27.457 -14.985  -4.041 -0.32 -0.00    +0.000 N 
DOCKED: ATOM      5  H   UNL     1      27.686 -14.455  -3.244 +0.00 -0.00    +0.000 HD
DOCKED: BRANCH   4   6
DOCKED: ATOM      6  C   UNL     1      28.503 -15.269  -4.985 -0.32 -0.00    +0.000 A 
DOCKED: ATOM      7  C   UNL     1      29.340 -16.377  -4.773 -0.27 -0.00    +0.000 A 
DOCKED: ATOM      8  C   UNL     1      30.348 -16.689  -5.689 -0.27 -0.00    +0.000 A 
DOCKED: ATOM      9  C   UNL     1      30.521 -15.907  -6.833 -0.28 -0.00    +0.000 A 
DOCKED: ATOM     10  C   UNL     1      29.680 -14.816  -7.067 -0.29 -0.00    +0.000 A 
DOCKED: ATOM     11  C   UNL     1      28.671 -14.500  -6.152 -0.34 -0.00    +0.000 A 
DOCKED: ENDBRANCH   4   6
DOCKED: ENDBRANCH   1   3
DOCKED: BRANCH   1  12
DOCKED: ATOM     12  C   UNL     1      25.603 -16.204  -1.876 -0.56 -0.00    +0.000 C 
DOCKED: BRANCH  12  13
DOCKED: ATOM     13  C   UNL     1      24.785 -17.501  -1.757 -0.67 -0.00    +0.000 C 
DOCKED: BRANCH  13  14
DOCKED: ATOM     14  C   UNL     1      23.736 -17.467  -0.626 -0.73 -0.00    +0.000 C 
DOCKED: BRANCH  14  15
DOCKED: ATOM     15  C   UNL     1      23.155 -18.861  -0.330 -0.75 -0.00    +0.000 C 
DOCKED: BRANCH  15  16
DOCKED: ATOM     16  C   UNL     1      22.221 -19.351  -1.444 -0.61 -0.00    +0.000 C 
DOCKED: BRANCH  16  17
DOCKED: ATOM     17  C   UNL     1      20.823 -19.572  -0.943 -0.84 -0.00    +0.000 C 
DOCKED: ATOM     18  N   UNL     1      20.549 -19.566   0.460 -0.71 -0.00    +0.000 N 
DOCKED: ATOM     19  O   UNL     1      19.287 -19.750   0.912 -0.79 -0.00    +0.000 OA
DOCKED: ATOM     20  O   UNL     1      19.883 -19.734  -1.767 -2.38 -0.00    +0.000 OA
DOCKED: ATOM     21  H   UNL     1      21.283 -19.428   1.101 -0.40 -0.00    +0.000 HD
DOCKED: ENDBRANCH  16  17
DOCKED: ENDBRANCH  15  16
DOCKED: ENDBRANCH  14  15
DOCKED: ENDBRANCH  13  14
DOCKED: ENDBRANCH  12  13
DOCKED: ENDBRANCH   1  12
DOCKED: TORSDOF 8
DOCKED: TER
DOCKED: ENDMDL
________________________________________________________________________________


	BEGINNING GENETIC ALGORITHM DOCKING 46 of 100
Run: 46 Seed: 130758682 265196979 [ Run 46 of 100 GA/GALS ]
Beginning LAMARCKIAN GENETIC ALGORITHM (LGA), with a maximum of 2500000 energy evaluations.

Final-Value: -14.258


	FINAL GENETIC ALGORITHM DOCKED STATE
	_______________________________________________


Detailed state:  trans 27.416 -16.028 0.292 quatxyzw 0.163571 0.094438 -0.580436 -0.792098 center 0.185 0.077 0.153 ntor 8 -124.8418 -41.3783 159.6644 117.6932 50.4884 180.0000 -161.4725 -12.1748
State:	 27.416 -16.028   0.292   0.268  0.155 -0.951 -75.236   -124.84  -41.38  159.66  117.69   50.49  180.00 -161.47  -12.17

DOCKED: MODEL       46
DOCKED: USER    Run = 46
DOCKED: USER    DPF = ligand_dock.biased.dpf
DOCKED: USER  
DOCKED: USER    Estimated Free Energy of Binding    =  -11.10 kcal/mol  [=(1)+(2)+(3)-(4)]
DOCKED: USER    Estimated Inhibition Constant, Ki   =    7.24 nM (nanomolar)  [Temperature = 298.15 K]
DOCKED: USER    
DOCKED: USER    (1) Final Intermolecular Energy     =  -13.49 kcal/mol
DOCKED: USER        vdW + Hbond + desolv Energy     =  -13.49 kcal/mol
DOCKED: USER        Electrostatic Energy            =   +0.00 kcal/mol
DOCKED: USER    (2) Final Total Internal Energy     =   -0.77 kcal/mol
DOCKED: USER    (3) Torsional Free Energy           =   +2.39 kcal/mol
DOCKED: USER    (4) Unbound System's Energy  [=(2)] =   -0.77 kcal/mol
DOCKED: USER    
DOCKED: USER    
DOCKED: USER    NEWDPF move ligand.pdbqt
DOCKED: USER    NEWDPF about 0.185000 0.077000 0.153000
DOCKED: USER    NEWDPF tran0 27.415523 -16.027856 0.291502
DOCKED: USER    NEWDPF quaternion0 0.163571 0.094438 -0.580436 -0.792098
DOCKED: USER    NEWDPF axisangle0 0.267976 0.154716 -0.950921 -75.235903
DOCKED: USER    NEWDPF quat0 0.267976 0.154716 -0.950921 -75.235903
DOCKED: USER    NEWDPF dihe0 -124.84 -41.38 159.66 117.69 50.49 180.00 -161.47 -12.17 
DOCKED: USER  keepresnum = 1 
DOCKED: USER  
DOCKED: REMARK  Name = 
DOCKED: REMARK  8 active torsions:
DOCKED: REMARK  status: ('A' for Active; 'I' for Inactive)
DOCKED: REMARK    1  A    between atoms: C_2  and  C_10
DOCKED: REMARK    2  A    between atoms: N_3  and  C_4
DOCKED: REMARK    3  A    between atoms: C_10  and  C_11
DOCKED: REMARK    4  A    between atoms: C_11  and  C_12
DOCKED: REMARK    5  A    between atoms: C_12  and  C_13
DOCKED: REMARK    6  A    between atoms: C_13  and  C_14
DOCKED: REMARK    7  A    between atoms: C_14  and  C_15
DOCKED: REMARK    8  A    between atoms: C_15  and  C_16
DOCKED: REMARK                            x       y       z     vdW  Elec       q    Type
DOCKED: REMARK                         _______ _______ _______ _____ _____    ______ ____
DOCKED: USER                              x       y       z     vdW  Elec       q    Type
DOCKED: USER                           _______ _______ _______ _____ _____    ______ ____
DOCKED: ROOT
DOCKED: ATOM      1  C   UNL     1      27.587 -15.542   0.034 -0.32 -0.00    +0.000 C 
DOCKED: ENDROOT
DOCKED: BRANCH   1   3
DOCKED: ATOM      2  O   UNL     1      26.588 -13.643   1.075 -0.37 -0.00    +0.000 OA
DOCKED: ATOM      3  C   UNL     1      27.503 -14.509   1.117 -0.28 -0.00    +0.000 C 
DOCKED: ATOM      4  N   UNL     1      28.461 -14.513   2.187 -0.25 -0.00    +0.000 N 
DOCKED: ATOM      5  H   UNL     1      29.045 -15.300   2.281 -1.89 -0.00    +0.000 HD
DOCKED: BRANCH   4   6
DOCKED: ATOM      6  C   UNL     1      28.620 -13.439   3.130 -0.25 -0.00    +0.000 A 
DOCKED: ATOM      7  C   UNL     1      28.154 -13.601   4.444 -0.44 -0.00    +0.000 A 
DOCKED: ATOM      8  C   UNL     1      28.320 -12.582   5.386 -0.37 -0.00    +0.000 A 
DOCKED: ATOM      9  C   UNL     1      28.966 -11.396   5.028 -0.21 +0.00    +0.000 A 
DOCKED: ATOM     10  C   UNL     1      29.456 -11.233   3.729 -0.09 -0.00    +0.000 A 
DOCKED: ATOM     11  C   UNL     1      29.291 -12.251   2.784 -0.10 -0.00    +0.000 A 
DOCKED: ENDBRANCH   4   6
DOCKED: ENDBRANCH   1   3
DOCKED: BRANCH   1  12
DOCKED: ATOM     12  C   UNL     1      26.331 -16.421   0.038 -0.18 -0.00    +0.000 C 
DOCKED: BRANCH  12  13
DOCKED: ATOM     13  C   UNL     1      26.125 -17.178  -1.285 -0.56 -0.00    +0.000 C 
DOCKED: BRANCH  13  14
DOCKED: ATOM     14  C   UNL     1      24.880 -16.717  -2.072 -0.58 -0.00    +0.000 C 
DOCKED: BRANCH  14  15
DOCKED: ATOM     15  C   UNL     1      23.606 -16.740  -1.209 -0.48 -0.00    +0.000 C 
DOCKED: BRANCH  15  16
DOCKED: ATOM     16  C   UNL     1      23.172 -18.168  -0.851 -0.81 -0.00    +0.000 C 
DOCKED: BRANCH  16  17
DOCKED: ATOM     17  C   UNL     1      21.704 -18.379  -1.084 -0.75 -0.00    +0.000 C 
DOCKED: ATOM     18  N   UNL     1      21.235 -19.581  -1.699 -0.63 -0.00    +0.000 N 
DOCKED: ATOM     19  O   UNL     1      19.911 -19.778  -1.896 -2.35 -0.00    +0.000 OA
DOCKED: ATOM     20  O   UNL     1      20.880 -17.502  -0.709 -2.08 +0.00    +0.000 OA
DOCKED: ATOM     21  H   UNL     1      21.879 -20.270  -1.981 -0.48 -0.00    +0.000 HD
DOCKED: ENDBRANCH  16  17
DOCKED: ENDBRANCH  15  16
DOCKED: ENDBRANCH  14  15
DOCKED: ENDBRANCH  13  14
DOCKED: ENDBRANCH  12  13
DOCKED: ENDBRANCH   1  12
DOCKED: TORSDOF 8
DOCKED: TER
DOCKED: ENDMDL
________________________________________________________________________________


	BEGINNING GENETIC ALGORITHM DOCKING 47 of 100
Run: 47 Seed: 1084225711 1878118826 [ Run 47 of 100 GA/GALS ]
Beginning LAMARCKIAN GENETIC ALGORITHM (LGA), with a maximum of 2500000 energy evaluations.

Final-Value: -13.261


	FINAL GENETIC ALGORITHM DOCKED STATE
	_______________________________________________


Detailed state:  trans 25.615 -14.759 -2.806 quatxyzw 0.091278 0.976661 -0.065722 0.182983 center 0.185 0.077 0.153 ntor 8 -162.5576 38.7348 158.9110 4.0941 92.5901 74.1266 32.3932 -89.2266
State:	 25.615 -14.759  -2.806   0.093  0.993 -0.067 158.913   -162.56   38.73  158.91    4.09   92.59   74.13   32.39  -89.23

DOCKED: MODEL       47
DOCKED: USER    Run = 47
DOCKED: USER    DPF = ligand_dock.biased.dpf
DOCKED: USER  
DOCKED: USER    Estimated Free Energy of Binding    =  -10.16 kcal/mol  [=(1)+(2)+(3)-(4)]
DOCKED: USER    Estimated Inhibition Constant, Ki   =   35.91 nM (nanomolar)  [Temperature = 298.15 K]
DOCKED: USER    
DOCKED: USER    (1) Final Intermolecular Energy     =  -12.54 kcal/mol
DOCKED: USER        vdW + Hbond + desolv Energy     =  -12.54 kcal/mol
DOCKED: USER        Electrostatic Energy            =   +0.00 kcal/mol
DOCKED: USER    (2) Final Total Internal Energy     =   -0.72 kcal/mol
DOCKED: USER    (3) Torsional Free Energy           =   +2.39 kcal/mol
DOCKED: USER    (4) Unbound System's Energy  [=(2)] =   -0.72 kcal/mol
DOCKED: USER    
DOCKED: USER    
DOCKED: USER    NEWDPF move ligand.pdbqt
DOCKED: USER    NEWDPF about 0.185000 0.077000 0.153000
DOCKED: USER    NEWDPF tran0 25.615350 -14.758551 -2.806175
DOCKED: USER    NEWDPF quaternion0 0.091278 0.976661 -0.065722 0.182983
DOCKED: USER    NEWDPF axisangle0 0.092846 0.993434 -0.066851 158.912831
DOCKED: USER    NEWDPF quat0 0.092846 0.993434 -0.066851 158.912831
DOCKED: USER    NEWDPF dihe0 -162.56 38.73 158.91 4.09 92.59 74.13 32.39 -89.23 
DOCKED: USER  keepresnum = 1 
DOCKED: USER  
DOCKED: REMARK  Name = 
DOCKED: REMARK  8 active torsions:
DOCKED: REMARK  status: ('A' for Active; 'I' for Inactive)
DOCKED: REMARK    1  A    between atoms: C_2  and  C_10
DOCKED: REMARK    2  A    between atoms: N_3  and  C_4
DOCKED: REMARK    3  A    between atoms: C_10  and  C_11
DOCKED: REMARK    4  A    between atoms: C_11  and  C_12
DOCKED: REMARK    5  A    between atoms: C_12  and  C_13
DOCKED: REMARK    6  A    between atoms: C_13  and  C_14
DOCKED: REMARK    7  A    between atoms: C_14  and  C_15
DOCKED: REMARK    8  A    between atoms: C_15  and  C_16
DOCKED: REMARK                            x       y       z     vdW  Elec       q    Type
DOCKED: REMARK                         _______ _______ _______ _____ _____    ______ ____
DOCKED: USER                              x       y       z     vdW  Elec       q    Type
DOCKED: USER                           _______ _______ _______ _____ _____    ______ ____
DOCKED: ROOT
DOCKED: ATOM      1  C   UNL     1      26.079 -14.527  -2.555 -0.40 -0.00    +0.000 C 
DOCKED: ENDROOT
DOCKED: BRANCH   1   3
DOCKED: ATOM      2  O   UNL     1      27.136 -13.516  -4.440 -0.29 -0.00    +0.000 OA
DOCKED: ATOM      3  C   UNL     1      27.105 -14.497  -3.648 -0.35 -0.00    +0.000 C 
DOCKED: ATOM      4  N   UNL     1      28.039 -15.579  -3.783 -0.29 -0.00    +0.000 N 
DOCKED: ATOM      5  H   UNL     1      28.099 -16.232  -3.050 -0.01 -0.00    +0.000 HD
DOCKED: BRANCH   4   6
DOCKED: ATOM      6  C   UNL     1      28.892 -15.769  -4.925 -0.30 -0.00    +0.000 A 
DOCKED: ATOM      7  C   UNL     1      29.672 -16.934  -5.016 -0.26 -0.00    +0.000 A 
DOCKED: ATOM      8  C   UNL     1      30.490 -17.154  -6.127 -0.30 -0.00    +0.000 A 
DOCKED: ATOM      9  C   UNL     1      30.526 -16.221  -7.166 -0.27 -0.00    +0.000 A 
DOCKED: ATOM     10  C   UNL     1      29.736 -15.069  -7.098 -0.25 -0.00    +0.000 A 
DOCKED: ATOM     11  C   UNL     1      28.917 -14.846  -5.987 -0.34 -0.00    +0.000 A 
DOCKED: ENDBRANCH   4   6
DOCKED: ENDBRANCH   1   3
DOCKED: BRANCH   1  12
DOCKED: ATOM     12  C   UNL     1      25.359 -15.880  -2.538 -0.54 -0.00    +0.000 C 
DOCKED: BRANCH  12  13
DOCKED: ATOM     13  C   UNL     1      26.123 -16.955  -1.747 -0.52 -0.00    +0.000 C 
DOCKED: BRANCH  13  14
DOCKED: ATOM     14  C   UNL     1      25.207 -17.874  -0.912 -0.69 -0.00    +0.000 C 
DOCKED: BRANCH  14  15
DOCKED: ATOM     15  C   UNL     1      23.761 -17.351  -0.851 -0.73 -0.00    +0.000 C 
DOCKED: BRANCH  15  16
DOCKED: ATOM     16  C   UNL     1      22.834 -18.290  -0.068 -0.78 -0.00    +0.000 C 
DOCKED: BRANCH  16  17
DOCKED: ATOM     17  C   UNL     1      21.544 -18.535  -0.796 -0.84 -0.00    +0.000 C 
DOCKED: ATOM     18  N   UNL     1      21.359 -19.730  -1.558 -0.57 -0.00    +0.000 N 
DOCKED: ATOM     19  O   UNL     1      20.191 -19.958  -2.202 -2.27 -0.00    +0.000 OA
DOCKED: ATOM     20  O   UNL     1      20.610 -17.692  -0.711 -2.20 +0.00    +0.000 OA
DOCKED: ATOM     21  H   UNL     1      22.085 -20.392  -1.614 -0.34 -0.00    +0.000 HD
DOCKED: ENDBRANCH  16  17
DOCKED: ENDBRANCH  15  16
DOCKED: ENDBRANCH  14  15
DOCKED: ENDBRANCH  13  14
DOCKED: ENDBRANCH  12  13
DOCKED: ENDBRANCH   1  12
DOCKED: TORSDOF 8
DOCKED: TER
DOCKED: ENDMDL
________________________________________________________________________________


	BEGINNING GENETIC ALGORITHM DOCKING 48 of 100
Run: 48 Seed: 875008723 676246267 [ Run 48 of 100 GA/GALS ]
Beginning LAMARCKIAN GENETIC ALGORITHM (LGA), with a maximum of 2500000 energy evaluations.

Final-Value: -12.390


	FINAL GENETIC ALGORITHM DOCKED STATE
	_______________________________________________


Detailed state:  trans 27.227 -16.356 -0.195 quatxyzw -0.442905 -0.732126 -0.333688 -0.395573 center 0.185 0.077 0.153 ntor 8 68.3780 160.1041 26.3452 -98.2071 147.3908 62.7021 132.2605 -135.2413
State:	 27.227 -16.356  -0.195  -0.482 -0.797 -0.363 -133.397     68.38  160.10   26.35  -98.21  147.39   62.70  132.26 -135.24

DOCKED: MODEL       48
DOCKED: USER    Run = 48
DOCKED: USER    DPF = ligand_dock.biased.dpf
DOCKED: USER  
DOCKED: USER    Estimated Free Energy of Binding    =   -9.02 kcal/mol  [=(1)+(2)+(3)-(4)]
DOCKED: USER    Estimated Inhibition Constant, Ki   =  243.17 nM (nanomolar)  [Temperature = 298.15 K]
DOCKED: USER    
DOCKED: USER    (1) Final Intermolecular Energy     =  -11.41 kcal/mol
DOCKED: USER        vdW + Hbond + desolv Energy     =  -11.41 kcal/mol
DOCKED: USER        Electrostatic Energy            =   +0.00 kcal/mol
DOCKED: USER    (2) Final Total Internal Energy     =   -0.98 kcal/mol
DOCKED: USER    (3) Torsional Free Energy           =   +2.39 kcal/mol
DOCKED: USER    (4) Unbound System's Energy  [=(2)] =   -0.98 kcal/mol
DOCKED: USER    
DOCKED: USER    
DOCKED: USER    NEWDPF move ligand.pdbqt
DOCKED: USER    NEWDPF about 0.185000 0.077000 0.153000
DOCKED: USER    NEWDPF tran0 27.226554 -16.355715 -0.195451
DOCKED: USER    NEWDPF quaternion0 -0.442905 -0.732126 -0.333688 -0.395573
DOCKED: USER    NEWDPF axisangle0 -0.482239 -0.797146 -0.363323 -133.396544
DOCKED: USER    NEWDPF quat0 -0.482239 -0.797146 -0.363323 -133.396544
DOCKED: USER    NEWDPF dihe0 68.38 160.10 26.35 -98.21 147.39 62.70 132.26 -135.24 
DOCKED: USER  keepresnum = 1 
DOCKED: USER  
DOCKED: REMARK  Name = 
DOCKED: REMARK  8 active torsions:
DOCKED: REMARK  status: ('A' for Active; 'I' for Inactive)
DOCKED: REMARK    1  A    between atoms: C_2  and  C_10
DOCKED: REMARK    2  A    between atoms: N_3  and  C_4
DOCKED: REMARK    3  A    between atoms: C_10  and  C_11
DOCKED: REMARK    4  A    between atoms: C_11  and  C_12
DOCKED: REMARK    5  A    between atoms: C_12  and  C_13
DOCKED: REMARK    6  A    between atoms: C_13  and  C_14
DOCKED: REMARK    7  A    between atoms: C_14  and  C_15
DOCKED: REMARK    8  A    between atoms: C_15  and  C_16
DOCKED: REMARK                            x       y       z     vdW  Elec       q    Type
DOCKED: REMARK                         _______ _______ _______ _____ _____    ______ ____
DOCKED: USER                              x       y       z     vdW  Elec       q    Type
DOCKED: USER                           _______ _______ _______ _____ _____    ______ ____
DOCKED: ROOT
DOCKED: ATOM      1  C   UNL     1      27.667 -16.725  -0.217 -0.38 -0.00    +0.000 C 
DOCKED: ENDROOT
DOCKED: BRANCH   1   3
DOCKED: ATOM      2  O   UNL     1      29.126 -17.330  -2.006 -0.30 -0.00    +0.000 OA
DOCKED: ATOM      3  C   UNL     1      28.208 -16.563  -1.606 -0.33 -0.00    +0.000 C 
DOCKED: ATOM      4  N   UNL     1      27.679 -15.541  -2.466 -0.25 -0.00    +0.000 N 
DOCKED: ATOM      5  H   UNL     1      26.854 -15.084  -2.187 +0.00 -0.00    +0.000 HD
DOCKED: BRANCH   4   6
DOCKED: ATOM      6  C   UNL     1      28.283 -15.143  -3.709 -0.23 -0.00    +0.000 A 
DOCKED: ATOM      7  C   UNL     1      29.642 -14.790  -3.733 -0.11 -0.00    +0.000 A 
DOCKED: ATOM      8  C   UNL     1      30.257 -14.423  -4.933 -0.10 -0.00    +0.000 A 
DOCKED: ATOM      9  C   UNL     1      29.526 -14.421  -6.123 -0.25 -0.00    +0.000 A 
DOCKED: ATOM     10  C   UNL     1      28.179 -14.793  -6.116 -0.34 -0.00    +0.000 A 
DOCKED: ATOM     11  C   UNL     1      27.559 -15.159  -4.916 -0.40 -0.00    +0.000 A 
DOCKED: ENDBRANCH   4   6
DOCKED: ENDBRANCH   1   3
DOCKED: BRANCH   1  12
DOCKED: ATOM     12  C   UNL     1      26.137 -16.809  -0.248 -0.44 -0.00    +0.000 C 
DOCKED: BRANCH  12  13
DOCKED: ATOM     13  C   UNL     1      25.604 -17.606  -1.451 -0.58 -0.00    +0.000 C 
DOCKED: BRANCH  13  14
DOCKED: ATOM     14  C   UNL     1      24.586 -18.699  -1.063 -0.57 -0.00    +0.000 C 
DOCKED: BRANCH  14  15
DOCKED: ATOM     15  C   UNL     1      23.554 -18.194  -0.039 -0.74 -0.00    +0.000 C 
DOCKED: BRANCH  15  16
DOCKED: ATOM     16  C   UNL     1      22.499 -17.280  -0.678 -0.73 -0.00    +0.000 C 
DOCKED: BRANCH  16  17
DOCKED: ATOM     17  C   UNL     1      21.274 -18.044  -1.086 -0.55 -0.00    +0.000 C 
DOCKED: ATOM     18  N   UNL     1      21.372 -19.418  -1.468 -0.74 -0.00    +0.000 N 
DOCKED: ATOM     19  O   UNL     1      20.265 -20.111  -1.822 -2.29 -0.00    +0.000 OA
DOCKED: ATOM     20  O   UNL     1      20.148 -17.476  -1.064 -1.79 -0.00    +0.000 OA
DOCKED: ATOM     21  H   UNL     1      22.250 -19.863  -1.474 -0.28 -0.00    +0.000 HD
DOCKED: ENDBRANCH  16  17
DOCKED: ENDBRANCH  15  16
DOCKED: ENDBRANCH  14  15
DOCKED: ENDBRANCH  13  14
DOCKED: ENDBRANCH  12  13
DOCKED: ENDBRANCH   1  12
DOCKED: TORSDOF 8
DOCKED: TER
DOCKED: ENDMDL
________________________________________________________________________________


	BEGINNING GENETIC ALGORITHM DOCKING 49 of 100
Run: 49 Seed: 1198379745 247630259 [ Run 49 of 100 GA/GALS ]
Beginning LAMARCKIAN GENETIC ALGORITHM (LGA), with a maximum of 2500000 energy evaluations.

Final-Value: -14.065


	FINAL GENETIC ALGORITHM DOCKED STATE
	_______________________________________________


Detailed state:  trans 28.380 -16.979 -0.107 quatxyzw 0.159846 -0.236318 -0.419792 -0.861613 center 0.185 0.077 0.153 ntor 8 -173.6754 -118.1668 155.4957 93.6123 -56.1772 80.7556 -162.4166 -179.8469
State:	 28.380 -16.979  -0.107   0.315 -0.466 -0.827 -61.004   -173.68 -118.17  155.50   93.61  -56.18   80.76 -162.42 -179.85

DOCKED: MODEL       49
DOCKED: USER    Run = 49
DOCKED: USER    DPF = ligand_dock.biased.dpf
DOCKED: USER  
DOCKED: USER    Estimated Free Energy of Binding    =  -10.95 kcal/mol  [=(1)+(2)+(3)-(4)]
DOCKED: USER    Estimated Inhibition Constant, Ki   =    9.41 nM (nanomolar)  [Temperature = 298.15 K]
DOCKED: USER    
DOCKED: USER    (1) Final Intermolecular Energy     =  -13.34 kcal/mol
DOCKED: USER        vdW + Hbond + desolv Energy     =  -13.34 kcal/mol
DOCKED: USER        Electrostatic Energy            =   +0.00 kcal/mol
DOCKED: USER    (2) Final Total Internal Energy     =   -0.73 kcal/mol
DOCKED: USER    (3) Torsional Free Energy           =   +2.39 kcal/mol
DOCKED: USER    (4) Unbound System's Energy  [=(2)] =   -0.73 kcal/mol
DOCKED: USER    
DOCKED: USER    
DOCKED: USER    NEWDPF move ligand.pdbqt
DOCKED: USER    NEWDPF about 0.185000 0.077000 0.153000
DOCKED: USER    NEWDPF tran0 28.379707 -16.979025 -0.106755
DOCKED: USER    NEWDPF quaternion0 0.159846 -0.236318 -0.419792 -0.861613
DOCKED: USER    NEWDPF axisangle0 0.314927 -0.465592 -0.827070 -61.003610
DOCKED: USER    NEWDPF quat0 0.314927 -0.465592 -0.827070 -61.003610
DOCKED: USER    NEWDPF dihe0 -173.68 -118.17 155.50 93.61 -56.18 80.76 -162.42 -179.85 
DOCKED: USER  keepresnum = 1 
DOCKED: USER  
DOCKED: REMARK  Name = 
DOCKED: REMARK  8 active torsions:
DOCKED: REMARK  status: ('A' for Active; 'I' for Inactive)
DOCKED: REMARK    1  A    between atoms: C_2  and  C_10
DOCKED: REMARK    2  A    between atoms: N_3  and  C_4
DOCKED: REMARK    3  A    between atoms: C_10  and  C_11
DOCKED: REMARK    4  A    between atoms: C_11  and  C_12
DOCKED: REMARK    5  A    between atoms: C_12  and  C_13
DOCKED: REMARK    6  A    between atoms: C_13  and  C_14
DOCKED: REMARK    7  A    between atoms: C_14  and  C_15
DOCKED: REMARK    8  A    between atoms: C_15  and  C_16
DOCKED: REMARK                            x       y       z     vdW  Elec       q    Type
DOCKED: REMARK                         _______ _______ _______ _____ _____    ______ ____
DOCKED: USER                              x       y       z     vdW  Elec       q    Type
DOCKED: USER                           _______ _______ _______ _____ _____    ______ ____
DOCKED: ROOT
DOCKED: ATOM      1  C   UNL     1      28.620 -16.561  -0.420 -0.28 -0.00    +0.000 C 
DOCKED: ENDROOT
DOCKED: BRANCH   1   3
DOCKED: ATOM      2  O   UNL     1      27.029 -14.861  -0.942 -0.29 -0.00    +0.000 OA
DOCKED: ATOM      3  C   UNL     1      27.813 -15.344  -0.080 -0.29 -0.00    +0.000 C 
DOCKED: ATOM      4  N   UNL     1      27.938 -14.740   1.217 -0.27 -0.00    +0.000 N 
DOCKED: ATOM      5  H   UNL     1      28.419 -15.241   1.915 -1.28 -0.00    +0.000 HD
DOCKED: BRANCH   4   6
DOCKED: ATOM      6  C   UNL     1      27.405 -13.450   1.560 -0.26 -0.00    +0.000 A 
DOCKED: ATOM      7  C   UNL     1      26.255 -12.983   0.903 -0.32 -0.00    +0.000 A 
DOCKED: ATOM      8  C   UNL     1      25.703 -11.743   1.236 -0.33 +0.00    +0.000 A 
DOCKED: ATOM      9  C   UNL     1      26.285 -10.964   2.239 -0.30 +0.00    +0.000 A 
DOCKED: ATOM     10  C   UNL     1      27.416 -11.428   2.915 -0.26 +0.00    +0.000 A 
DOCKED: ATOM     11  C   UNL     1      27.972 -12.668   2.584 -0.23 -0.00    +0.000 A 
DOCKED: ENDBRANCH   4   6
DOCKED: ENDBRANCH   1   3
DOCKED: BRANCH   1  12
DOCKED: ATOM     12  C   UNL     1      27.697 -17.758  -0.676 -0.36 -0.00    +0.000 C 
DOCKED: BRANCH  12  13
DOCKED: ATOM     13  C   UNL     1      26.221 -17.453  -0.369 -0.60 -0.00    +0.000 C 
DOCKED: BRANCH  13  14
DOCKED: ATOM     14  C   UNL     1      25.233 -18.212  -1.279 -0.48 -0.00    +0.000 C 
DOCKED: BRANCH  14  15
DOCKED: ATOM     15  C   UNL     1      23.848 -17.543  -1.317 -0.72 -0.00    +0.000 C 
DOCKED: BRANCH  15  16
DOCKED: ATOM     16  C   UNL     1      22.890 -18.127  -0.269 -0.80 -0.00    +0.000 C 
DOCKED: BRANCH  16  17
DOCKED: ATOM     17  C   UNL     1      21.517 -18.349  -0.832 -0.80 -0.00    +0.000 C 
DOCKED: ATOM     18  N   UNL     1      21.190 -19.583  -1.476 -0.72 -0.00    +0.000 N 
DOCKED: ATOM     19  O   UNL     1      19.947 -19.790  -1.970 -2.33 -0.00    +0.000 OA
DOCKED: ATOM     20  O   UNL     1      20.640 -17.452  -0.711 -2.03 +0.00    +0.000 OA
DOCKED: ATOM     21  H   UNL     1      21.873 -20.287  -1.560 -0.36 -0.00    +0.000 HD
DOCKED: ENDBRANCH  16  17
DOCKED: ENDBRANCH  15  16
DOCKED: ENDBRANCH  14  15
DOCKED: ENDBRANCH  13  14
DOCKED: ENDBRANCH  12  13
DOCKED: ENDBRANCH   1  12
DOCKED: TORSDOF 8
DOCKED: TER
DOCKED: ENDMDL
________________________________________________________________________________


	BEGINNING GENETIC ALGORITHM DOCKING 50 of 100
Run: 50 Seed: 1947747496 1874206358 [ Run 50 of 100 GA/GALS ]
Beginning LAMARCKIAN GENETIC ALGORITHM (LGA), with a maximum of 2500000 energy evaluations.

Final-Value: -13.924


	FINAL GENETIC ALGORITHM DOCKED STATE
	_______________________________________________


Detailed state:  trans 26.414 -14.952 -3.932 quatxyzw 0.256004 0.935429 -0.080035 0.230282 center 0.185 0.077 0.153 ntor 8 -126.4880 123.6804 179.5760 -9.2071 -46.7394 147.6350 -30.7100 -14.6575
State:	 26.414 -14.952  -3.932   0.263  0.961 -0.082 153.373   -126.49  123.68  179.58   -9.21  -46.74  147.63  -30.71  -14.66

DOCKED: MODEL       50
DOCKED: USER    Run = 50
DOCKED: USER    DPF = ligand_dock.biased.dpf
DOCKED: USER  
DOCKED: USER    Estimated Free Energy of Binding    =  -10.84 kcal/mol  [=(1)+(2)+(3)-(4)]
DOCKED: USER    Estimated Inhibition Constant, Ki   =   11.28 nM (nanomolar)  [Temperature = 298.15 K]
DOCKED: USER    
DOCKED: USER    (1) Final Intermolecular Energy     =  -13.23 kcal/mol
DOCKED: USER        vdW + Hbond + desolv Energy     =  -13.23 kcal/mol
DOCKED: USER        Electrostatic Energy            =   +0.00 kcal/mol
DOCKED: USER    (2) Final Total Internal Energy     =   -0.70 kcal/mol
DOCKED: USER    (3) Torsional Free Energy           =   +2.39 kcal/mol
DOCKED: USER    (4) Unbound System's Energy  [=(2)] =   -0.70 kcal/mol
DOCKED: USER    
DOCKED: USER    
DOCKED: USER    NEWDPF move ligand.pdbqt
DOCKED: USER    NEWDPF about 0.185000 0.077000 0.153000
DOCKED: USER    NEWDPF tran0 26.414218 -14.951662 -3.932200
DOCKED: USER    NEWDPF quaternion0 0.256004 0.935429 -0.080035 0.230282
DOCKED: USER    NEWDPF axisangle0 0.263074 0.961264 -0.082245 153.372615
DOCKED: USER    NEWDPF quat0 0.263074 0.961264 -0.082245 153.372615
DOCKED: USER    NEWDPF dihe0 -126.49 123.68 179.58 -9.21 -46.74 147.63 -30.71 -14.66 
DOCKED: USER  keepresnum = 1 
DOCKED: USER  
DOCKED: REMARK  Name = 
DOCKED: REMARK  8 active torsions:
DOCKED: REMARK  status: ('A' for Active; 'I' for Inactive)
DOCKED: REMARK    1  A    between atoms: C_2  and  C_10
DOCKED: REMARK    2  A    between atoms: N_3  and  C_4
DOCKED: REMARK    3  A    between atoms: C_10  and  C_11
DOCKED: REMARK    4  A    between atoms: C_11  and  C_12
DOCKED: REMARK    5  A    between atoms: C_12  and  C_13
DOCKED: REMARK    6  A    between atoms: C_13  and  C_14
DOCKED: REMARK    7  A    between atoms: C_14  and  C_15
DOCKED: REMARK    8  A    between atoms: C_15  and  C_16
DOCKED: REMARK                            x       y       z     vdW  Elec       q    Type
DOCKED: REMARK                         _______ _______ _______ _____ _____    ______ ____
DOCKED: USER                              x       y       z     vdW  Elec       q    Type
DOCKED: USER                           _______ _______ _______ _____ _____    ______ ____
DOCKED: ROOT
DOCKED: ATOM      1  C   UNL     1      26.950 -14.868  -3.740 -0.41 -0.00    +0.000 C 
DOCKED: ENDROOT
DOCKED: BRANCH   1   3
DOCKED: ATOM      2  O   UNL     1      27.335 -15.224  -6.067 -0.98 +0.00    +0.000 OA
DOCKED: ATOM      3  C   UNL     1      27.816 -15.253  -4.902 -0.43 -0.00    +0.000 C 
DOCKED: ATOM      4  N   UNL     1      29.178 -15.650  -4.681 -0.26 -0.00    +0.000 N 
DOCKED: ATOM      5  H   UNL     1      29.566 -15.492  -3.790 +0.00 -0.00    +0.000 HD
DOCKED: BRANCH   4   6
DOCKED: ATOM      6  C   UNL     1      30.011 -16.265  -5.679 -0.28 -0.00    +0.000 A 
DOCKED: ATOM      7  C   UNL     1      30.008 -17.663  -5.812 -0.29 -0.00    +0.000 A 
DOCKED: ATOM      8  C   UNL     1      30.789 -18.283  -6.791 -0.33 -0.00    +0.000 A 
DOCKED: ATOM      9  C   UNL     1      31.568 -17.512  -7.657 -0.25 -0.00    +0.000 A 
DOCKED: ATOM     10  C   UNL     1      31.562 -16.119  -7.550 -0.22 -0.00    +0.000 A 
DOCKED: ATOM     11  C   UNL     1      30.782 -15.495  -6.570 -0.23 -0.00    +0.000 A 
DOCKED: ENDBRANCH   4   6
DOCKED: ENDBRANCH   1   3
DOCKED: BRANCH   1  12
DOCKED: ATOM     12  C   UNL     1      25.839 -15.905  -3.537 -0.50 -0.00    +0.000 C 
DOCKED: BRANCH  12  13
DOCKED: ATOM     13  C   UNL     1      25.252 -15.883  -2.115 -0.54 -0.00    +0.000 C 
DOCKED: BRANCH  13  14
DOCKED: ATOM     14  C   UNL     1      24.831 -17.276  -1.601 -0.67 -0.00    +0.000 C 
DOCKED: BRANCH  14  15
DOCKED: ATOM     15  C   UNL     1      23.652 -17.199  -0.615 -0.68 -0.00    +0.000 C 
DOCKED: BRANCH  15  16
DOCKED: ATOM     16  C   UNL     1      22.985 -18.563  -0.397 -0.82 -0.00    +0.000 C 
DOCKED: BRANCH  16  17
DOCKED: ATOM     17  C   UNL     1      21.590 -18.597  -0.950 -0.82 -0.00    +0.000 C 
DOCKED: ATOM     18  N   UNL     1      21.141 -19.719  -1.713 -0.63 -0.00    +0.000 N 
DOCKED: ATOM     19  O   UNL     1      19.879 -19.757  -2.199 -2.31 -0.00    +0.000 OA
DOCKED: ATOM     20  O   UNL     1      20.803 -17.641  -0.716 -2.15 +0.00    +0.000 OA
DOCKED: ATOM     21  H   UNL     1      21.754 -20.470  -1.886 -0.44 -0.00    +0.000 HD
DOCKED: ENDBRANCH  16  17
DOCKED: ENDBRANCH  15  16
DOCKED: ENDBRANCH  14  15
DOCKED: ENDBRANCH  13  14
DOCKED: ENDBRANCH  12  13
DOCKED: ENDBRANCH   1  12
DOCKED: TORSDOF 8
DOCKED: TER
DOCKED: ENDMDL
________________________________________________________________________________


	BEGINNING GENETIC ALGORITHM DOCKING 51 of 100
Run: 51 Seed: 2132926084 1991603128 [ Run 51 of 100 GA/GALS ]
Beginning LAMARCKIAN GENETIC ALGORITHM (LGA), with a maximum of 2500000 energy evaluations.

Final-Value: -13.711


	FINAL GENETIC ALGORITHM DOCKED STATE
	_______________________________________________


Detailed state:  trans 25.405 -16.247 -2.666 quatxyzw -0.455447 0.539721 -0.700570 -0.102330 center 0.185 0.077 0.153 ntor 8 -130.4835 86.9188 137.9917 -15.7574 127.9005 -167.1771 99.2283 98.4784
State:	 25.405 -16.247  -2.666  -0.458  0.543 -0.704 -168.253   -130.48   86.92  137.99  -15.76  127.90 -167.18   99.23   98.48

DOCKED: MODEL       51
DOCKED: USER    Run = 51
DOCKED: USER    DPF = ligand_dock.biased.dpf
DOCKED: USER  
DOCKED: USER    Estimated Free Energy of Binding    =  -10.44 kcal/mol  [=(1)+(2)+(3)-(4)]
DOCKED: USER    Estimated Inhibition Constant, Ki   =   22.32 nM (nanomolar)  [Temperature = 298.15 K]
DOCKED: USER    
DOCKED: USER    (1) Final Intermolecular Energy     =  -12.82 kcal/mol
DOCKED: USER        vdW + Hbond + desolv Energy     =  -12.82 kcal/mol
DOCKED: USER        Electrostatic Energy            =   +0.00 kcal/mol
DOCKED: USER    (2) Final Total Internal Energy     =   -0.89 kcal/mol
DOCKED: USER    (3) Torsional Free Energy           =   +2.39 kcal/mol
DOCKED: USER    (4) Unbound System's Energy  [=(2)] =   -0.89 kcal/mol
DOCKED: USER    
DOCKED: USER    
DOCKED: USER    NEWDPF move ligand.pdbqt
DOCKED: USER    NEWDPF about 0.185000 0.077000 0.153000
DOCKED: USER    NEWDPF tran0 25.405437 -16.247230 -2.665622
DOCKED: USER    NEWDPF quaternion0 -0.455447 0.539721 -0.700570 -0.102330
DOCKED: USER    NEWDPF axisangle0 -0.457851 0.542569 -0.704267 -168.253263
DOCKED: USER    NEWDPF quat0 -0.457851 0.542569 -0.704267 -168.253263
DOCKED: USER    NEWDPF dihe0 -130.48 86.92 137.99 -15.76 127.90 -167.18 99.23 98.48 
DOCKED: USER  keepresnum = 1 
DOCKED: USER  
DOCKED: REMARK  Name = 
DOCKED: REMARK  8 active torsions:
DOCKED: REMARK  status: ('A' for Active; 'I' for Inactive)
DOCKED: REMARK    1  A    between atoms: C_2  and  C_10
DOCKED: REMARK    2  A    between atoms: N_3  and  C_4
DOCKED: REMARK    3  A    between atoms: C_10  and  C_11
DOCKED: REMARK    4  A    between atoms: C_11  and  C_12
DOCKED: REMARK    5  A    between atoms: C_12  and  C_13
DOCKED: REMARK    6  A    between atoms: C_13  and  C_14
DOCKED: REMARK    7  A    between atoms: C_14  and  C_15
DOCKED: REMARK    8  A    between atoms: C_15  and  C_16
DOCKED: REMARK                            x       y       z     vdW  Elec       q    Type
DOCKED: REMARK                         _______ _______ _______ _____ _____    ______ ____
DOCKED: USER                              x       y       z     vdW  Elec       q    Type
DOCKED: USER                           _______ _______ _______ _____ _____    ______ ____
DOCKED: ROOT
DOCKED: ATOM      1  C   UNL     1      25.162 -15.883  -3.039 -0.38 -0.00    +0.000 C 
DOCKED: ENDROOT
DOCKED: BRANCH   1   3
DOCKED: ATOM      2  O   UNL     1      25.932 -15.291  -5.218 -0.89 -0.00    +0.000 OA
DOCKED: ATOM      3  C   UNL     1      26.246 -15.610  -4.038 -0.53 -0.00    +0.000 C 
DOCKED: ATOM      4  N   UNL     1      27.624 -15.714  -3.648 -0.31 -0.00    +0.000 N 
DOCKED: ATOM      5  H   UNL     1      27.827 -15.790  -2.688 -0.00 -0.00    +0.000 HD
DOCKED: BRANCH   4   6
DOCKED: ATOM      6  C   UNL     1      28.725 -15.715  -4.572 -0.28 -0.00    +0.000 A 
DOCKED: ATOM      7  C   UNL     1      29.651 -16.770  -4.539 -0.25 -0.00    +0.000 A 
DOCKED: ATOM      8  C   UNL     1      30.716 -16.807  -5.443 -0.23 -0.00    +0.000 A 
DOCKED: ATOM      9  C   UNL     1      30.858 -15.799  -6.400 -0.22 -0.00    +0.000 A 
DOCKED: ATOM     10  C   UNL     1      29.929 -14.756  -6.458 -0.26 -0.00    +0.000 A 
DOCKED: ATOM     11  C   UNL     1      28.863 -14.716  -5.554 -0.30 -0.00    +0.000 A 
DOCKED: ENDBRANCH   4   6
DOCKED: ENDBRANCH   1   3
DOCKED: BRANCH   1  12
DOCKED: ATOM     12  C   UNL     1      25.723 -15.814  -1.614 -0.51 -0.00    +0.000 C 
DOCKED: BRANCH  12  13
DOCKED: ATOM     13  C   UNL     1      26.285 -17.160  -1.125 -0.56 -0.00    +0.000 C 
DOCKED: BRANCH  13  14
DOCKED: ATOM     14  C   UNL     1      25.321 -17.930  -0.198 -0.67 -0.00    +0.000 C 
DOCKED: BRANCH  14  15
DOCKED: ATOM     15  C   UNL     1      23.852 -17.536  -0.432 -0.70 -0.00    +0.000 C 
DOCKED: BRANCH  15  16
DOCKED: ATOM     16  C   UNL     1      22.875 -18.619   0.047 -0.73 -0.00    +0.000 C 
DOCKED: BRANCH  16  17
DOCKED: ATOM     17  C   UNL     1      21.569 -18.558  -0.691 -0.86 -0.00    +0.000 C 
DOCKED: ATOM     18  N   UNL     1      20.997 -19.743  -1.247 -0.75 -0.00    +0.000 N 
DOCKED: ATOM     19  O   UNL     1      19.812 -19.692  -1.899 -2.28 -0.00    +0.000 OA
DOCKED: ATOM     20  O   UNL     1      20.962 -17.458  -0.795 -2.02 -0.00    +0.000 OA
DOCKED: ATOM     21  H   UNL     1      21.467 -20.603  -1.156 -0.08 -0.00    +0.000 HD
DOCKED: ENDBRANCH  16  17
DOCKED: ENDBRANCH  15  16
DOCKED: ENDBRANCH  14  15
DOCKED: ENDBRANCH  13  14
DOCKED: ENDBRANCH  12  13
DOCKED: ENDBRANCH   1  12
DOCKED: TORSDOF 8
DOCKED: TER
DOCKED: ENDMDL
________________________________________________________________________________


	BEGINNING GENETIC ALGORITHM DOCKING 52 of 100
Run: 52 Seed: 1694247972 968003887 [ Run 52 of 100 GA/GALS ]
Beginning LAMARCKIAN GENETIC ALGORITHM (LGA), with a maximum of 2500000 energy evaluations.

Final-Value: -12.964


	FINAL GENETIC ALGORITHM DOCKED STATE
	_______________________________________________


Detailed state:  trans 28.011 -16.005 -1.059 quatxyzw -0.225069 0.033762 -0.287429 -0.930370 center 0.185 0.077 0.153 ntor 8 164.8027 152.0735 68.2634 -4.0956 -70.1372 -168.2511 148.4719 -81.4234
State:	 28.011 -16.005  -1.059  -0.614  0.092 -0.784 -43.015    164.80  152.07   68.26   -4.10  -70.14 -168.25  148.47  -81.42

DOCKED: MODEL       52
DOCKED: USER    Run = 52
DOCKED: USER    DPF = ligand_dock.biased.dpf
DOCKED: USER  
DOCKED: USER    Estimated Free Energy of Binding    =   -9.69 kcal/mol  [=(1)+(2)+(3)-(4)]
DOCKED: USER    Estimated Inhibition Constant, Ki   =   78.37 nM (nanomolar)  [Temperature = 298.15 K]
DOCKED: USER    
DOCKED: USER    (1) Final Intermolecular Energy     =  -12.08 kcal/mol
DOCKED: USER        vdW + Hbond + desolv Energy     =  -12.08 kcal/mol
DOCKED: USER        Electrostatic Energy            =   +0.00 kcal/mol
DOCKED: USER    (2) Final Total Internal Energy     =   -0.88 kcal/mol
DOCKED: USER    (3) Torsional Free Energy           =   +2.39 kcal/mol
DOCKED: USER    (4) Unbound System's Energy  [=(2)] =   -0.88 kcal/mol
DOCKED: USER    
DOCKED: USER    
DOCKED: USER    NEWDPF move ligand.pdbqt
DOCKED: USER    NEWDPF about 0.185000 0.077000 0.153000
DOCKED: USER    NEWDPF tran0 28.011387 -16.004832 -1.059424
DOCKED: USER    NEWDPF quaternion0 -0.225069 0.033762 -0.287429 -0.930370
DOCKED: USER    NEWDPF axisangle0 -0.613901 0.092090 -0.783993 -43.014817
DOCKED: USER    NEWDPF quat0 -0.613901 0.092090 -0.783993 -43.014817
DOCKED: USER    NEWDPF dihe0 164.80 152.07 68.26 -4.10 -70.14 -168.25 148.47 -81.42 
DOCKED: USER  keepresnum = 1 
DOCKED: USER  
DOCKED: REMARK  Name = 
DOCKED: REMARK  8 active torsions:
DOCKED: REMARK  status: ('A' for Active; 'I' for Inactive)
DOCKED: REMARK    1  A    between atoms: C_2  and  C_10
DOCKED: REMARK    2  A    between atoms: N_3  and  C_4
DOCKED: REMARK    3  A    between atoms: C_10  and  C_11
DOCKED: REMARK    4  A    between atoms: C_11  and  C_12
DOCKED: REMARK    5  A    between atoms: C_12  and  C_13
DOCKED: REMARK    6  A    between atoms: C_13  and  C_14
DOCKED: REMARK    7  A    between atoms: C_14  and  C_15
DOCKED: REMARK    8  A    between atoms: C_15  and  C_16
DOCKED: REMARK                            x       y       z     vdW  Elec       q    Type
DOCKED: REMARK                         _______ _______ _______ _____ _____    ______ ____
DOCKED: USER                              x       y       z     vdW  Elec       q    Type
DOCKED: USER                           _______ _______ _______ _____ _____    ______ ____
DOCKED: ROOT
DOCKED: ATOM      1  C   UNL     1      27.821 -15.826  -1.572 -0.30 -0.00    +0.000 C 
DOCKED: ENDROOT
DOCKED: BRANCH   1   3
DOCKED: ATOM      2  O   UNL     1      26.159 -14.187  -2.067 -0.34 -0.00    +0.000 OA
DOCKED: ATOM      3  C   UNL     1      27.039 -14.587  -1.256 -0.29 -0.00    +0.000 C 
DOCKED: ATOM      4  N   UNL     1      27.295 -13.868  -0.040 -0.23 -0.00    +0.000 N 
DOCKED: ATOM      5  H   UNL     1      27.856 -14.301   0.643 -0.02 -0.00    +0.000 HD
DOCKED: BRANCH   4   6
DOCKED: ATOM      6  C   UNL     1      26.785 -12.554   0.243 -0.22 -0.00    +0.000 A 
DOCKED: ATOM      7  C   UNL     1      27.132 -11.485  -0.599 -0.11 -0.00    +0.000 A 
DOCKED: ATOM      8  C   UNL     1      26.629 -10.203  -0.361 -0.16 +0.00    +0.000 A 
DOCKED: ATOM      9  C   UNL     1      25.762  -9.979   0.711 -0.34 +0.00    +0.000 A 
DOCKED: ATOM     10  C   UNL     1      25.390 -11.039   1.542 -0.36 +0.00    +0.000 A 
DOCKED: ATOM     11  C   UNL     1      25.893 -12.324   1.307 -0.32 +0.00    +0.000 A 
DOCKED: ENDBRANCH   4   6
DOCKED: ENDBRANCH   1   3
DOCKED: BRANCH   1  12
DOCKED: ATOM     12  C   UNL     1      27.475 -16.942  -0.580 -0.44 -0.00    +0.000 C 
DOCKED: BRANCH  12  13
DOCKED: ATOM     13  C   UNL     1      26.332 -17.847  -1.069 -0.53 -0.00    +0.000 C 
DOCKED: BRANCH  13  14
DOCKED: ATOM     14  C   UNL     1      24.971 -17.528  -0.414 -0.65 -0.00    +0.000 C 
DOCKED: BRANCH  14  15
DOCKED: ATOM     15  C   UNL     1      23.888 -18.552  -0.800 -0.80 -0.00    +0.000 C 
DOCKED: BRANCH  15  16
DOCKED: ATOM     16  C   UNL     1      22.613 -18.395   0.040 -0.77 -0.00    +0.000 C 
DOCKED: BRANCH  16  17
DOCKED: ATOM     17  C   UNL     1      21.376 -18.477  -0.805 -0.82 -0.00    +0.000 C 
DOCKED: ATOM     18  N   UNL     1      21.020 -19.702  -1.451 -0.75 -0.00    +0.000 N 
DOCKED: ATOM     19  O   UNL     1      19.897 -19.780  -2.201 -2.31 -0.00    +0.000 OA
DOCKED: ATOM     20  O   UNL     1      20.632 -17.466  -0.922 -2.08 -0.00    +0.000 OA
DOCKED: ATOM     21  H   UNL     1      21.596 -20.494  -1.349 -0.25 -0.00    +0.000 HD
DOCKED: ENDBRANCH  16  17
DOCKED: ENDBRANCH  15  16
DOCKED: ENDBRANCH  14  15
DOCKED: ENDBRANCH  13  14
DOCKED: ENDBRANCH  12  13
DOCKED: ENDBRANCH   1  12
DOCKED: TORSDOF 8
DOCKED: TER
DOCKED: ENDMDL
________________________________________________________________________________


	BEGINNING GENETIC ALGORITHM DOCKING 53 of 100
Run: 53 Seed: 390134358 336445632 [ Run 53 of 100 GA/GALS ]
Beginning LAMARCKIAN GENETIC ALGORITHM (LGA), with a maximum of 2500000 energy evaluations.

Final-Value: -13.284


	FINAL GENETIC ALGORITHM DOCKED STATE
	_______________________________________________


Detailed state:  trans 25.917 -16.185 -2.722 quatxyzw 0.522036 -0.487554 0.608936 0.344915 center 0.185 0.077 0.153 ntor 8 152.5884 22.8383 92.1163 19.9950 -165.1722 -172.9295 -165.7514 51.5830
State:	 25.917 -16.185  -2.722   0.556 -0.519  0.649 139.647    152.59   22.84   92.12   19.99 -165.17 -172.93 -165.75   51.58

DOCKED: MODEL       53
DOCKED: USER    Run = 53
DOCKED: USER    DPF = ligand_dock.biased.dpf
DOCKED: USER  
DOCKED: USER    Estimated Free Energy of Binding    =  -10.25 kcal/mol  [=(1)+(2)+(3)-(4)]
DOCKED: USER    Estimated Inhibition Constant, Ki   =   30.58 nM (nanomolar)  [Temperature = 298.15 K]
DOCKED: USER    
DOCKED: USER    (1) Final Intermolecular Energy     =  -12.64 kcal/mol
DOCKED: USER        vdW + Hbond + desolv Energy     =  -12.64 kcal/mol
DOCKED: USER        Electrostatic Energy            =   +0.00 kcal/mol
DOCKED: USER    (2) Final Total Internal Energy     =   -0.65 kcal/mol
DOCKED: USER    (3) Torsional Free Energy           =   +2.39 kcal/mol
DOCKED: USER    (4) Unbound System's Energy  [=(2)] =   -0.65 kcal/mol
DOCKED: USER    
DOCKED: USER    
DOCKED: USER    NEWDPF move ligand.pdbqt
DOCKED: USER    NEWDPF about 0.185000 0.077000 0.153000
DOCKED: USER    NEWDPF tran0 25.916802 -16.184542 -2.722371
DOCKED: USER    NEWDPF quaternion0 0.522036 -0.487554 0.608936 0.344915
DOCKED: USER    NEWDPF axisangle0 0.556166 -0.519429 0.648747 139.646728
DOCKED: USER    NEWDPF quat0 0.556166 -0.519429 0.648747 139.646728
DOCKED: USER    NEWDPF dihe0 152.59 22.84 92.12 19.99 -165.17 -172.93 -165.75 51.58 
DOCKED: USER  keepresnum = 1 
DOCKED: USER  
DOCKED: REMARK  Name = 
DOCKED: REMARK  8 active torsions:
DOCKED: REMARK  status: ('A' for Active; 'I' for Inactive)
DOCKED: REMARK    1  A    between atoms: C_2  and  C_10
DOCKED: REMARK    2  A    between atoms: N_3  and  C_4
DOCKED: REMARK    3  A    between atoms: C_10  and  C_11
DOCKED: REMARK    4  A    between atoms: C_11  and  C_12
DOCKED: REMARK    5  A    between atoms: C_12  and  C_13
DOCKED: REMARK    6  A    between atoms: C_13  and  C_14
DOCKED: REMARK    7  A    between atoms: C_14  and  C_15
DOCKED: REMARK    8  A    between atoms: C_15  and  C_16
DOCKED: REMARK                            x       y       z     vdW  Elec       q    Type
DOCKED: REMARK                         _______ _______ _______ _____ _____    ______ ____
DOCKED: USER                              x       y       z     vdW  Elec       q    Type
DOCKED: USER                           _______ _______ _______ _____ _____    ______ ____
DOCKED: ROOT
DOCKED: ATOM      1  C   UNL     1      25.544 -15.889  -3.046 -0.55 -0.00    +0.000 C 
DOCKED: ENDROOT
DOCKED: BRANCH   1   3
DOCKED: ATOM      2  O   UNL     1      26.317 -13.688  -3.548 -0.36 -0.00    +0.000 OA
DOCKED: ATOM      3  C   UNL     1      26.407 -14.921  -3.799 -0.50 -0.00    +0.000 C 
DOCKED: ATOM      4  N   UNL     1      27.323 -15.402  -4.794 -0.44 -0.00    +0.000 N 
DOCKED: ATOM      5  H   UNL     1      27.492 -16.371  -4.837 -0.02 +0.00    +0.000 HD
DOCKED: BRANCH   4   6
DOCKED: ATOM      6  C   UNL     1      28.010 -14.557  -5.733 -0.34 -0.00    +0.000 A 
DOCKED: ATOM      7  C   UNL     1      29.032 -15.099  -6.529 -0.29 -0.00    +0.000 A 
DOCKED: ATOM      8  C   UNL     1      29.697 -14.304  -7.466 -0.22 -0.00    +0.000 A 
DOCKED: ATOM      9  C   UNL     1      29.337 -12.965  -7.630 -0.22 -0.00    +0.000 A 
DOCKED: ATOM     10  C   UNL     1      28.306 -12.420  -6.861 -0.20 -0.00    +0.000 A 
DOCKED: ATOM     11  C   UNL     1      27.638 -13.212  -5.921 -0.17 -0.00    +0.000 A 
DOCKED: ENDBRANCH   4   6
DOCKED: ENDBRANCH   1   3
DOCKED: BRANCH   1  12
DOCKED: ATOM     12  C   UNL     1      25.954 -15.930  -1.569 -0.50 -0.00    +0.000 C 
DOCKED: BRANCH  12  13
DOCKED: ATOM     13  C   UNL     1      26.050 -17.362  -1.014 -0.59 -0.00    +0.000 C 
DOCKED: BRANCH  13  14
DOCKED: ATOM     14  C   UNL     1      24.884 -17.738  -0.076 -0.57 -0.00    +0.000 C 
DOCKED: BRANCH  14  15
DOCKED: ATOM     15  C   UNL     1      23.719 -18.399  -0.834 -0.81 -0.00    +0.000 C 
DOCKED: BRANCH  15  16
DOCKED: ATOM     16  C   UNL     1      22.440 -18.471   0.011 -0.78 -0.00    +0.000 C 
DOCKED: BRANCH  16  17
DOCKED: ATOM     17  C   UNL     1      21.218 -18.647  -0.842 -0.84 -0.00    +0.000 C 
DOCKED: ATOM     18  N   UNL     1      21.136 -19.727  -1.775 -0.61 -0.00    +0.000 N 
DOCKED: ATOM     19  O   UNL     1      20.028 -19.894  -2.534 -1.98 -0.00    +0.000 OA
DOCKED: ATOM     20  O   UNL     1      20.248 -17.853  -0.713 -2.18 +0.00    +0.000 OA
DOCKED: ATOM     21  H   UNL     1      21.890 -20.352  -1.867 -0.44 -0.00    +0.000 HD
DOCKED: ENDBRANCH  16  17
DOCKED: ENDBRANCH  15  16
DOCKED: ENDBRANCH  14  15
DOCKED: ENDBRANCH  13  14
DOCKED: ENDBRANCH  12  13
DOCKED: ENDBRANCH   1  12
DOCKED: TORSDOF 8
DOCKED: TER
DOCKED: ENDMDL
________________________________________________________________________________


	BEGINNING GENETIC ALGORITHM DOCKING 54 of 100
Run: 54 Seed: 928772176 320865435 [ Run 54 of 100 GA/GALS ]
Beginning LAMARCKIAN GENETIC ALGORITHM (LGA), with a maximum of 2500000 energy evaluations.

Final-Value: -14.896


	FINAL GENETIC ALGORITHM DOCKED STATE
	_______________________________________________


Detailed state:  trans 28.287 -16.022 0.115 quatxyzw 0.108227 0.133679 -0.403956 -0.898463 center 0.185 0.077 0.153 ntor 8 -164.5379 179.5887 78.7880 -20.0965 -45.4018 177.5904 173.2053 -76.7216
State:	 28.287 -16.022   0.115   0.247  0.304 -0.920 -52.086   -164.54  179.59   78.79  -20.10  -45.40  177.59  173.21  -76.72

DOCKED: MODEL       54
DOCKED: USER    Run = 54
DOCKED: USER    DPF = ligand_dock.biased.dpf
DOCKED: USER  
DOCKED: USER    Estimated Free Energy of Binding    =  -11.79 kcal/mol  [=(1)+(2)+(3)-(4)]
DOCKED: USER    Estimated Inhibition Constant, Ki   =    2.27 nM (nanomolar)  [Temperature = 298.15 K]
DOCKED: USER    
DOCKED: USER    (1) Final Intermolecular Energy     =  -14.18 kcal/mol
DOCKED: USER        vdW + Hbond + desolv Energy     =  -14.18 kcal/mol
DOCKED: USER        Electrostatic Energy            =   +0.00 kcal/mol
DOCKED: USER    (2) Final Total Internal Energy     =   -0.72 kcal/mol
DOCKED: USER    (3) Torsional Free Energy           =   +2.39 kcal/mol
DOCKED: USER    (4) Unbound System's Energy  [=(2)] =   -0.72 kcal/mol
DOCKED: USER    
DOCKED: USER    
DOCKED: USER    NEWDPF move ligand.pdbqt
DOCKED: USER    NEWDPF about 0.185000 0.077000 0.153000
DOCKED: USER    NEWDPF tran0 28.286916 -16.022104 0.115398
DOCKED: USER    NEWDPF quaternion0 0.108227 0.133679 -0.403956 -0.898463
DOCKED: USER    NEWDPF axisangle0 0.246503 0.304474 -0.920072 -52.086349
DOCKED: USER    NEWDPF quat0 0.246503 0.304474 -0.920072 -52.086349
DOCKED: USER    NEWDPF dihe0 -164.54 179.59 78.79 -20.10 -45.40 177.59 173.21 -76.72 
DOCKED: USER  keepresnum = 1 
DOCKED: USER  
DOCKED: REMARK  Name = 
DOCKED: REMARK  8 active torsions:
DOCKED: REMARK  status: ('A' for Active; 'I' for Inactive)
DOCKED: REMARK    1  A    between atoms: C_2  and  C_10
DOCKED: REMARK    2  A    between atoms: N_3  and  C_4
DOCKED: REMARK    3  A    between atoms: C_10  and  C_11
DOCKED: REMARK    4  A    between atoms: C_11  and  C_12
DOCKED: REMARK    5  A    between atoms: C_12  and  C_13
DOCKED: REMARK    6  A    between atoms: C_13  and  C_14
DOCKED: REMARK    7  A    between atoms: C_14  and  C_15
DOCKED: REMARK    8  A    between atoms: C_15  and  C_16
DOCKED: REMARK                            x       y       z     vdW  Elec       q    Type
DOCKED: REMARK                         _______ _______ _______ _____ _____    ______ ____
DOCKED: USER                              x       y       z     vdW  Elec       q    Type
DOCKED: USER                           _______ _______ _______ _____ _____    ______ ____
DOCKED: ROOT
DOCKED: ATOM      1  C   UNL     1      28.230 -15.524  -0.167 -0.27 -0.00    +0.000 C 
DOCKED: ENDROOT
DOCKED: BRANCH   1   3
DOCKED: ATOM      2  O   UNL     1      26.792 -13.798   0.637 -0.34 -0.00    +0.000 OA
DOCKED: ATOM      3  C   UNL     1      27.764 -14.563   0.885 -0.29 -0.00    +0.000 C 
DOCKED: ATOM      4  N   UNL     1      28.424 -14.520   2.160 -0.25 -0.00    +0.000 N 
DOCKED: ATOM      5  H   UNL     1      29.055 -15.243   2.378 -1.94 -0.00    +0.000 HD
DOCKED: BRANCH   4   6
DOCKED: ATOM      6  C   UNL     1      28.222 -13.485   3.138 -0.30 -0.00    +0.000 A 
DOCKED: ATOM      7  C   UNL     1      27.952 -12.176   2.708 -0.21 -0.00    +0.000 A 
DOCKED: ATOM      8  C   UNL     1      27.727 -11.157   3.638 -0.27 +0.00    +0.000 A 
DOCKED: ATOM      9  C   UNL     1      27.754 -11.440   5.006 -0.35 +0.00    +0.000 A 
DOCKED: ATOM     10  C   UNL     1      27.999 -12.743   5.445 -0.41 -0.00    +0.000 A 
DOCKED: ATOM     11  C   UNL     1      28.225 -13.765   4.517 -0.46 -0.00    +0.000 A 
DOCKED: ENDBRANCH   4   6
DOCKED: ENDBRANCH   1   3
DOCKED: BRANCH   1  12
DOCKED: ATOM     12  C   UNL     1      27.457 -16.843  -0.064 -0.38 -0.00    +0.000 C 
DOCKED: BRANCH  12  13
DOCKED: ATOM     13  C   UNL     1      26.269 -16.919  -1.038 -0.54 -0.00    +0.000 C 
DOCKED: BRANCH  13  14
DOCKED: ATOM     14  C   UNL     1      24.898 -16.994  -0.334 -0.43 -0.00    +0.000 C 
DOCKED: BRANCH  14  15
DOCKED: ATOM     15  C   UNL     1      23.871 -17.804  -1.146 -0.77 -0.00    +0.000 C 
DOCKED: BRANCH  15  16
DOCKED: ATOM     16  C   UNL     1      22.790 -18.432  -0.256 -0.81 -0.00    +0.000 C 
DOCKED: BRANCH  16  17
DOCKED: ATOM     17  C   UNL     1      21.462 -18.493  -0.952 -0.79 -0.00    +0.000 C 
DOCKED: ATOM     18  N   UNL     1      21.038 -19.696  -1.598 -0.71 -0.00    +0.000 N 
DOCKED: ATOM     19  O   UNL     1      19.834 -19.756  -2.212 -2.25 -0.00    +0.000 OA
DOCKED: ATOM     20  O   UNL     1      20.705 -17.485  -0.941 -2.08 -0.00    +0.000 OA
DOCKED: ATOM     21  H   UNL     1      21.626 -20.485  -1.596 -0.33 -0.00    +0.000 HD
DOCKED: ENDBRANCH  16  17
DOCKED: ENDBRANCH  15  16
DOCKED: ENDBRANCH  14  15
DOCKED: ENDBRANCH  13  14
DOCKED: ENDBRANCH  12  13
DOCKED: ENDBRANCH   1  12
DOCKED: TORSDOF 8
DOCKED: TER
DOCKED: ENDMDL
________________________________________________________________________________


	BEGINNING GENETIC ALGORITHM DOCKING 55 of 100
Run: 55 Seed: 1079615847 1895090665 [ Run 55 of 100 GA/GALS ]
Beginning LAMARCKIAN GENETIC ALGORITHM (LGA), with a maximum of 2500000 energy evaluations.

Final-Value: -13.672


	FINAL GENETIC ALGORITHM DOCKED STATE
	_______________________________________________


Detailed state:  trans 26.352 -14.309 -1.888 quatxyzw -0.403917 -0.407800 -0.249514 -0.779931 center 0.185 0.077 0.153 ntor 8 -156.2539 -76.0954 117.5380 86.3758 47.9224 -152.8541 -146.1897 -24.7437
State:	 26.352 -14.309  -1.888  -0.645 -0.652 -0.399 -77.491   -156.25  -76.10  117.54   86.38   47.92 -152.85 -146.19  -24.74

DOCKED: MODEL       55
DOCKED: USER    Run = 55
DOCKED: USER    DPF = ligand_dock.biased.dpf
DOCKED: USER  
DOCKED: USER    Estimated Free Energy of Binding    =  -10.46 kcal/mol  [=(1)+(2)+(3)-(4)]
DOCKED: USER    Estimated Inhibition Constant, Ki   =   21.58 nM (nanomolar)  [Temperature = 298.15 K]
DOCKED: USER    
DOCKED: USER    (1) Final Intermolecular Energy     =  -12.84 kcal/mol
DOCKED: USER        vdW + Hbond + desolv Energy     =  -12.84 kcal/mol
DOCKED: USER        Electrostatic Energy            =   +0.00 kcal/mol
DOCKED: USER    (2) Final Total Internal Energy     =   -0.83 kcal/mol
DOCKED: USER    (3) Torsional Free Energy           =   +2.39 kcal/mol
DOCKED: USER    (4) Unbound System's Energy  [=(2)] =   -0.83 kcal/mol
DOCKED: USER    
DOCKED: USER    
DOCKED: USER    NEWDPF move ligand.pdbqt
DOCKED: USER    NEWDPF about 0.185000 0.077000 0.153000
DOCKED: USER    NEWDPF tran0 26.351980 -14.309313 -1.887810
DOCKED: USER    NEWDPF quaternion0 -0.403917 -0.407800 -0.249514 -0.779931
DOCKED: USER    NEWDPF axisangle0 -0.645374 -0.651578 -0.398671 -77.491421
DOCKED: USER    NEWDPF quat0 -0.645374 -0.651578 -0.398671 -77.491421
DOCKED: USER    NEWDPF dihe0 -156.25 -76.10 117.54 86.38 47.92 -152.85 -146.19 -24.74 
DOCKED: USER  keepresnum = 1 
DOCKED: USER  
DOCKED: REMARK  Name = 
DOCKED: REMARK  8 active torsions:
DOCKED: REMARK  status: ('A' for Active; 'I' for Inactive)
DOCKED: REMARK    1  A    between atoms: C_2  and  C_10
DOCKED: REMARK    2  A    between atoms: N_3  and  C_4
DOCKED: REMARK    3  A    between atoms: C_10  and  C_11
DOCKED: REMARK    4  A    between atoms: C_11  and  C_12
DOCKED: REMARK    5  A    between atoms: C_12  and  C_13
DOCKED: REMARK    6  A    between atoms: C_13  and  C_14
DOCKED: REMARK    7  A    between atoms: C_14  and  C_15
DOCKED: REMARK    8  A    between atoms: C_15  and  C_16
DOCKED: REMARK                            x       y       z     vdW  Elec       q    Type
DOCKED: REMARK                         _______ _______ _______ _____ _____    ______ ____
DOCKED: USER                              x       y       z     vdW  Elec       q    Type
DOCKED: USER                           _______ _______ _______ _____ _____    ______ ____
DOCKED: ROOT
DOCKED: ATOM      1  C   UNL     1      26.563 -14.505  -2.386 -0.34 -0.00    +0.000 C 
DOCKED: ENDROOT
DOCKED: BRANCH   1   3
DOCKED: ATOM      2  O   UNL     1      24.775 -14.158  -3.927 -1.06 -0.00    +0.000 OA
DOCKED: ATOM      3  C   UNL     1      25.840 -13.703  -3.426 -0.35 -0.00    +0.000 C 
DOCKED: ATOM      4  N   UNL     1      26.362 -12.432  -3.842 -0.26 -0.00    +0.000 N 
DOCKED: ATOM      5  H   UNL     1      27.088 -12.034  -3.310 -0.00 -0.00    +0.000 HD
DOCKED: BRANCH   4   6
DOCKED: ATOM      6  C   UNL     1      25.891 -11.704  -4.989 -0.28 -0.00    +0.000 A 
DOCKED: ATOM      7  C   UNL     1      24.624 -11.098  -4.948 -0.35 -0.00    +0.000 A 
DOCKED: ATOM      8  C   UNL     1      24.155 -10.364  -6.040 -0.38 -0.00    +0.000 A 
DOCKED: ATOM      9  C   UNL     1      24.951 -10.215  -7.178 -0.32 -0.00    +0.000 A 
DOCKED: ATOM     10  C   UNL     1      26.222 -10.793  -7.222 -0.18 -0.00    +0.000 A 
DOCKED: ATOM     11  C   UNL     1      26.695 -11.529  -6.131 -0.16 -0.00    +0.000 A 
DOCKED: ENDBRANCH   4   6
DOCKED: ENDBRANCH   1   3
DOCKED: BRANCH   1  12
DOCKED: ATOM     12  C   UNL     1      25.582 -15.000  -1.318 -0.31 -0.00    +0.000 C 
DOCKED: BRANCH  12  13
DOCKED: ATOM     13  C   UNL     1      25.992 -16.352  -0.708 -0.50 -0.00    +0.000 C 
DOCKED: BRANCH  13  14
DOCKED: ATOM     14  C   UNL     1      25.491 -17.568  -1.516 -0.59 -0.00    +0.000 C 
DOCKED: BRANCH  14  15
DOCKED: ATOM     15  C   UNL     1      23.966 -17.540  -1.723 -0.61 -0.00    +0.000 C 
DOCKED: BRANCH  15  16
DOCKED: ATOM     16  C   UNL     1      23.227 -18.457  -0.739 -0.83 -0.00    +0.000 C 
DOCKED: BRANCH  16  17
DOCKED: ATOM     17  C   UNL     1      21.756 -18.515  -1.029 -0.80 -0.00    +0.000 C 
DOCKED: ATOM     18  N   UNL     1      21.184 -19.676  -1.637 -0.64 -0.00    +0.000 N 
DOCKED: ATOM     19  O   UNL     1      19.856 -19.735  -1.885 -2.37 -0.00    +0.000 OA
DOCKED: ATOM     20  O   UNL     1      21.017 -17.545  -0.708 -2.08 -0.00    +0.000 OA
DOCKED: ATOM     21  H   UNL     1      21.761 -20.437  -1.877 -0.44 -0.00    +0.000 HD
DOCKED: ENDBRANCH  16  17
DOCKED: ENDBRANCH  15  16
DOCKED: ENDBRANCH  14  15
DOCKED: ENDBRANCH  13  14
DOCKED: ENDBRANCH  12  13
DOCKED: ENDBRANCH   1  12
DOCKED: TORSDOF 8
DOCKED: TER
DOCKED: ENDMDL
________________________________________________________________________________


	BEGINNING GENETIC ALGORITHM DOCKING 56 of 100
Run: 56 Seed: 1121652958 1405571129 [ Run 56 of 100 GA/GALS ]
Beginning LAMARCKIAN GENETIC ALGORITHM (LGA), with a maximum of 2500000 energy evaluations.

Final-Value: -13.756


	FINAL GENETIC ALGORITHM DOCKED STATE
	_______________________________________________


Detailed state:  trans 26.364 -15.218 -3.029 quatxyzw 0.333094 0.890425 0.065804 0.303086 center 0.185 0.077 0.153 ntor 8 -49.5667 -77.6615 144.1145 -101.7807 -20.3748 -166.4333 -45.4826 -8.6068
State:	 26.364 -15.218  -3.029   0.350  0.934  0.069 144.714    -49.57  -77.66  144.11 -101.78  -20.37 -166.43  -45.48   -8.61

DOCKED: MODEL       56
DOCKED: USER    Run = 56
DOCKED: USER    DPF = ligand_dock.biased.dpf
DOCKED: USER  
DOCKED: USER    Estimated Free Energy of Binding    =  -10.61 kcal/mol  [=(1)+(2)+(3)-(4)]
DOCKED: USER    Estimated Inhibition Constant, Ki   =   16.80 nM (nanomolar)  [Temperature = 298.15 K]
DOCKED: USER    
DOCKED: USER    (1) Final Intermolecular Energy     =  -12.99 kcal/mol
DOCKED: USER        vdW + Hbond + desolv Energy     =  -12.99 kcal/mol
DOCKED: USER        Electrostatic Energy            =   +0.00 kcal/mol
DOCKED: USER    (2) Final Total Internal Energy     =   -0.76 kcal/mol
DOCKED: USER    (3) Torsional Free Energy           =   +2.39 kcal/mol
DOCKED: USER    (4) Unbound System's Energy  [=(2)] =   -0.76 kcal/mol
DOCKED: USER    
DOCKED: USER    
DOCKED: USER    NEWDPF move ligand.pdbqt
DOCKED: USER    NEWDPF about 0.185000 0.077000 0.153000
DOCKED: USER    NEWDPF tran0 26.364190 -15.218407 -3.028566
DOCKED: USER    NEWDPF quaternion0 0.333094 0.890425 0.065804 0.303086
DOCKED: USER    NEWDPF axisangle0 0.349535 0.934375 0.069052 144.713888
DOCKED: USER    NEWDPF quat0 0.349535 0.934375 0.069052 144.713888
DOCKED: USER    NEWDPF dihe0 -49.57 -77.66 144.11 -101.78 -20.37 -166.43 -45.48 -8.61 
DOCKED: USER  keepresnum = 1 
DOCKED: USER  
DOCKED: REMARK  Name = 
DOCKED: REMARK  8 active torsions:
DOCKED: REMARK  status: ('A' for Active; 'I' for Inactive)
DOCKED: REMARK    1  A    between atoms: C_2  and  C_10
DOCKED: REMARK    2  A    between atoms: N_3  and  C_4
DOCKED: REMARK    3  A    between atoms: C_10  and  C_11
DOCKED: REMARK    4  A    between atoms: C_11  and  C_12
DOCKED: REMARK    5  A    between atoms: C_12  and  C_13
DOCKED: REMARK    6  A    between atoms: C_13  and  C_14
DOCKED: REMARK    7  A    between atoms: C_14  and  C_15
DOCKED: REMARK    8  A    between atoms: C_15  and  C_16
DOCKED: REMARK                            x       y       z     vdW  Elec       q    Type
DOCKED: REMARK                         _______ _______ _______ _____ _____    ______ ____
DOCKED: USER                              x       y       z     vdW  Elec       q    Type
DOCKED: USER                           _______ _______ _______ _____ _____    ______ ____
DOCKED: ROOT
DOCKED: ATOM      1  C   UNL     1      26.911 -15.317  -2.877 -0.38 -0.00    +0.000 C 
DOCKED: ENDROOT
DOCKED: BRANCH   1   3
DOCKED: ATOM      2  O   UNL     1      26.990 -15.363  -5.261 -1.05 +0.00    +0.000 OA
DOCKED: ATOM      3  C   UNL     1      27.609 -15.563  -4.181 -0.36 -0.00    +0.000 C 
DOCKED: ATOM      4  N   UNL     1      28.971 -16.020  -4.189 -0.28 -0.00    +0.000 N 
DOCKED: ATOM      5  H   UNL     1      29.472 -15.995  -3.342 -0.00 -0.00    +0.000 HD
DOCKED: BRANCH   4   6
DOCKED: ATOM      6  C   UNL     1      29.647 -16.515  -5.357 -0.29 -0.00    +0.000 A 
DOCKED: ATOM      7  C   UNL     1      29.981 -15.622  -6.389 -0.30 -0.00    +0.000 A 
DOCKED: ATOM      8  C   UNL     1      30.661 -16.073  -7.523 -0.23 -0.00    +0.000 A 
DOCKED: ATOM      9  C   UNL     1      31.027 -17.417  -7.632 -0.29 -0.00    +0.000 A 
DOCKED: ATOM     10  C   UNL     1      30.722 -18.310  -6.602 -0.33 -0.00    +0.000 A 
DOCKED: ATOM     11  C   UNL     1      30.040 -17.862  -5.465 -0.29 -0.00    +0.000 A 
DOCKED: ENDBRANCH   4   6
DOCKED: ENDBRANCH   1   3
DOCKED: BRANCH   1  12
DOCKED: ATOM     12  C   UNL     1      25.583 -16.082  -2.832 -0.55 -0.00    +0.000 C 
DOCKED: BRANCH  12  13
DOCKED: ATOM     13  C   UNL     1      24.997 -16.182  -1.414 -0.53 -0.00    +0.000 C 
DOCKED: BRANCH  13  14
DOCKED: ATOM     14  C   UNL     1      25.271 -17.538  -0.728 -0.68 -0.00    +0.000 C 
DOCKED: BRANCH  14  15
DOCKED: ATOM     15  C   UNL     1      23.974 -18.234  -0.279 -0.77 -0.00    +0.000 C 
DOCKED: BRANCH  15  16
DOCKED: ATOM     16  C   UNL     1      23.166 -18.781  -1.463 -0.77 -0.00    +0.000 C 
DOCKED: BRANCH  16  17
DOCKED: ATOM     17  C   UNL     1      21.690 -18.750  -1.193 -0.72 -0.00    +0.000 C 
DOCKED: ATOM     18  N   UNL     1      20.833 -19.751  -1.746 -0.72 -0.00    +0.000 N 
DOCKED: ATOM     19  O   UNL     1      19.504 -19.732  -1.491 -2.09 -0.00    +0.000 OA
DOCKED: ATOM     20  O   UNL     1      21.210 -17.851  -0.451 -1.85 -0.00    +0.000 OA
DOCKED: ATOM     21  H   UNL     1      21.211 -20.458  -2.317 -0.50 -0.00    +0.000 HD
DOCKED: ENDBRANCH  16  17
DOCKED: ENDBRANCH  15  16
DOCKED: ENDBRANCH  14  15
DOCKED: ENDBRANCH  13  14
DOCKED: ENDBRANCH  12  13
DOCKED: ENDBRANCH   1  12
DOCKED: TORSDOF 8
DOCKED: TER
DOCKED: ENDMDL
________________________________________________________________________________


	BEGINNING GENETIC ALGORITHM DOCKING 57 of 100
Run: 57 Seed: 1733250579 1059096859 [ Run 57 of 100 GA/GALS ]
Beginning LAMARCKIAN GENETIC ALGORITHM (LGA), with a maximum of 2500000 energy evaluations.

Final-Value: -12.266


	FINAL GENETIC ALGORITHM DOCKED STATE
	_______________________________________________


Detailed state:  trans 25.747 -15.545 -3.235 quatxyzw 0.439415 -0.081970 0.615196 0.649407 center 0.185 0.077 0.153 ntor 8 -117.4696 -178.5898 11.4343 -8.4127 -139.0850 156.5799 19.1984 40.5687
State:	 25.747 -15.545  -3.235   0.578 -0.108  0.809 99.006   -117.47 -178.59   11.43   -8.41 -139.09  156.58   19.20   40.57

DOCKED: MODEL       57
DOCKED: USER    Run = 57
DOCKED: USER    DPF = ligand_dock.biased.dpf
DOCKED: USER  
DOCKED: USER    Estimated Free Energy of Binding    =   -9.19 kcal/mol  [=(1)+(2)+(3)-(4)]
DOCKED: USER    Estimated Inhibition Constant, Ki   =  182.82 nM (nanomolar)  [Temperature = 298.15 K]
DOCKED: USER    
DOCKED: USER    (1) Final Intermolecular Energy     =  -11.58 kcal/mol
DOCKED: USER        vdW + Hbond + desolv Energy     =  -11.58 kcal/mol
DOCKED: USER        Electrostatic Energy            =   +0.00 kcal/mol
DOCKED: USER    (2) Final Total Internal Energy     =   -0.69 kcal/mol
DOCKED: USER    (3) Torsional Free Energy           =   +2.39 kcal/mol
DOCKED: USER    (4) Unbound System's Energy  [=(2)] =   -0.69 kcal/mol
DOCKED: USER    
DOCKED: USER    
DOCKED: USER    NEWDPF move ligand.pdbqt
DOCKED: USER    NEWDPF about 0.185000 0.077000 0.153000
DOCKED: USER    NEWDPF tran0 25.747467 -15.544621 -3.234665
DOCKED: USER    NEWDPF quaternion0 0.439415 -0.081970 0.615196 0.649407
DOCKED: USER    NEWDPF axisangle0 0.577842 -0.107793 0.808999 99.006207
DOCKED: USER    NEWDPF quat0 0.577842 -0.107793 0.808999 99.006207
DOCKED: USER    NEWDPF dihe0 -117.47 -178.59 11.43 -8.41 -139.09 156.58 19.20 40.57 
DOCKED: USER  keepresnum = 1 
DOCKED: USER  
DOCKED: REMARK  Name = 
DOCKED: REMARK  8 active torsions:
DOCKED: REMARK  status: ('A' for Active; 'I' for Inactive)
DOCKED: REMARK    1  A    between atoms: C_2  and  C_10
DOCKED: REMARK    2  A    between atoms: N_3  and  C_4
DOCKED: REMARK    3  A    between atoms: C_10  and  C_11
DOCKED: REMARK    4  A    between atoms: C_11  and  C_12
DOCKED: REMARK    5  A    between atoms: C_12  and  C_13
DOCKED: REMARK    6  A    between atoms: C_13  and  C_14
DOCKED: REMARK    7  A    between atoms: C_14  and  C_15
DOCKED: REMARK    8  A    between atoms: C_15  and  C_16
DOCKED: REMARK                            x       y       z     vdW  Elec       q    Type
DOCKED: REMARK                         _______ _______ _______ _____ _____    ______ ____
DOCKED: USER                              x       y       z     vdW  Elec       q    Type
DOCKED: USER                           _______ _______ _______ _____ _____    ______ ____
DOCKED: ROOT
DOCKED: ATOM      1  C   UNL     1      25.592 -15.528  -3.789 -0.56 -0.00    +0.000 C 
DOCKED: ENDROOT
DOCKED: BRANCH   1   3
DOCKED: ATOM      2  O   UNL     1      27.178 -13.848  -4.385 -0.31 -0.00    +0.000 OA
DOCKED: ATOM      3  C   UNL     1      25.962 -14.142  -4.226 -0.49 -0.00    +0.000 C 
DOCKED: ATOM      4  N   UNL     1      24.935 -13.166  -4.459 -0.43 -0.00    +0.000 N 
DOCKED: ATOM      5  H   UNL     1      24.002 -13.477  -4.496 -0.48 -0.00    +0.000 HD
DOCKED: BRANCH   4   6
DOCKED: ATOM      6  C   UNL     1      25.184 -11.761  -4.639 -0.29 -0.00    +0.000 A 
DOCKED: ATOM      7  C   UNL     1      26.277 -11.167  -3.988 -0.19 -0.00    +0.000 A 
DOCKED: ATOM      8  C   UNL     1      26.556  -9.809  -4.167 -0.14 -0.00    +0.000 A 
DOCKED: ATOM      9  C   UNL     1      25.754  -9.035  -5.010 -0.16 -0.00    +0.000 A 
DOCKED: ATOM     10  C   UNL     1      24.678  -9.620  -5.681 -0.32 -0.00    +0.000 A 
DOCKED: ATOM     11  C   UNL     1      24.396 -10.979  -5.504 -0.36 -0.00    +0.000 A 
DOCKED: ENDBRANCH   4   6
DOCKED: ENDBRANCH   1   3
DOCKED: BRANCH   1  12
DOCKED: ATOM     12  C   UNL     1      24.885 -15.486  -2.429 -0.23 -0.00    +0.000 C 
DOCKED: BRANCH  12  13
DOCKED: ATOM     13  C   UNL     1      25.200 -16.711  -1.553 -0.62 -0.00    +0.000 C 
DOCKED: BRANCH  13  14
DOCKED: ATOM     14  C   UNL     1      23.960 -17.293  -0.841 -0.72 -0.00    +0.000 C 
DOCKED: BRANCH  14  15
DOCKED: ATOM     15  C   UNL     1      23.665 -18.738  -1.280 -0.77 -0.00    +0.000 C 
DOCKED: BRANCH  15  16
DOCKED: ATOM     16  C   UNL     1      22.682 -19.444  -0.336 -0.46 -0.00    +0.000 C 
DOCKED: BRANCH  16  17
DOCKED: ATOM     17  C   UNL     1      21.262 -19.036  -0.603 -0.87 -0.00    +0.000 C 
DOCKED: ATOM     18  N   UNL     1      20.200 -19.982  -0.465 -0.75 -0.00    +0.000 N 
DOCKED: ATOM     19  O   UNL     1      18.918 -19.611  -0.691 -1.29 -0.00    +0.000 OA
DOCKED: ATOM     20  O   UNL     1      21.005 -17.845  -0.923 -2.10 -0.00    +0.000 OA
DOCKED: ATOM     21  H   UNL     1      20.401 -20.910  -0.204 -0.05 -0.00    +0.000 HD
DOCKED: ENDBRANCH  16  17
DOCKED: ENDBRANCH  15  16
DOCKED: ENDBRANCH  14  15
DOCKED: ENDBRANCH  13  14
DOCKED: ENDBRANCH  12  13
DOCKED: ENDBRANCH   1  12
DOCKED: TORSDOF 8
DOCKED: TER
DOCKED: ENDMDL
________________________________________________________________________________


	BEGINNING GENETIC ALGORITHM DOCKING 58 of 100
Run: 58 Seed: 345317471 324025353 [ Run 58 of 100 GA/GALS ]
Beginning LAMARCKIAN GENETIC ALGORITHM (LGA), with a maximum of 2500000 energy evaluations.

Final-Value: -13.921


	FINAL GENETIC ALGORITHM DOCKED STATE
	_______________________________________________


Detailed state:  trans 25.727 -15.432 -3.092 quatxyzw -0.291103 0.788814 -0.519900 0.150782 center 0.185 0.077 0.153 ntor 8 -179.5964 144.9456 37.5662 9.2472 -75.9216 -155.8392 7.9731 85.0145
State:	 25.727 -15.432  -3.092  -0.294  0.798 -0.526 162.656   -179.60  144.95   37.57    9.25  -75.92 -155.84    7.97   85.01

DOCKED: MODEL       58
DOCKED: USER    Run = 58
DOCKED: USER    DPF = ligand_dock.biased.dpf
DOCKED: USER  
DOCKED: USER    Estimated Free Energy of Binding    =  -10.74 kcal/mol  [=(1)+(2)+(3)-(4)]
DOCKED: USER    Estimated Inhibition Constant, Ki   =   13.37 nM (nanomolar)  [Temperature = 298.15 K]
DOCKED: USER    
DOCKED: USER    (1) Final Intermolecular Energy     =  -13.13 kcal/mol
DOCKED: USER        vdW + Hbond + desolv Energy     =  -13.13 kcal/mol
DOCKED: USER        Electrostatic Energy            =   +0.00 kcal/mol
DOCKED: USER    (2) Final Total Internal Energy     =   -0.79 kcal/mol
DOCKED: USER    (3) Torsional Free Energy           =   +2.39 kcal/mol
DOCKED: USER    (4) Unbound System's Energy  [=(2)] =   -0.79 kcal/mol
DOCKED: USER    
DOCKED: USER    
DOCKED: USER    NEWDPF move ligand.pdbqt
DOCKED: USER    NEWDPF about 0.185000 0.077000 0.153000
DOCKED: USER    NEWDPF tran0 25.726544 -15.432253 -3.092138
DOCKED: USER    NEWDPF quaternion0 -0.291103 0.788814 -0.519900 0.150782
DOCKED: USER    NEWDPF axisangle0 -0.294470 0.797937 -0.525913 162.655525
DOCKED: USER    NEWDPF quat0 -0.294470 0.797937 -0.525913 162.655525
DOCKED: USER    NEWDPF dihe0 -179.60 144.95 37.57 9.25 -75.92 -155.84 7.97 85.01 
DOCKED: USER  keepresnum = 1 
DOCKED: USER  
DOCKED: REMARK  Name = 
DOCKED: REMARK  8 active torsions:
DOCKED: REMARK  status: ('A' for Active; 'I' for Inactive)
DOCKED: REMARK    1  A    between atoms: C_2  and  C_10
DOCKED: REMARK    2  A    between atoms: N_3  and  C_4
DOCKED: REMARK    3  A    between atoms: C_10  and  C_11
DOCKED: REMARK    4  A    between atoms: C_11  and  C_12
DOCKED: REMARK    5  A    between atoms: C_12  and  C_13
DOCKED: REMARK    6  A    between atoms: C_13  and  C_14
DOCKED: REMARK    7  A    between atoms: C_14  and  C_15
DOCKED: REMARK    8  A    between atoms: C_15  and  C_16
DOCKED: REMARK                            x       y       z     vdW  Elec       q    Type
DOCKED: REMARK                         _______ _______ _______ _____ _____    ______ ____
DOCKED: USER                              x       y       z     vdW  Elec       q    Type
DOCKED: USER                           _______ _______ _______ _____ _____    ______ ____
DOCKED: ROOT
DOCKED: ATOM      1  C   UNL     1      25.769 -14.884  -3.262 -0.52 -0.00    +0.000 C 
DOCKED: ENDROOT
DOCKED: BRANCH   1   3
DOCKED: ATOM      2  O   UNL     1      26.202 -15.604  -5.495 -1.19 +0.00    +0.000 OA
DOCKED: ATOM      3  C   UNL     1      26.616 -14.952  -4.498 -0.53 -0.00    +0.000 C 
DOCKED: ATOM      4  N   UNL     1      27.883 -14.277  -4.536 -0.26 -0.00    +0.000 N 
DOCKED: ATOM      5  H   UNL     1      28.090 -13.641  -3.814 +0.01 -0.00    +0.000 HD
DOCKED: BRANCH   4   6
DOCKED: ATOM      6  C   UNL     1      28.870 -14.476  -5.562 -0.28 -0.00    +0.000 A 
DOCKED: ATOM      7  C   UNL     1      29.523 -15.716  -5.659 -0.30 -0.00    +0.000 A 
DOCKED: ATOM      8  C   UNL     1      30.468 -15.942  -6.663 -0.28 -0.00    +0.000 A 
DOCKED: ATOM      9  C   UNL     1      30.760 -14.938  -7.590 -0.20 -0.00    +0.000 A 
DOCKED: ATOM     10  C   UNL     1      30.100 -13.709  -7.518 -0.20 -0.00    +0.000 A 
DOCKED: ATOM     11  C   UNL     1      29.154 -13.478  -6.514 -0.23 -0.00    +0.000 A 
DOCKED: ENDBRANCH   4   6
DOCKED: ENDBRANCH   1   3
DOCKED: BRANCH   1  12
DOCKED: ATOM     12  C   UNL     1      26.369 -15.761  -2.157 -0.45 -0.00    +0.000 C 
DOCKED: BRANCH  12  13
DOCKED: ATOM     13  C   UNL     1      25.645 -17.109  -2.003 -0.54 -0.00    +0.000 C 
DOCKED: BRANCH  13  14
DOCKED: ATOM     14  C   UNL     1      24.457 -17.062  -1.018 -0.68 -0.00    +0.000 C 
DOCKED: BRANCH  14  15
DOCKED: ATOM     15  C   UNL     1      23.771 -18.432  -0.872 -0.81 -0.00    +0.000 C 
DOCKED: BRANCH  15  16
DOCKED: ATOM     16  C   UNL     1      22.546 -18.374   0.052 -0.77 -0.00    +0.000 C 
DOCKED: BRANCH  16  17
DOCKED: ATOM     17  C   UNL     1      21.261 -18.428  -0.721 -0.82 -0.00    +0.000 C 
DOCKED: ATOM     18  N   UNL     1      20.730 -19.683  -1.153 -0.81 -0.00    +0.000 N 
DOCKED: ATOM     19  O   UNL     1      19.563 -19.734  -1.837 -2.18 -0.00    +0.000 OA
DOCKED: ATOM     20  O   UNL     1      20.635 -17.362  -0.966 -1.97 -0.00    +0.000 OA
DOCKED: ATOM     21  H   UNL     1      21.214 -20.515  -0.951 -0.13 -0.00    +0.000 HD
DOCKED: ENDBRANCH  16  17
DOCKED: ENDBRANCH  15  16
DOCKED: ENDBRANCH  14  15
DOCKED: ENDBRANCH  13  14
DOCKED: ENDBRANCH  12  13
DOCKED: ENDBRANCH   1  12
DOCKED: TORSDOF 8
DOCKED: TER
DOCKED: ENDMDL
________________________________________________________________________________


	BEGINNING GENETIC ALGORITHM DOCKING 59 of 100
Run: 59 Seed: 109422802 2050847801 [ Run 59 of 100 GA/GALS ]
Beginning LAMARCKIAN GENETIC ALGORITHM (LGA), with a maximum of 2500000 energy evaluations.

Final-Value: -14.326


	FINAL GENETIC ALGORITHM DOCKED STATE
	_______________________________________________


Detailed state:  trans 27.295 -15.281 -0.029 quatxyzw -0.195637 -0.260385 0.465533 0.822924 center 0.185 0.077 0.153 ntor 8 -109.5194 180.0000 180.0000 59.4300 61.2183 152.1158 171.9594 -9.3633
State:	 27.295 -15.281  -0.029  -0.344 -0.458  0.819 69.243   -109.52  180.00  180.00   59.43   61.22  152.12  171.96   -9.36

DOCKED: MODEL       59
DOCKED: USER    Run = 59
DOCKED: USER    DPF = ligand_dock.biased.dpf
DOCKED: USER  
DOCKED: USER    Estimated Free Energy of Binding    =  -11.26 kcal/mol  [=(1)+(2)+(3)-(4)]
DOCKED: USER    Estimated Inhibition Constant, Ki   =    5.62 nM (nanomolar)  [Temperature = 298.15 K]
DOCKED: USER    
DOCKED: USER    (1) Final Intermolecular Energy     =  -13.64 kcal/mol
DOCKED: USER        vdW + Hbond + desolv Energy     =  -13.64 kcal/mol
DOCKED: USER        Electrostatic Energy            =   +0.00 kcal/mol
DOCKED: USER    (2) Final Total Internal Energy     =   -0.68 kcal/mol
DOCKED: USER    (3) Torsional Free Energy           =   +2.39 kcal/mol
DOCKED: USER    (4) Unbound System's Energy  [=(2)] =   -0.68 kcal/mol
DOCKED: USER    
DOCKED: USER    
DOCKED: USER    NEWDPF move ligand.pdbqt
DOCKED: USER    NEWDPF about 0.185000 0.077000 0.153000
DOCKED: USER    NEWDPF tran0 27.294862 -15.280735 -0.028598
DOCKED: USER    NEWDPF quaternion0 -0.195637 -0.260385 0.465533 0.822924
DOCKED: USER    NEWDPF axisangle0 -0.344340 -0.458303 0.819383 69.242830
DOCKED: USER    NEWDPF quat0 -0.344340 -0.458303 0.819383 69.242830
DOCKED: USER    NEWDPF dihe0 -109.52 180.00 180.00 59.43 61.22 152.12 171.96 -9.36 
DOCKED: USER  keepresnum = 1 
DOCKED: USER  
DOCKED: REMARK  Name = 
DOCKED: REMARK  8 active torsions:
DOCKED: REMARK  status: ('A' for Active; 'I' for Inactive)
DOCKED: REMARK    1  A    between atoms: C_2  and  C_10
DOCKED: REMARK    2  A    between atoms: N_3  and  C_4
DOCKED: REMARK    3  A    between atoms: C_10  and  C_11
DOCKED: REMARK    4  A    between atoms: C_11  and  C_12
DOCKED: REMARK    5  A    between atoms: C_12  and  C_13
DOCKED: REMARK    6  A    between atoms: C_13  and  C_14
DOCKED: REMARK    7  A    between atoms: C_14  and  C_15
DOCKED: REMARK    8  A    between atoms: C_15  and  C_16
DOCKED: REMARK                            x       y       z     vdW  Elec       q    Type
DOCKED: REMARK                         _______ _______ _______ _____ _____    ______ ____
DOCKED: USER                              x       y       z     vdW  Elec       q    Type
DOCKED: USER                           _______ _______ _______ _____ _____    ______ ____
DOCKED: ROOT
DOCKED: ATOM      1  C   UNL     1      27.288 -14.722  -0.165 -0.30 -0.00    +0.000 C 
DOCKED: ENDROOT
DOCKED: BRANCH   1   3
DOCKED: ATOM      2  O   UNL     1      26.373 -13.079   1.303 -0.40 -0.00    +0.000 OA
DOCKED: ATOM      3  C   UNL     1      27.193 -14.026   1.160 -0.28 -0.00    +0.000 C 
DOCKED: ATOM      4  N   UNL     1      28.033 -14.441   2.249 -0.31 -0.00    +0.000 N 
DOCKED: ATOM      5  H   UNL     1      28.527 -15.287   2.154 -1.52 -0.00    +0.000 HD
DOCKED: BRANCH   4   6
DOCKED: ATOM      6  C   UNL     1      28.197 -13.697   3.468 -0.35 -0.00    +0.000 A 
DOCKED: ATOM      7  C   UNL     1      28.131 -12.295   3.433 -0.24 -0.00    +0.000 A 
DOCKED: ATOM      8  C   UNL     1      28.263 -11.550   4.608 -0.28 +0.00    +0.000 A 
DOCKED: ATOM      9  C   UNL     1      28.446 -12.199   5.831 -0.36 +0.00    +0.000 A 
DOCKED: ATOM     10  C   UNL     1      28.490 -13.594   5.882 -0.37 -0.00    +0.000 A 
DOCKED: ATOM     11  C   UNL     1      28.360 -14.343   4.708 -0.50 -0.00    +0.000 A 
DOCKED: ENDBRANCH   4   6
DOCKED: ENDBRANCH   1   3
DOCKED: BRANCH   1  12
DOCKED: ATOM     12  C   UNL     1      26.306 -15.898  -0.221 -0.28 -0.00    +0.000 C 
DOCKED: BRANCH  12  13
DOCKED: ATOM     13  C   UNL     1      26.063 -16.408  -1.651 -0.52 -0.00    +0.000 C 
DOCKED: BRANCH  13  14
DOCKED: ATOM     14  C   UNL     1      24.597 -16.806  -1.922 -0.57 -0.00    +0.000 C 
DOCKED: BRANCH  14  15
DOCKED: ATOM     15  C   UNL     1      23.978 -17.581  -0.745 -0.75 -0.00    +0.000 C 
DOCKED: BRANCH  15  16
DOCKED: ATOM     16  C   UNL     1      23.359 -18.914  -1.185 -0.79 -0.00    +0.000 C 
DOCKED: BRANCH  16  17
DOCKED: ATOM     17  C   UNL     1      21.864 -18.907  -1.046 -0.83 -0.00    +0.000 C 
DOCKED: ATOM     18  N   UNL     1      21.056 -19.730  -1.889 -0.60 -0.00    +0.000 N 
DOCKED: ATOM     19  O   UNL     1      19.709 -19.736  -1.754 -2.26 -0.00    +0.000 OA
DOCKED: ATOM     20  O   UNL     1      21.324 -18.192  -0.160 -1.53 -0.00    +0.000 OA
DOCKED: ATOM     21  H   UNL     1      21.480 -20.297  -2.573 -0.59 -0.00    +0.000 HD
DOCKED: ENDBRANCH  16  17
DOCKED: ENDBRANCH  15  16
DOCKED: ENDBRANCH  14  15
DOCKED: ENDBRANCH  13  14
DOCKED: ENDBRANCH  12  13
DOCKED: ENDBRANCH   1  12
DOCKED: TORSDOF 8
DOCKED: TER
DOCKED: ENDMDL
________________________________________________________________________________


	BEGINNING GENETIC ALGORITHM DOCKING 60 of 100
Run: 60 Seed: 630298455 2070639531 [ Run 60 of 100 GA/GALS ]
Beginning LAMARCKIAN GENETIC ALGORITHM (LGA), with a maximum of 2500000 energy evaluations.

Final-Value: -13.824


	FINAL GENETIC ALGORITHM DOCKED STATE
	_______________________________________________


Detailed state:  trans 25.179 -15.610 -3.229 quatxyzw -0.311465 0.705690 -0.634659 0.046891 center 0.185 0.077 0.153 ntor 8 -119.4666 129.7836 158.2200 -58.0323 178.5036 154.0416 23.7325 98.5597
State:	 25.179 -15.610  -3.229  -0.312  0.706 -0.635 174.625   -119.47  129.78  158.22  -58.03  178.50  154.04   23.73   98.56

DOCKED: MODEL       60
DOCKED: USER    Run = 60
DOCKED: USER    DPF = ligand_dock.biased.dpf
DOCKED: USER  
DOCKED: USER    Estimated Free Energy of Binding    =  -10.56 kcal/mol  [=(1)+(2)+(3)-(4)]
DOCKED: USER    Estimated Inhibition Constant, Ki   =   18.12 nM (nanomolar)  [Temperature = 298.15 K]
DOCKED: USER    
DOCKED: USER    (1) Final Intermolecular Energy     =  -12.95 kcal/mol
DOCKED: USER        vdW + Hbond + desolv Energy     =  -12.95 kcal/mol
DOCKED: USER        Electrostatic Energy            =   +0.00 kcal/mol
DOCKED: USER    (2) Final Total Internal Energy     =   -0.88 kcal/mol
DOCKED: USER    (3) Torsional Free Energy           =   +2.39 kcal/mol
DOCKED: USER    (4) Unbound System's Energy  [=(2)] =   -0.88 kcal/mol
DOCKED: USER    
DOCKED: USER    
DOCKED: USER    NEWDPF move ligand.pdbqt
DOCKED: USER    NEWDPF about 0.185000 0.077000 0.153000
DOCKED: USER    NEWDPF tran0 25.179014 -15.609850 -3.229475
DOCKED: USER    NEWDPF quaternion0 -0.311465 0.705690 -0.634659 0.046891
DOCKED: USER    NEWDPF axisangle0 -0.311808 0.706467 -0.635358 174.624760
DOCKED: USER    NEWDPF quat0 -0.311808 0.706467 -0.635358 174.624760
DOCKED: USER    NEWDPF dihe0 -119.47 129.78 158.22 -58.03 178.50 154.04 23.73 98.56 
DOCKED: USER  keepresnum = 1 
DOCKED: USER  
DOCKED: REMARK  Name = 
DOCKED: REMARK  8 active torsions:
DOCKED: REMARK  status: ('A' for Active; 'I' for Inactive)
DOCKED: REMARK    1  A    between atoms: C_2  and  C_10
DOCKED: REMARK    2  A    between atoms: N_3  and  C_4
DOCKED: REMARK    3  A    between atoms: C_10  and  C_11
DOCKED: REMARK    4  A    between atoms: C_11  and  C_12
DOCKED: REMARK    5  A    between atoms: C_12  and  C_13
DOCKED: REMARK    6  A    between atoms: C_13  and  C_14
DOCKED: REMARK    7  A    between atoms: C_14  and  C_15
DOCKED: REMARK    8  A    between atoms: C_15  and  C_16
DOCKED: REMARK                            x       y       z     vdW  Elec       q    Type
DOCKED: REMARK                         _______ _______ _______ _____ _____    ______ ____
DOCKED: USER                              x       y       z     vdW  Elec       q    Type
DOCKED: USER                           _______ _______ _______ _____ _____    ______ ____
DOCKED: ROOT
DOCKED: ATOM      1  C   UNL     1      25.144 -15.106  -3.506 -0.38 -0.00    +0.000 C 
DOCKED: ENDROOT
DOCKED: BRANCH   1   3
DOCKED: ATOM      2  O   UNL     1      26.022 -15.869  -5.588 -1.11 +0.00    +0.000 OA
DOCKED: ATOM      3  C   UNL     1      26.221 -15.188  -4.546 -0.58 -0.00    +0.000 C 
DOCKED: ATOM      4  N   UNL     1      27.463 -14.494  -4.348 -0.31 -0.00    +0.000 N 
DOCKED: ATOM      5  H   UNL     1      27.514 -13.838  -3.617 +0.00 -0.00    +0.000 HD
DOCKED: BRANCH   4   6
DOCKED: ATOM      6  C   UNL     1      28.637 -14.700  -5.152 -0.28 -0.00    +0.000 A 
DOCKED: ATOM      7  C   UNL     1      29.489 -15.778  -4.863 -0.25 -0.00    +0.000 A 
DOCKED: ATOM      8  C   UNL     1      30.623 -16.014  -5.645 -0.21 -0.00    +0.000 A 
DOCKED: ATOM      9  C   UNL     1      30.909 -15.185  -6.732 -0.21 -0.00    +0.000 A 
DOCKED: ATOM     10  C   UNL     1      30.056 -14.123  -7.044 -0.24 -0.00    +0.000 A 
DOCKED: ATOM     11  C   UNL     1      28.921 -13.883  -6.263 -0.27 -0.00    +0.000 A 
DOCKED: ENDBRANCH   4   6
DOCKED: ENDBRANCH   1   3
DOCKED: BRANCH   1  12
DOCKED: ATOM     12  C   UNL     1      25.670 -15.605  -2.155 -0.51 -0.00    +0.000 C 
DOCKED: BRANCH  12  13
DOCKED: ATOM     13  C   UNL     1      25.505 -17.123  -1.972 -0.57 -0.00    +0.000 C 
DOCKED: BRANCH  13  14
DOCKED: ATOM     14  C   UNL     1      25.051 -17.527  -0.553 -0.67 -0.00    +0.000 C 
DOCKED: BRANCH  14  15
DOCKED: ATOM     15  C   UNL     1      23.559 -17.236  -0.316 -0.57 -0.00    +0.000 C 
DOCKED: BRANCH  15  16
DOCKED: ATOM     16  C   UNL     1      22.745 -18.516  -0.084 -0.78 -0.00    +0.000 C 
DOCKED: BRANCH  16  17
DOCKED: ATOM     17  C   UNL     1      21.473 -18.521  -0.880 -0.82 -0.00    +0.000 C 
DOCKED: ATOM     18  N   UNL     1      20.991 -19.732  -1.467 -0.75 -0.00    +0.000 N 
DOCKED: ATOM     19  O   UNL     1      19.836 -19.740  -2.172 -2.28 -0.00    +0.000 OA
DOCKED: ATOM     20  O   UNL     1      20.812 -17.455  -1.007 -2.01 -0.00    +0.000 OA
DOCKED: ATOM     21  H   UNL     1      21.502 -20.566  -1.357 -0.17 -0.00    +0.000 HD
DOCKED: ENDBRANCH  16  17
DOCKED: ENDBRANCH  15  16
DOCKED: ENDBRANCH  14  15
DOCKED: ENDBRANCH  13  14
DOCKED: ENDBRANCH  12  13
DOCKED: ENDBRANCH   1  12
DOCKED: TORSDOF 8
DOCKED: TER
DOCKED: ENDMDL
________________________________________________________________________________


	BEGINNING GENETIC ALGORITHM DOCKING 61 of 100
Run: 61 Seed: 308890781 1652852413 [ Run 61 of 100 GA/GALS ]
Beginning LAMARCKIAN GENETIC ALGORITHM (LGA), with a maximum of 2500000 energy evaluations.

Final-Value: -12.233


	FINAL GENETIC ALGORITHM DOCKED STATE
	_______________________________________________


Detailed state:  trans 27.630 -17.508 -0.351 quatxyzw -0.189056 -0.473485 -0.488384 -0.708202 center 0.185 0.077 0.153 ntor 8 21.7716 160.8871 156.3219 26.6937 -177.2249 68.9312 -1.8935 154.1899
State:	 27.630 -17.508  -0.351  -0.268 -0.671 -0.692 -89.822     21.77  160.89  156.32   26.69 -177.22   68.93   -1.89  154.19

DOCKED: MODEL       61
DOCKED: USER    Run = 61
DOCKED: USER    DPF = ligand_dock.biased.dpf
DOCKED: USER  
DOCKED: USER    Estimated Free Energy of Binding    =   -8.86 kcal/mol  [=(1)+(2)+(3)-(4)]
DOCKED: USER    Estimated Inhibition Constant, Ki   =  322.23 nM (nanomolar)  [Temperature = 298.15 K]
DOCKED: USER    
DOCKED: USER    (1) Final Intermolecular Energy     =  -11.24 kcal/mol
DOCKED: USER        vdW + Hbond + desolv Energy     =  -11.24 kcal/mol
DOCKED: USER        Electrostatic Energy            =   +0.00 kcal/mol
DOCKED: USER    (2) Final Total Internal Energy     =   -0.99 kcal/mol
DOCKED: USER    (3) Torsional Free Energy           =   +2.39 kcal/mol
DOCKED: USER    (4) Unbound System's Energy  [=(2)] =   -0.99 kcal/mol
DOCKED: USER    
DOCKED: USER    
DOCKED: USER    NEWDPF move ligand.pdbqt
DOCKED: USER    NEWDPF about 0.185000 0.077000 0.153000
DOCKED: USER    NEWDPF tran0 27.629528 -17.508471 -0.350703
DOCKED: USER    NEWDPF quaternion0 -0.189056 -0.473485 -0.488384 -0.708202
DOCKED: USER    NEWDPF axisangle0 -0.267782 -0.670650 -0.691753 -89.822297
DOCKED: USER    NEWDPF quat0 -0.267782 -0.670650 -0.691753 -89.822297
DOCKED: USER    NEWDPF dihe0 21.77 160.89 156.32 26.69 -177.22 68.93 -1.89 154.19 
DOCKED: USER  keepresnum = 1 
DOCKED: USER  
DOCKED: REMARK  Name = 
DOCKED: REMARK  8 active torsions:
DOCKED: REMARK  status: ('A' for Active; 'I' for Inactive)
DOCKED: REMARK    1  A    between atoms: C_2  and  C_10
DOCKED: REMARK    2  A    between atoms: N_3  and  C_4
DOCKED: REMARK    3  A    between atoms: C_10  and  C_11
DOCKED: REMARK    4  A    between atoms: C_11  and  C_12
DOCKED: REMARK    5  A    between atoms: C_12  and  C_13
DOCKED: REMARK    6  A    between atoms: C_13  and  C_14
DOCKED: REMARK    7  A    between atoms: C_14  and  C_15
DOCKED: REMARK    8  A    between atoms: C_15  and  C_16
DOCKED: REMARK                            x       y       z     vdW  Elec       q    Type
DOCKED: REMARK                         _______ _______ _______ _____ _____    ______ ____
DOCKED: USER                              x       y       z     vdW  Elec       q    Type
DOCKED: USER                           _______ _______ _______ _____ _____    ______ ____
DOCKED: ROOT
DOCKED: ATOM      1  C   UNL     1      28.038 -17.554  -0.754 -0.35 -0.00    +0.000 C 
DOCKED: ENDROOT
DOCKED: BRANCH   1   3
DOCKED: ATOM      2  O   UNL     1      27.982 -15.171  -0.865 -0.23 -0.00    +0.000 OA
DOCKED: ATOM      3  C   UNL     1      27.952 -16.258  -1.503 -0.33 -0.00    +0.000 C 
DOCKED: ATOM      4  N   UNL     1      27.837 -16.265  -2.935 -0.28 -0.00    +0.000 N 
DOCKED: ATOM      5  H   UNL     1      27.994 -17.114  -3.407 +0.01 -0.00    +0.000 HD
DOCKED: BRANCH   4   6
DOCKED: ATOM      6  C   UNL     1      27.506 -15.108  -3.722 -0.31 -0.00    +0.000 A 
DOCKED: ATOM      7  C   UNL     1      26.372 -14.350  -3.388 -0.37 -0.00    +0.000 A 
DOCKED: ATOM      8  C   UNL     1      26.043 -13.207  -4.122 -0.35 -0.00    +0.000 A 
DOCKED: ATOM      9  C   UNL     1      26.851 -12.801  -5.186 -0.20 -0.00    +0.000 A 
DOCKED: ATOM     10  C   UNL     1      27.995 -13.534  -5.513 -0.25 -0.00    +0.000 A 
DOCKED: ATOM     11  C   UNL     1      28.327 -14.679  -4.781 -0.28 -0.00    +0.000 A 
DOCKED: ENDBRANCH   4   6
DOCKED: ENDBRANCH   1   3
DOCKED: BRANCH   1  12
DOCKED: ATOM     12  C   UNL     1      26.636 -18.126  -0.516 -0.57 -0.00    +0.000 C 
DOCKED: BRANCH  12  13
DOCKED: ATOM     13  C   UNL     1      25.567 -17.035  -0.335 -0.51 -0.00    +0.000 C 
DOCKED: BRANCH  13  14
DOCKED: ATOM     14  C   UNL     1      24.265 -17.313  -1.117 -0.71 -0.00    +0.000 C 
DOCKED: BRANCH  14  15
DOCKED: ATOM     15  C   UNL     1      23.360 -18.326  -0.395 -0.81 -0.00    +0.000 C 
DOCKED: BRANCH  15  16
DOCKED: ATOM     16  C   UNL     1      22.346 -18.981  -1.343 -0.75 -0.00    +0.000 C 
DOCKED: BRANCH  16  17
DOCKED: ATOM     17  C   UNL     1      20.978 -19.055  -0.731 -0.89 -0.00    +0.000 C 
DOCKED: ATOM     18  N   UNL     1      20.683 -20.036   0.267 -0.68 -0.00    +0.000 N 
DOCKED: ATOM     19  O   UNL     1      19.454 -20.093   0.829 -0.80 -0.00    +0.000 OA
DOCKED: ATOM     20  O   UNL     1      20.093 -18.228  -1.080 -1.97 -0.00    +0.000 OA
DOCKED: ATOM     21  H   UNL     1      21.379 -20.673   0.546 -0.60 -0.00    +0.000 HD
DOCKED: ENDBRANCH  16  17
DOCKED: ENDBRANCH  15  16
DOCKED: ENDBRANCH  14  15
DOCKED: ENDBRANCH  13  14
DOCKED: ENDBRANCH  12  13
DOCKED: ENDBRANCH   1  12
DOCKED: TORSDOF 8
DOCKED: TER
DOCKED: ENDMDL
________________________________________________________________________________


	BEGINNING GENETIC ALGORITHM DOCKING 62 of 100
Run: 62 Seed: 301066492 369507200 [ Run 62 of 100 GA/GALS ]
Beginning LAMARCKIAN GENETIC ALGORITHM (LGA), with a maximum of 2500000 energy evaluations.

Final-Value: -13.378


	FINAL GENETIC ALGORITHM DOCKED STATE
	_______________________________________________


Detailed state:  trans 27.383 -15.208 -0.162 quatxyzw 0.501655 -0.127747 -0.702065 -0.489007 center 0.185 0.077 0.153 ntor 8 -85.0696 177.9564 98.9388 159.1602 -125.7695 -46.0975 -105.2452 59.5767
State:	 27.383 -15.208  -0.162   0.575 -0.146 -0.805 -121.449    -85.07  177.96   98.94  159.16 -125.77  -46.10 -105.25   59.58

DOCKED: MODEL       62
DOCKED: USER    Run = 62
DOCKED: USER    DPF = ligand_dock.biased.dpf
DOCKED: USER  
DOCKED: USER    Estimated Free Energy of Binding    =  -10.15 kcal/mol  [=(1)+(2)+(3)-(4)]
DOCKED: USER    Estimated Inhibition Constant, Ki   =   36.18 nM (nanomolar)  [Temperature = 298.15 K]
DOCKED: USER    
DOCKED: USER    (1) Final Intermolecular Energy     =  -12.54 kcal/mol
DOCKED: USER        vdW + Hbond + desolv Energy     =  -12.54 kcal/mol
DOCKED: USER        Electrostatic Energy            =   +0.00 kcal/mol
DOCKED: USER    (2) Final Total Internal Energy     =   -0.84 kcal/mol
DOCKED: USER    (3) Torsional Free Energy           =   +2.39 kcal/mol
DOCKED: USER    (4) Unbound System's Energy  [=(2)] =   -0.84 kcal/mol
DOCKED: USER    
DOCKED: USER    
DOCKED: USER    NEWDPF move ligand.pdbqt
DOCKED: USER    NEWDPF about 0.185000 0.077000 0.153000
DOCKED: USER    NEWDPF tran0 27.383077 -15.208443 -0.161603
DOCKED: USER    NEWDPF quaternion0 0.501655 -0.127747 -0.702065 -0.489007
DOCKED: USER    NEWDPF axisangle0 0.575107 -0.146452 -0.804862 -121.449340
DOCKED: USER    NEWDPF quat0 0.575107 -0.146452 -0.804862 -121.449340
DOCKED: USER    NEWDPF dihe0 -85.07 177.96 98.94 159.16 -125.77 -46.10 -105.25 59.58 
DOCKED: USER  keepresnum = 1 
DOCKED: USER  
DOCKED: REMARK  Name = 
DOCKED: REMARK  8 active torsions:
DOCKED: REMARK  status: ('A' for Active; 'I' for Inactive)
DOCKED: REMARK    1  A    between atoms: C_2  and  C_10
DOCKED: REMARK    2  A    between atoms: N_3  and  C_4
DOCKED: REMARK    3  A    between atoms: C_10  and  C_11
DOCKED: REMARK    4  A    between atoms: C_11  and  C_12
DOCKED: REMARK    5  A    between atoms: C_12  and  C_13
DOCKED: REMARK    6  A    between atoms: C_13  and  C_14
DOCKED: REMARK    7  A    between atoms: C_14  and  C_15
DOCKED: REMARK    8  A    between atoms: C_15  and  C_16
DOCKED: REMARK                            x       y       z     vdW  Elec       q    Type
DOCKED: REMARK                         _______ _______ _______ _____ _____    ______ ____
DOCKED: USER                              x       y       z     vdW  Elec       q    Type
DOCKED: USER                           _______ _______ _______ _____ _____    ______ ____
DOCKED: ROOT
DOCKED: ATOM      1  C   UNL     1      27.884 -14.965  -0.018 -0.27 -0.00    +0.000 C 
DOCKED: ENDROOT
DOCKED: BRANCH   1   3
DOCKED: ATOM      2  O   UNL     1      26.602 -13.490   1.351 -0.37 -0.00    +0.000 OA
DOCKED: ATOM      3  C   UNL     1      27.591 -14.269   1.278 -0.29 -0.00    +0.000 C 
DOCKED: ATOM      4  N   UNL     1      28.434 -14.494   2.419 -0.27 -0.00    +0.000 N 
DOCKED: ATOM      5  H   UNL     1      29.081 -15.234   2.376 -1.94 -0.00    +0.000 HD
DOCKED: BRANCH   4   6
DOCKED: ATOM      6  C   UNL     1      28.391 -13.705   3.620 -0.35 -0.00    +0.000 A 
DOCKED: ATOM      7  C   UNL     1      28.110 -12.332   3.531 -0.25 -0.00    +0.000 A 
DOCKED: ATOM      8  C   UNL     1      28.038 -11.548   4.686 -0.31 +0.00    +0.000 A 
DOCKED: ATOM      9  C   UNL     1      28.232 -12.130   5.941 -0.37 +0.00    +0.000 A 
DOCKED: ATOM     10  C   UNL     1      28.489 -13.500   6.043 -0.35 -0.00    +0.000 A 
DOCKED: ATOM     11  C   UNL     1      28.562 -14.287   4.889 -0.48 -0.00    +0.000 A 
DOCKED: ENDBRANCH   4   6
DOCKED: ENDBRANCH   1   3
DOCKED: BRANCH   1  12
DOCKED: ATOM     12  C   UNL     1      26.763 -14.701  -1.030 -0.32 -0.00    +0.000 C 
DOCKED: BRANCH  12  13
DOCKED: ATOM     13  C   UNL     1      26.185 -15.992  -1.634 -0.48 -0.00    +0.000 C 
DOCKED: BRANCH  13  14
DOCKED: ATOM     14  C   UNL     1      26.457 -17.248  -0.779 -0.56 -0.00    +0.000 C 
DOCKED: BRANCH  14  15
DOCKED: ATOM     15  C   UNL     1      25.183 -18.082  -0.552 -0.71 -0.00    +0.000 C 
DOCKED: BRANCH  15  16
DOCKED: ATOM     16  C   UNL     1      23.910 -17.227  -0.607 -0.67 -0.00    +0.000 C 
DOCKED: BRANCH  16  17
DOCKED: ATOM     17  C   UNL     1      22.675 -18.074  -0.712 -0.82 -0.00    +0.000 C 
DOCKED: ATOM     18  N   UNL     1      21.380 -17.467  -0.709 -0.69 -0.00    +0.000 N 
DOCKED: ATOM     19  O   UNL     1      20.267 -18.229  -0.819 -2.15 -0.00    +0.000 OA
DOCKED: ATOM     20  O   UNL     1      22.783 -19.324  -0.831 -0.83 -0.00    +0.000 OA
DOCKED: ATOM     21  H   UNL     1      21.298 -16.490  -0.628 -0.07 +0.00    +0.000 HD
DOCKED: ENDBRANCH  16  17
DOCKED: ENDBRANCH  15  16
DOCKED: ENDBRANCH  14  15
DOCKED: ENDBRANCH  13  14
DOCKED: ENDBRANCH  12  13
DOCKED: ENDBRANCH   1  12
DOCKED: TORSDOF 8
DOCKED: TER
DOCKED: ENDMDL
________________________________________________________________________________


	BEGINNING GENETIC ALGORITHM DOCKING 63 of 100
Run: 63 Seed: 1864085792 1433222213 [ Run 63 of 100 GA/GALS ]
Beginning LAMARCKIAN GENETIC ALGORITHM (LGA), with a maximum of 2500000 energy evaluations.

Final-Value: -12.621


	FINAL GENETIC ALGORITHM DOCKED STATE
	_______________________________________________


Detailed state:  trans 26.646 -15.788 -3.192 quatxyzw -0.340861 0.564514 -0.726220 -0.194275 center 0.185 0.077 0.153 ntor 8 -98.7927 -16.6792 -174.8513 88.7726 -50.4071 -138.6722 -155.5864 49.9169
State:	 26.646 -15.788  -3.192  -0.347  0.575 -0.740 -157.595    -98.79  -16.68 -174.85   88.77  -50.41 -138.67 -155.59   49.92

DOCKED: MODEL       63
DOCKED: USER    Run = 63
DOCKED: USER    DPF = ligand_dock.biased.dpf
DOCKED: USER  
DOCKED: USER    Estimated Free Energy of Binding    =   -9.55 kcal/mol  [=(1)+(2)+(3)-(4)]
DOCKED: USER    Estimated Inhibition Constant, Ki   =  100.75 nM (nanomolar)  [Temperature = 298.15 K]
DOCKED: USER    
DOCKED: USER    (1) Final Intermolecular Energy     =  -11.93 kcal/mol
DOCKED: USER        vdW + Hbond + desolv Energy     =  -11.93 kcal/mol
DOCKED: USER        Electrostatic Energy            =   +0.00 kcal/mol
DOCKED: USER    (2) Final Total Internal Energy     =   -0.69 kcal/mol
DOCKED: USER    (3) Torsional Free Energy           =   +2.39 kcal/mol
DOCKED: USER    (4) Unbound System's Energy  [=(2)] =   -0.69 kcal/mol
DOCKED: USER    
DOCKED: USER    
DOCKED: USER    NEWDPF move ligand.pdbqt
DOCKED: USER    NEWDPF about 0.185000 0.077000 0.153000
DOCKED: USER    NEWDPF tran0 26.645864 -15.788116 -3.192475
DOCKED: USER    NEWDPF quaternion0 -0.340861 0.564514 -0.726220 -0.194275
DOCKED: USER    NEWDPF axisangle0 -0.347481 0.575479 -0.740325 -157.595261
DOCKED: USER    NEWDPF quat0 -0.347481 0.575479 -0.740325 -157.595261
DOCKED: USER    NEWDPF dihe0 -98.79 -16.68 -174.85 88.77 -50.41 -138.67 -155.59 49.92 
DOCKED: USER  keepresnum = 1 
DOCKED: USER  
DOCKED: REMARK  Name = 
DOCKED: REMARK  8 active torsions:
DOCKED: REMARK  status: ('A' for Active; 'I' for Inactive)
DOCKED: REMARK    1  A    between atoms: C_2  and  C_10
DOCKED: REMARK    2  A    between atoms: N_3  and  C_4
DOCKED: REMARK    3  A    between atoms: C_10  and  C_11
DOCKED: REMARK    4  A    between atoms: C_11  and  C_12
DOCKED: REMARK    5  A    between atoms: C_12  and  C_13
DOCKED: REMARK    6  A    between atoms: C_13  and  C_14
DOCKED: REMARK    7  A    between atoms: C_14  and  C_15
DOCKED: REMARK    8  A    between atoms: C_15  and  C_16
DOCKED: REMARK                            x       y       z     vdW  Elec       q    Type
DOCKED: REMARK                         _______ _______ _______ _____ _____    ______ ____
DOCKED: USER                              x       y       z     vdW  Elec       q    Type
DOCKED: USER                           _______ _______ _______ _____ _____    ______ ____
DOCKED: ROOT
DOCKED: ATOM      1  C   UNL     1      26.517 -15.376  -3.573 -0.49 -0.00    +0.000 C 
DOCKED: ENDROOT
DOCKED: BRANCH   1   3
DOCKED: ATOM      2  O   UNL     1      28.445 -13.994  -3.834 -0.16 -0.00    +0.000 OA
DOCKED: ATOM      3  C   UNL     1      27.837 -15.037  -4.199 -0.35 -0.00    +0.000 C 
DOCKED: ATOM      4  N   UNL     1      28.395 -15.897  -5.205 -0.36 -0.00    +0.000 N 
DOCKED: ATOM      5  H   UNL     1      27.984 -16.782  -5.335 +0.04 +0.00    +0.000 HD
DOCKED: BRANCH   4   6
DOCKED: ATOM      6  C   UNL     1      29.515 -15.546  -6.034 -0.32 -0.00    +0.000 A 
DOCKED: ATOM      7  C   UNL     1      30.582 -16.450  -6.169 -0.27 -0.00    +0.000 A 
DOCKED: ATOM      8  C   UNL     1      31.671 -16.142  -6.989 -0.18 -0.00    +0.000 A 
DOCKED: ATOM      9  C   UNL     1      31.698 -14.937  -7.695 -0.17 -0.00    +0.000 A 
DOCKED: ATOM     10  C   UNL     1      30.632 -14.040  -7.587 -0.17 -0.00    +0.000 A 
DOCKED: ATOM     11  C   UNL     1      29.541 -14.344  -6.767 -0.29 -0.00    +0.000 A 
DOCKED: ENDBRANCH   4   6
DOCKED: ENDBRANCH   1   3
DOCKED: BRANCH   1  12
DOCKED: ATOM     12  C   UNL     1      26.663 -15.485  -2.051 -0.39 -0.00    +0.000 C 
DOCKED: BRANCH  12  13
DOCKED: ATOM     13  C   UNL     1      25.919 -16.696  -1.463 -0.56 -0.00    +0.000 C 
DOCKED: BRANCH  13  14
DOCKED: ATOM     14  C   UNL     1      24.383 -16.539  -1.471 -0.56 -0.00    +0.000 C 
DOCKED: BRANCH  14  15
DOCKED: ATOM     15  C   UNL     1      23.710 -17.368  -0.363 -0.64 -0.00    +0.000 C 
DOCKED: BRANCH  15  16
DOCKED: ATOM     16  C   UNL     1      23.179 -18.711  -0.882 -0.82 -0.00    +0.000 C 
DOCKED: BRANCH  16  17
DOCKED: ATOM     17  C   UNL     1      21.681 -18.721  -0.974 -0.83 -0.00    +0.000 C 
DOCKED: ATOM     18  N   UNL     1      21.011 -19.714  -1.755 -0.69 -0.00    +0.000 N 
DOCKED: ATOM     19  O   UNL     1      19.660 -19.732  -1.826 -2.24 -0.00    +0.000 OA
DOCKED: ATOM     20  O   UNL     1      21.011 -17.865  -0.337 -1.94 +0.00    +0.000 OA
DOCKED: ATOM     21  H   UNL     1      21.535 -20.388  -2.243 -0.54 -0.00    +0.000 HD
DOCKED: ENDBRANCH  16  17
DOCKED: ENDBRANCH  15  16
DOCKED: ENDBRANCH  14  15
DOCKED: ENDBRANCH  13  14
DOCKED: ENDBRANCH  12  13
DOCKED: ENDBRANCH   1  12
DOCKED: TORSDOF 8
DOCKED: TER
DOCKED: ENDMDL
________________________________________________________________________________


	BEGINNING GENETIC ALGORITHM DOCKING 64 of 100
Run: 64 Seed: 1625467451 904477385 [ Run 64 of 100 GA/GALS ]
Beginning LAMARCKIAN GENETIC ALGORITHM (LGA), with a maximum of 2500000 energy evaluations.

Final-Value: -12.859


	FINAL GENETIC ALGORITHM DOCKED STATE
	_______________________________________________


Detailed state:  trans 27.258 -15.840 -2.521 quatxyzw 0.539229 0.238921 0.342989 0.731100 center 0.185 0.077 0.153 ntor 8 22.9203 151.7454 179.9269 114.8317 -55.5988 122.8910 128.3331 -77.0662
State:	 27.258 -15.840  -2.521   0.790  0.350  0.503 86.043     22.92  151.75  179.93  114.83  -55.60  122.89  128.33  -77.07

DOCKED: MODEL       64
DOCKED: USER    Run = 64
DOCKED: USER    DPF = ligand_dock.biased.dpf
DOCKED: USER  
DOCKED: USER    Estimated Free Energy of Binding    =   -9.65 kcal/mol  [=(1)+(2)+(3)-(4)]
DOCKED: USER    Estimated Inhibition Constant, Ki   =   84.42 nM (nanomolar)  [Temperature = 298.15 K]
DOCKED: USER    
DOCKED: USER    (1) Final Intermolecular Energy     =  -12.04 kcal/mol
DOCKED: USER        vdW + Hbond + desolv Energy     =  -12.04 kcal/mol
DOCKED: USER        Electrostatic Energy            =   +0.00 kcal/mol
DOCKED: USER    (2) Final Total Internal Energy     =   -0.82 kcal/mol
DOCKED: USER    (3) Torsional Free Energy           =   +2.39 kcal/mol
DOCKED: USER    (4) Unbound System's Energy  [=(2)] =   -0.82 kcal/mol
DOCKED: USER    
DOCKED: USER    
DOCKED: USER    NEWDPF move ligand.pdbqt
DOCKED: USER    NEWDPF about 0.185000 0.077000 0.153000
DOCKED: USER    NEWDPF tran0 27.257533 -15.840351 -2.521304
DOCKED: USER    NEWDPF quaternion0 0.539229 0.238921 0.342989 0.731100
DOCKED: USER    NEWDPF axisangle0 0.790345 0.350185 0.502717 86.042614
DOCKED: USER    NEWDPF quat0 0.790345 0.350185 0.502717 86.042614
DOCKED: USER    NEWDPF dihe0 22.92 151.75 179.93 114.83 -55.60 122.89 128.33 -77.07 
DOCKED: USER  keepresnum = 1 
DOCKED: USER  
DOCKED: REMARK  Name = 
DOCKED: REMARK  8 active torsions:
DOCKED: REMARK  status: ('A' for Active; 'I' for Inactive)
DOCKED: REMARK    1  A    between atoms: C_2  and  C_10
DOCKED: REMARK    2  A    between atoms: N_3  and  C_4
DOCKED: REMARK    3  A    between atoms: C_10  and  C_11
DOCKED: REMARK    4  A    between atoms: C_11  and  C_12
DOCKED: REMARK    5  A    between atoms: C_12  and  C_13
DOCKED: REMARK    6  A    between atoms: C_13  and  C_14
DOCKED: REMARK    7  A    between atoms: C_14  and  C_15
DOCKED: REMARK    8  A    between atoms: C_15  and  C_16
DOCKED: REMARK                            x       y       z     vdW  Elec       q    Type
DOCKED: REMARK                         _______ _______ _______ _____ _____    ______ ____
DOCKED: USER                              x       y       z     vdW  Elec       q    Type
DOCKED: USER                           _______ _______ _______ _____ _____    ______ ____
DOCKED: ROOT
DOCKED: ATOM      1  C   UNL     1      27.255 -16.127  -3.020 -0.23 -0.00    +0.000 C 
DOCKED: ENDROOT
DOCKED: BRANCH   1   3
DOCKED: ATOM      2  O   UNL     1      26.520 -15.493  -5.200 -1.13 +0.00    +0.000 OA
DOCKED: ATOM      3  C   UNL     1      26.690 -15.142  -4.000 -0.50 -0.00    +0.000 C 
DOCKED: ATOM      4  N   UNL     1      26.350 -13.816  -3.568 -0.34 -0.00    +0.000 N 
DOCKED: ATOM      5  H   UNL     1      26.330 -13.636  -2.600 -0.01 -0.00    +0.000 HD
DOCKED: BRANCH   4   6
DOCKED: ATOM      6  C   UNL     1      26.038 -12.733  -4.461 -0.32 -0.00    +0.000 A 
DOCKED: ATOM      7  C   UNL     1      27.003 -12.304  -5.387 -0.20 -0.00    +0.000 A 
DOCKED: ATOM      8  C   UNL     1      26.715 -11.271  -6.282 -0.17 -0.00    +0.000 A 
DOCKED: ATOM      9  C   UNL     1      25.456 -10.665  -6.272 -0.27 -0.00    +0.000 A 
DOCKED: ATOM     10  C   UNL     1      24.480 -11.099  -5.371 -0.36 -0.00    +0.000 A 
DOCKED: ATOM     11  C   UNL     1      24.765 -12.133  -4.473 -0.14 -0.00    +0.000 A 
DOCKED: ENDBRANCH   4   6
DOCKED: ENDBRANCH   1   3
DOCKED: BRANCH   1  12
DOCKED: ATOM     12  C   UNL     1      26.429 -16.125  -1.728 -0.46 -0.00    +0.000 C 
DOCKED: BRANCH  12  13
DOCKED: ATOM     13  C   UNL     1      25.369 -17.239  -1.693 -0.61 -0.00    +0.000 C 
DOCKED: BRANCH  13  14
DOCKED: ATOM     14  C   UNL     1      24.378 -17.109  -0.517 -0.58 -0.00    +0.000 C 
DOCKED: BRANCH  14  15
DOCKED: ATOM     15  C   UNL     1      23.690 -18.445  -0.188 -0.74 -0.00    +0.000 C 
DOCKED: BRANCH  15  16
DOCKED: ATOM     16  C   UNL     1      22.670 -18.855  -1.259 -0.78 -0.00    +0.000 C 
DOCKED: BRANCH  16  17
DOCKED: ATOM     17  C   UNL     1      21.264 -18.813  -0.736 -0.87 -0.00    +0.000 C 
DOCKED: ATOM     18  N   UNL     1      20.790 -19.836   0.143 -0.70 -0.00    +0.000 N 
DOCKED: ATOM     19  O   UNL     1      19.527 -19.791   0.628 -0.84 -0.00    +0.000 OA
DOCKED: ATOM     20  O   UNL     1      20.509 -17.855  -1.052 -2.21 -0.00    +0.000 OA
DOCKED: ATOM     21  H   UNL     1      21.385 -20.577   0.398 -0.59 -0.00    +0.000 HD
DOCKED: ENDBRANCH  16  17
DOCKED: ENDBRANCH  15  16
DOCKED: ENDBRANCH  14  15
DOCKED: ENDBRANCH  13  14
DOCKED: ENDBRANCH  12  13
DOCKED: ENDBRANCH   1  12
DOCKED: TORSDOF 8
DOCKED: TER
DOCKED: ENDMDL
________________________________________________________________________________


	BEGINNING GENETIC ALGORITHM DOCKING 65 of 100
Run: 65 Seed: 2020140075 501641622 [ Run 65 of 100 GA/GALS ]
Beginning LAMARCKIAN GENETIC ALGORITHM (LGA), with a maximum of 2500000 energy evaluations.

Final-Value: -13.162


	FINAL GENETIC ALGORITHM DOCKED STATE
	_______________________________________________


Detailed state:  trans 25.700 -15.789 -3.570 quatxyzw -0.372180 0.583149 -0.673510 -0.260392 center 0.185 0.077 0.153 ntor 8 -51.6405 -177.3871 166.9403 170.8635 -98.2554 133.1251 179.9087 52.5998
State:	 25.700 -15.789  -3.570  -0.385  0.604 -0.698 -149.813    -51.64 -177.39  166.94  170.86  -98.26  133.13  179.91   52.60

DOCKED: MODEL       65
DOCKED: USER    Run = 65
DOCKED: USER    DPF = ligand_dock.biased.dpf
DOCKED: USER  
DOCKED: USER    Estimated Free Energy of Binding    =  -10.06 kcal/mol  [=(1)+(2)+(3)-(4)]
DOCKED: USER    Estimated Inhibition Constant, Ki   =   41.97 nM (nanomolar)  [Temperature = 298.15 K]
DOCKED: USER    
DOCKED: USER    (1) Final Intermolecular Energy     =  -12.45 kcal/mol
DOCKED: USER        vdW + Hbond + desolv Energy     =  -12.45 kcal/mol
DOCKED: USER        Electrostatic Energy            =   +0.00 kcal/mol
DOCKED: USER    (2) Final Total Internal Energy     =   -0.71 kcal/mol
DOCKED: USER    (3) Torsional Free Energy           =   +2.39 kcal/mol
DOCKED: USER    (4) Unbound System's Energy  [=(2)] =   -0.71 kcal/mol
DOCKED: USER    
DOCKED: USER    
DOCKED: USER    NEWDPF move ligand.pdbqt
DOCKED: USER    NEWDPF about 0.185000 0.077000 0.153000
DOCKED: USER    NEWDPF tran0 25.700351 -15.788587 -3.569917
DOCKED: USER    NEWDPF quaternion0 -0.372180 0.583149 -0.673510 -0.260392
DOCKED: USER    NEWDPF axisangle0 -0.385477 0.603984 -0.697574 -149.813380
DOCKED: USER    NEWDPF quat0 -0.385477 0.603984 -0.697574 -149.813380
DOCKED: USER    NEWDPF dihe0 -51.64 -177.39 166.94 170.86 -98.26 133.13 179.91 52.60 
DOCKED: USER  keepresnum = 1 
DOCKED: USER  
DOCKED: REMARK  Name = 
DOCKED: REMARK  8 active torsions:
DOCKED: REMARK  status: ('A' for Active; 'I' for Inactive)
DOCKED: REMARK    1  A    between atoms: C_2  and  C_10
DOCKED: REMARK    2  A    between atoms: N_3  and  C_4
DOCKED: REMARK    3  A    between atoms: C_10  and  C_11
DOCKED: REMARK    4  A    between atoms: C_11  and  C_12
DOCKED: REMARK    5  A    between atoms: C_12  and  C_13
DOCKED: REMARK    6  A    between atoms: C_13  and  C_14
DOCKED: REMARK    7  A    between atoms: C_14  and  C_15
DOCKED: REMARK    8  A    between atoms: C_15  and  C_16
DOCKED: REMARK                            x       y       z     vdW  Elec       q    Type
DOCKED: REMARK                         _______ _______ _______ _____ _____    ______ ____
DOCKED: USER                              x       y       z     vdW  Elec       q    Type
DOCKED: USER                           _______ _______ _______ _____ _____    ______ ____
DOCKED: ROOT
DOCKED: ATOM      1  C   UNL     1      25.508 -15.356  -3.897 -0.56 -0.00    +0.000 C 
DOCKED: ENDROOT
DOCKED: BRANCH   1   3
DOCKED: ATOM      2  O   UNL     1      26.971 -13.530  -4.359 -0.31 -0.00    +0.000 OA
DOCKED: ATOM      3  C   UNL     1      26.754 -14.765  -4.486 -0.49 -0.00    +0.000 C 
DOCKED: ATOM      4  N   UNL     1      27.684 -15.606  -5.187 -0.43 +0.00    +0.000 N 
DOCKED: ATOM      5  H   UNL     1      27.571 -16.581  -5.114 +0.04 +0.00    +0.000 HD
DOCKED: BRANCH   4   6
DOCKED: ATOM      6  C   UNL     1      28.770 -15.112  -5.989 -0.36 -0.00    +0.000 A 
DOCKED: ATOM      7  C   UNL     1      28.638 -13.872  -6.637 -0.29 -0.00    +0.000 A 
DOCKED: ATOM      8  C   UNL     1      29.689 -13.359  -7.402 -0.22 -0.00    +0.000 A 
DOCKED: ATOM      9  C   UNL     1      30.886 -14.070  -7.516 -0.18 -0.00    +0.000 A 
DOCKED: ATOM     10  C   UNL     1      31.037 -15.293  -6.857 -0.21 -0.00    +0.000 A 
DOCKED: ATOM     11  C   UNL     1      29.987 -15.811  -6.091 -0.29 -0.00    +0.000 A 
DOCKED: ENDBRANCH   4   6
DOCKED: ENDBRANCH   1   3
DOCKED: BRANCH   1  12
DOCKED: ATOM     12  C   UNL     1      25.701 -15.623  -2.400 -0.52 -0.00    +0.000 C 
DOCKED: BRANCH  12  13
DOCKED: ATOM     13  C   UNL     1      25.203 -17.014  -1.970 -0.62 -0.00    +0.000 C 
DOCKED: BRANCH  13  14
DOCKED: ATOM     14  C   UNL     1      24.932 -17.130  -0.456 -0.55 -0.00    +0.000 C 
DOCKED: BRANCH  14  15
DOCKED: ATOM     15  C   UNL     1      23.971 -18.286  -0.125 -0.73 -0.00    +0.000 C 
DOCKED: BRANCH  15  16
DOCKED: ATOM     16  C   UNL     1      23.224 -18.795  -1.365 -0.78 -0.00    +0.000 C 
DOCKED: BRANCH  16  17
DOCKED: ATOM     17  C   UNL     1      21.737 -18.779  -1.165 -0.75 -0.00    +0.000 C 
DOCKED: ATOM     18  N   UNL     1      20.908 -19.737  -1.828 -0.71 -0.00    +0.000 N 
DOCKED: ATOM     19  O   UNL     1      19.568 -19.733  -1.636 -2.15 -0.00    +0.000 OA
DOCKED: ATOM     20  O   UNL     1      21.220 -17.934  -0.386 -1.80 -0.00    +0.000 OA
DOCKED: ATOM     21  H   UNL     1      21.314 -20.404  -2.428 -0.54 -0.00    +0.000 HD
DOCKED: ENDBRANCH  16  17
DOCKED: ENDBRANCH  15  16
DOCKED: ENDBRANCH  14  15
DOCKED: ENDBRANCH  13  14
DOCKED: ENDBRANCH  12  13
DOCKED: ENDBRANCH   1  12
DOCKED: TORSDOF 8
DOCKED: TER
DOCKED: ENDMDL
________________________________________________________________________________


	BEGINNING GENETIC ALGORITHM DOCKING 66 of 100
Run: 66 Seed: 41310947 1703875707 [ Run 66 of 100 GA/GALS ]
Beginning LAMARCKIAN GENETIC ALGORITHM (LGA), with a maximum of 2500000 energy evaluations.

Final-Value: -12.628


	FINAL GENETIC ALGORITHM DOCKED STATE
	_______________________________________________


Detailed state:  trans 26.251 -14.512 -3.603 quatxyzw -0.247926 -0.963318 0.101091 0.018200 center 0.185 0.077 0.153 ntor 8 -109.9525 128.7559 -155.9026 33.3583 -30.7937 97.7804 118.0031 -86.3587
State:	 26.251 -14.512  -3.603  -0.248 -0.963  0.101 177.914   -109.95  128.76 -155.90   33.36  -30.79   97.78  118.00  -86.36

DOCKED: MODEL       66
DOCKED: USER    Run = 66
DOCKED: USER    DPF = ligand_dock.biased.dpf
DOCKED: USER  
DOCKED: USER    Estimated Free Energy of Binding    =   -9.45 kcal/mol  [=(1)+(2)+(3)-(4)]
DOCKED: USER    Estimated Inhibition Constant, Ki   =  117.75 nM (nanomolar)  [Temperature = 298.15 K]
DOCKED: USER    
DOCKED: USER    (1) Final Intermolecular Energy     =  -11.84 kcal/mol
DOCKED: USER        vdW + Hbond + desolv Energy     =  -11.84 kcal/mol
DOCKED: USER        Electrostatic Energy            =   +0.00 kcal/mol
DOCKED: USER    (2) Final Total Internal Energy     =   -0.79 kcal/mol
DOCKED: USER    (3) Torsional Free Energy           =   +2.39 kcal/mol
DOCKED: USER    (4) Unbound System's Energy  [=(2)] =   -0.79 kcal/mol
DOCKED: USER    
DOCKED: USER    
DOCKED: USER    NEWDPF move ligand.pdbqt
DOCKED: USER    NEWDPF about 0.185000 0.077000 0.153000
DOCKED: USER    NEWDPF tran0 26.251411 -14.512175 -3.603138
DOCKED: USER    NEWDPF quaternion0 -0.247926 -0.963318 0.101091 0.018200
DOCKED: USER    NEWDPF axisangle0 -0.247967 -0.963478 0.101108 177.914298
DOCKED: USER    NEWDPF quat0 -0.247967 -0.963478 0.101108 177.914298
DOCKED: USER    NEWDPF dihe0 -109.95 128.76 -155.90 33.36 -30.79 97.78 118.00 -86.36 
DOCKED: USER  keepresnum = 1 
DOCKED: USER  
DOCKED: REMARK  Name = 
DOCKED: REMARK  8 active torsions:
DOCKED: REMARK  status: ('A' for Active; 'I' for Inactive)
DOCKED: REMARK    1  A    between atoms: C_2  and  C_10
DOCKED: REMARK    2  A    between atoms: N_3  and  C_4
DOCKED: REMARK    3  A    between atoms: C_10  and  C_11
DOCKED: REMARK    4  A    between atoms: C_11  and  C_12
DOCKED: REMARK    5  A    between atoms: C_12  and  C_13
DOCKED: REMARK    6  A    between atoms: C_13  and  C_14
DOCKED: REMARK    7  A    between atoms: C_14  and  C_15
DOCKED: REMARK    8  A    between atoms: C_15  and  C_16
DOCKED: REMARK                            x       y       z     vdW  Elec       q    Type
DOCKED: REMARK                         _______ _______ _______ _____ _____    ______ ____
DOCKED: USER                              x       y       z     vdW  Elec       q    Type
DOCKED: USER                           _______ _______ _______ _____ _____    ______ ____
DOCKED: ROOT
DOCKED: ATOM      1  C   UNL     1      26.637 -14.343  -3.210 -0.37 -0.00    +0.000 C 
DOCKED: ENDROOT
DOCKED: BRANCH   1   3
DOCKED: ATOM      2  O   UNL     1      29.021 -14.414  -3.222 -0.13 -0.00    +0.000 OA
DOCKED: ATOM      3  C   UNL     1      27.952 -14.781  -3.781 -0.28 -0.00    +0.000 C 
DOCKED: ATOM      4  N   UNL     1      27.984 -15.612  -4.952 -0.40 -0.00    +0.000 N 
DOCKED: ATOM      5  H   UNL     1      27.141 -16.019  -5.252 -0.05 +0.00    +0.000 HD
DOCKED: BRANCH   4   6
DOCKED: ATOM      6  C   UNL     1      29.173 -15.883  -5.715 -0.31 -0.00    +0.000 A 
DOCKED: ATOM      7  C   UNL     1      29.590 -14.963  -6.690 -0.31 -0.00    +0.000 A 
DOCKED: ATOM      8  C   UNL     1      30.755 -15.191  -7.427 -0.24 -0.00    +0.000 A 
DOCKED: ATOM      9  C   UNL     1      31.523 -16.333  -7.186 -0.21 -0.00    +0.000 A 
DOCKED: ATOM     10  C   UNL     1      31.131 -17.244  -6.202 -0.24 -0.00    +0.000 A 
DOCKED: ATOM     11  C   UNL     1      29.965 -17.019  -5.463 -0.29 -0.00    +0.000 A 
DOCKED: ENDBRANCH   4   6
DOCKED: ENDBRANCH   1   3
DOCKED: BRANCH   1  12
DOCKED: ATOM     12  C   UNL     1      25.598 -15.462  -3.347 -0.57 -0.00    +0.000 C 
DOCKED: BRANCH  12  13
DOCKED: ATOM     13  C   UNL     1      25.620 -16.449  -2.168 -0.56 -0.00    +0.000 C 
DOCKED: BRANCH  13  14
DOCKED: ATOM     14  C   UNL     1      24.365 -17.343  -2.088 -0.46 -0.00    +0.000 C 
DOCKED: BRANCH  14  15
DOCKED: ATOM     15  C   UNL     1      23.800 -17.424  -0.659 -0.73 -0.00    +0.000 C 
DOCKED: BRANCH  15  16
DOCKED: ATOM     16  C   UNL     1      23.036 -18.731  -0.407 -0.80 -0.00    +0.000 C 
DOCKED: BRANCH  16  17
DOCKED: ATOM     17  C   UNL     1      21.588 -18.612  -0.786 -0.85 -0.00    +0.000 C 
DOCKED: ATOM     18  N   UNL     1      20.853 -19.765  -1.202 -0.76 -0.00    +0.000 N 
DOCKED: ATOM     19  O   UNL     1      19.544 -19.662  -1.529 -2.08 -0.00    +0.000 OA
DOCKED: ATOM     20  O   UNL     1      21.013 -17.493  -0.708 -2.07 -0.00    +0.000 OA
DOCKED: ATOM     21  H   UNL     1      21.301 -20.640  -1.251 -0.13 -0.00    +0.000 HD
DOCKED: ENDBRANCH  16  17
DOCKED: ENDBRANCH  15  16
DOCKED: ENDBRANCH  14  15
DOCKED: ENDBRANCH  13  14
DOCKED: ENDBRANCH  12  13
DOCKED: ENDBRANCH   1  12
DOCKED: TORSDOF 8
DOCKED: TER
DOCKED: ENDMDL
________________________________________________________________________________


	BEGINNING GENETIC ALGORITHM DOCKING 67 of 100
Run: 67 Seed: 1038136964 284921622 [ Run 67 of 100 GA/GALS ]
Beginning LAMARCKIAN GENETIC ALGORITHM (LGA), with a maximum of 2500000 energy evaluations.

Final-Value: -14.510


	FINAL GENETIC ALGORITHM DOCKED STATE
	_______________________________________________


Detailed state:  trans 28.503 -15.944 -0.664 quatxyzw 0.196715 0.206317 -0.302556 -0.909504 center 0.185 0.077 0.153 ntor 8 -155.2269 -13.6466 91.3181 -22.2778 -58.5340 -167.2023 -180.0000 -90.9261
State:	 28.503 -15.944  -0.664   0.473  0.496 -0.728 -49.126   -155.23  -13.65   91.32  -22.28  -58.53 -167.20 -180.00  -90.93

DOCKED: MODEL       67
DOCKED: USER    Run = 67
DOCKED: USER    DPF = ligand_dock.biased.dpf
DOCKED: USER  
DOCKED: USER    Estimated Free Energy of Binding    =  -11.31 kcal/mol  [=(1)+(2)+(3)-(4)]
DOCKED: USER    Estimated Inhibition Constant, Ki   =    5.13 nM (nanomolar)  [Temperature = 298.15 K]
DOCKED: USER    
DOCKED: USER    (1) Final Intermolecular Energy     =  -13.70 kcal/mol
DOCKED: USER        vdW + Hbond + desolv Energy     =  -13.70 kcal/mol
DOCKED: USER        Electrostatic Energy            =   +0.00 kcal/mol
DOCKED: USER    (2) Final Total Internal Energy     =   -0.81 kcal/mol
DOCKED: USER    (3) Torsional Free Energy           =   +2.39 kcal/mol
DOCKED: USER    (4) Unbound System's Energy  [=(2)] =   -0.81 kcal/mol
DOCKED: USER    
DOCKED: USER    
DOCKED: USER    NEWDPF move ligand.pdbqt
DOCKED: USER    NEWDPF about 0.185000 0.077000 0.153000
DOCKED: USER    NEWDPF tran0 28.502814 -15.943744 -0.664047
DOCKED: USER    NEWDPF quaternion0 0.196715 0.206317 -0.302556 -0.909504
DOCKED: USER    NEWDPF axisangle0 0.473218 0.496316 -0.727829 -49.126341
DOCKED: USER    NEWDPF quat0 0.473218 0.496316 -0.727829 -49.126341
DOCKED: USER    NEWDPF dihe0 -155.23 -13.65 91.32 -22.28 -58.53 -167.20 -180.00 -90.93 
DOCKED: USER  keepresnum = 1 
DOCKED: USER  
DOCKED: REMARK  Name = 
DOCKED: REMARK  8 active torsions:
DOCKED: REMARK  status: ('A' for Active; 'I' for Inactive)
DOCKED: REMARK    1  A    between atoms: C_2  and  C_10
DOCKED: REMARK    2  A    between atoms: N_3  and  C_4
DOCKED: REMARK    3  A    between atoms: C_10  and  C_11
DOCKED: REMARK    4  A    between atoms: C_11  and  C_12
DOCKED: REMARK    5  A    between atoms: C_12  and  C_13
DOCKED: REMARK    6  A    between atoms: C_13  and  C_14
DOCKED: REMARK    7  A    between atoms: C_14  and  C_15
DOCKED: REMARK    8  A    between atoms: C_15  and  C_16
DOCKED: REMARK                            x       y       z     vdW  Elec       q    Type
DOCKED: REMARK                         _______ _______ _______ _____ _____    ______ ____
DOCKED: USER                              x       y       z     vdW  Elec       q    Type
DOCKED: USER                           _______ _______ _______ _____ _____    ______ ____
DOCKED: ROOT
DOCKED: ATOM      1  C   UNL     1      28.343 -15.412  -0.816 -0.24 -0.00    +0.000 C 
DOCKED: ENDROOT
DOCKED: BRANCH   1   3
DOCKED: ATOM      2  O   UNL     1      26.614 -14.337   0.426 -0.36 -0.00    +0.000 OA
DOCKED: ATOM      3  C   UNL     1      27.774 -14.830   0.443 -0.28 -0.00    +0.000 C 
DOCKED: ATOM      4  N   UNL     1      28.550 -14.840   1.651 -0.15 -0.00    +0.000 N 
DOCKED: ATOM      5  H   UNL     1      29.369 -15.384   1.670 -1.31 -0.00    +0.000 HD
DOCKED: BRANCH   4   6
DOCKED: ATOM      6  C   UNL     1      28.205 -14.101   2.836 -0.31 -0.00    +0.000 A 
DOCKED: ATOM      7  C   UNL     1      28.267 -14.737   4.086 -0.45 -0.00    +0.000 A 
DOCKED: ATOM      8  C   UNL     1      27.962 -14.033   5.255 -0.42 -0.00    +0.000 A 
DOCKED: ATOM      9  C   UNL     1      27.606 -12.684   5.187 -0.31 +0.00    +0.000 A 
DOCKED: ATOM     10  C   UNL     1      27.564 -12.034   3.951 -0.23 +0.00    +0.000 A 
DOCKED: ATOM     11  C   UNL     1      27.868 -12.735   2.779 -0.25 -0.00    +0.000 A 
DOCKED: ENDBRANCH   4   6
DOCKED: ENDBRANCH   1   3
DOCKED: BRANCH   1  12
DOCKED: ATOM     12  C   UNL     1      27.822 -16.838  -1.027 -0.40 -0.00    +0.000 C 
DOCKED: BRANCH  12  13
DOCKED: ATOM     13  C   UNL     1      26.430 -16.877  -1.680 -0.49 -0.00    +0.000 C 
DOCKED: BRANCH  13  14
DOCKED: ATOM     14  C   UNL     1      25.284 -17.118  -0.675 -0.62 -0.00    +0.000 C 
DOCKED: BRANCH  14  15
DOCKED: ATOM     15  C   UNL     1      23.995 -17.596  -1.367 -0.73 -0.00    +0.000 C 
DOCKED: BRANCH  15  16
DOCKED: ATOM     16  C   UNL     1      23.134 -18.476  -0.452 -0.82 -0.00    +0.000 C 
DOCKED: BRANCH  16  17
DOCKED: ATOM     17  C   UNL     1      21.703 -18.518  -0.903 -0.82 -0.00    +0.000 C 
DOCKED: ATOM     18  N   UNL     1      21.175 -19.691  -1.526 -0.67 -0.00    +0.000 N 
DOCKED: ATOM     19  O   UNL     1      19.881 -19.735  -1.919 -2.38 -0.00    +0.000 OA
DOCKED: ATOM     20  O   UNL     1      20.958 -17.521  -0.706 -2.09 +0.00    +0.000 OA
DOCKED: ATOM     21  H   UNL     1      21.756 -20.473  -1.669 -0.36 -0.00    +0.000 HD
DOCKED: ENDBRANCH  16  17
DOCKED: ENDBRANCH  15  16
DOCKED: ENDBRANCH  14  15
DOCKED: ENDBRANCH  13  14
DOCKED: ENDBRANCH  12  13
DOCKED: ENDBRANCH   1  12
DOCKED: TORSDOF 8
DOCKED: TER
DOCKED: ENDMDL
________________________________________________________________________________


	BEGINNING GENETIC ALGORITHM DOCKING 68 of 100
Run: 68 Seed: 1594608958 713520099 [ Run 68 of 100 GA/GALS ]
Beginning LAMARCKIAN GENETIC ALGORITHM (LGA), with a maximum of 2500000 energy evaluations.

Final-Value: -13.023


	FINAL GENETIC ALGORITHM DOCKED STATE
	_______________________________________________


Detailed state:  trans 27.084 -16.850 -0.395 quatxyzw 0.046829 0.927342 -0.013678 0.371022 center 0.185 0.077 0.153 ntor 8 -123.2178 -104.2236 128.6696 -176.1371 -34.1469 -90.4883 176.9396 118.9452
State:	 27.084 -16.850  -0.395   0.050  0.999 -0.015 136.443   -123.22 -104.22  128.67 -176.14  -34.15  -90.49  176.94  118.95

DOCKED: MODEL       68
DOCKED: USER    Run = 68
DOCKED: USER    DPF = ligand_dock.biased.dpf
DOCKED: USER  
DOCKED: USER    Estimated Free Energy of Binding    =   -9.82 kcal/mol  [=(1)+(2)+(3)-(4)]
DOCKED: USER    Estimated Inhibition Constant, Ki   =   63.65 nM (nanomolar)  [Temperature = 298.15 K]
DOCKED: USER    
DOCKED: USER    (1) Final Intermolecular Energy     =  -12.20 kcal/mol
DOCKED: USER        vdW + Hbond + desolv Energy     =  -12.20 kcal/mol
DOCKED: USER        Electrostatic Energy            =   +0.00 kcal/mol
DOCKED: USER    (2) Final Total Internal Energy     =   -0.82 kcal/mol
DOCKED: USER    (3) Torsional Free Energy           =   +2.39 kcal/mol
DOCKED: USER    (4) Unbound System's Energy  [=(2)] =   -0.82 kcal/mol
DOCKED: USER    
DOCKED: USER    
DOCKED: USER    NEWDPF move ligand.pdbqt
DOCKED: USER    NEWDPF about 0.185000 0.077000 0.153000
DOCKED: USER    NEWDPF tran0 27.083972 -16.849941 -0.395034
DOCKED: USER    NEWDPF quaternion0 0.046829 0.927342 -0.013678 0.371022
DOCKED: USER    NEWDPF axisangle0 0.050429 0.998619 -0.014729 136.442635
DOCKED: USER    NEWDPF quat0 0.050429 0.998619 -0.014729 136.442635
DOCKED: USER    NEWDPF dihe0 -123.22 -104.22 128.67 -176.14 -34.15 -90.49 176.94 118.95 
DOCKED: USER  keepresnum = 1 
DOCKED: USER  
DOCKED: REMARK  Name = 
DOCKED: REMARK  8 active torsions:
DOCKED: REMARK  status: ('A' for Active; 'I' for Inactive)
DOCKED: REMARK    1  A    between atoms: C_2  and  C_10
DOCKED: REMARK    2  A    between atoms: N_3  and  C_4
DOCKED: REMARK    3  A    between atoms: C_10  and  C_11
DOCKED: REMARK    4  A    between atoms: C_11  and  C_12
DOCKED: REMARK    5  A    between atoms: C_12  and  C_13
DOCKED: REMARK    6  A    between atoms: C_13  and  C_14
DOCKED: REMARK    7  A    between atoms: C_14  and  C_15
DOCKED: REMARK    8  A    between atoms: C_15  and  C_16
DOCKED: REMARK                            x       y       z     vdW  Elec       q    Type
DOCKED: REMARK                         _______ _______ _______ _____ _____    ______ ____
DOCKED: USER                              x       y       z     vdW  Elec       q    Type
DOCKED: USER                           _______ _______ _______ _____ _____    ______ ____
DOCKED: ROOT
DOCKED: ATOM      1  C   UNL     1      27.606 -16.626  -0.303 -0.39 -0.00    +0.000 C 
DOCKED: ENDROOT
DOCKED: BRANCH   1   3
DOCKED: ATOM      2  O   UNL     1      29.294 -16.815  -1.978 -0.26 -0.00    +0.000 OA
DOCKED: ATOM      3  C   UNL     1      28.146 -16.385  -1.680 -0.32 -0.00    +0.000 C 
DOCKED: ATOM      4  N   UNL     1      27.357 -15.672  -2.645 -0.29 -0.00    +0.000 N 
DOCKED: ATOM      5  H   UNL     1      26.409 -15.509  -2.436 -0.00 -0.00    +0.000 HD
DOCKED: BRANCH   4   6
DOCKED: ATOM      6  C   UNL     1      27.866 -15.178  -3.896 -0.29 -0.00    +0.000 A 
DOCKED: ATOM      7  C   UNL     1      28.708 -15.996  -4.667 -0.27 -0.00    +0.000 A 
DOCKED: ATOM      8  C   UNL     1      29.195 -15.550  -5.898 -0.33 -0.00    +0.000 A 
DOCKED: ATOM      9  C   UNL     1      28.834 -14.288  -6.379 -0.32 -0.00    +0.000 A 
DOCKED: ATOM     10  C   UNL     1      27.979 -13.475  -5.631 -0.25 -0.00    +0.000 A 
DOCKED: ATOM     11  C   UNL     1      27.490 -13.918  -4.398 -0.26 -0.00    +0.000 A 
DOCKED: ENDBRANCH   4   6
DOCKED: ENDBRANCH   1   3
DOCKED: BRANCH   1  12
DOCKED: ATOM     12  C   UNL     1      26.953 -18.011  -0.221 -0.48 -0.00    +0.000 C 
DOCKED: BRANCH  12  13
DOCKED: ATOM     13  C   UNL     1      25.673 -18.120  -1.066 -0.55 -0.00    +0.000 C 
DOCKED: BRANCH  13  14
DOCKED: ATOM     14  C   UNL     1      24.994 -16.761  -1.334 -0.63 -0.00    +0.000 C 
DOCKED: BRANCH  14  15
DOCKED: ATOM     15  C   UNL     1      23.464 -16.835  -1.177 -0.48 -0.00    +0.000 C 
DOCKED: BRANCH  15  16
DOCKED: ATOM     16  C   UNL     1      22.980 -18.255  -0.853 -0.82 -0.00    +0.000 C 
DOCKED: BRANCH  16  17
DOCKED: ATOM     17  C   UNL     1      21.505 -18.407  -1.084 -0.73 -0.00    +0.000 C 
DOCKED: ATOM     18  N   UNL     1      20.988 -19.591  -1.695 -0.72 -0.00    +0.000 N 
DOCKED: ATOM     19  O   UNL     1      19.657 -19.736  -1.891 -2.21 -0.00    +0.000 OA
DOCKED: ATOM     20  O   UNL     1      20.718 -17.497  -0.711 -2.09 +0.00    +0.000 OA
DOCKED: ATOM     21  H   UNL     1      21.603 -20.306  -1.976 -0.49 -0.00    +0.000 HD
DOCKED: ENDBRANCH  16  17
DOCKED: ENDBRANCH  15  16
DOCKED: ENDBRANCH  14  15
DOCKED: ENDBRANCH  13  14
DOCKED: ENDBRANCH  12  13
DOCKED: ENDBRANCH   1  12
DOCKED: TORSDOF 8
DOCKED: TER
DOCKED: ENDMDL
________________________________________________________________________________


	BEGINNING GENETIC ALGORITHM DOCKING 69 of 100
Run: 69 Seed: 651108494 539525381 [ Run 69 of 100 GA/GALS ]
Beginning LAMARCKIAN GENETIC ALGORITHM (LGA), with a maximum of 2500000 energy evaluations.

Final-Value: -13.191


	FINAL GENETIC ALGORITHM DOCKED STATE
	_______________________________________________


Detailed state:  trans 26.123 -14.979 -2.692 quatxyzw -0.357531 -0.714067 -0.290277 -0.527275 center 0.185 0.077 0.153 ntor 8 -42.1629 165.3053 176.4862 178.6546 -113.9112 26.7291 -157.4495 -50.7377
State:	 26.123 -14.979  -2.692  -0.421 -0.840 -0.342 -116.357    -42.16  165.31  176.49  178.65 -113.91   26.73 -157.45  -50.74

DOCKED: MODEL       69
DOCKED: USER    Run = 69
DOCKED: USER    DPF = ligand_dock.biased.dpf
DOCKED: USER  
DOCKED: USER    Estimated Free Energy of Binding    =  -10.02 kcal/mol  [=(1)+(2)+(3)-(4)]
DOCKED: USER    Estimated Inhibition Constant, Ki   =   45.09 nM (nanomolar)  [Temperature = 298.15 K]
DOCKED: USER    
DOCKED: USER    (1) Final Intermolecular Energy     =  -12.41 kcal/mol
DOCKED: USER        vdW + Hbond + desolv Energy     =  -12.41 kcal/mol
DOCKED: USER        Electrostatic Energy            =   +0.00 kcal/mol
DOCKED: USER    (2) Final Total Internal Energy     =   -0.78 kcal/mol
DOCKED: USER    (3) Torsional Free Energy           =   +2.39 kcal/mol
DOCKED: USER    (4) Unbound System's Energy  [=(2)] =   -0.78 kcal/mol
DOCKED: USER    
DOCKED: USER    
DOCKED: USER    NEWDPF move ligand.pdbqt
DOCKED: USER    NEWDPF about 0.185000 0.077000 0.153000
DOCKED: USER    NEWDPF tran0 26.122551 -14.979361 -2.691989
DOCKED: USER    NEWDPF quaternion0 -0.357531 -0.714067 -0.290277 -0.527275
DOCKED: USER    NEWDPF axisangle0 -0.420776 -0.840381 -0.341625 -116.356949
DOCKED: USER    NEWDPF quat0 -0.420776 -0.840381 -0.341625 -116.356949
DOCKED: USER    NEWDPF dihe0 -42.16 165.31 176.49 178.65 -113.91 26.73 -157.45 -50.74 
DOCKED: USER  keepresnum = 1 
DOCKED: USER  
DOCKED: REMARK  Name = 
DOCKED: REMARK  8 active torsions:
DOCKED: REMARK  status: ('A' for Active; 'I' for Inactive)
DOCKED: REMARK    1  A    between atoms: C_2  and  C_10
DOCKED: REMARK    2  A    between atoms: N_3  and  C_4
DOCKED: REMARK    3  A    between atoms: C_10  and  C_11
DOCKED: REMARK    4  A    between atoms: C_11  and  C_12
DOCKED: REMARK    5  A    between atoms: C_12  and  C_13
DOCKED: REMARK    6  A    between atoms: C_13  and  C_14
DOCKED: REMARK    7  A    between atoms: C_14  and  C_15
DOCKED: REMARK    8  A    between atoms: C_15  and  C_16
DOCKED: REMARK                            x       y       z     vdW  Elec       q    Type
DOCKED: REMARK                         _______ _______ _______ _____ _____    ______ ____
DOCKED: USER                              x       y       z     vdW  Elec       q    Type
DOCKED: USER                           _______ _______ _______ _____ _____    ______ ____
DOCKED: ROOT
DOCKED: ATOM      1  C   UNL     1      26.619 -15.227  -2.845 -0.42 -0.00    +0.000 C 
DOCKED: ENDROOT
DOCKED: BRANCH   1   3
DOCKED: ATOM      2  O   UNL     1      26.594 -15.603  -5.201 -1.17 +0.00    +0.000 OA
DOCKED: ATOM      3  C   UNL     1      26.821 -14.789  -4.264 -0.47 -0.00    +0.000 C 
DOCKED: ATOM      4  N   UNL     1      27.268 -13.453  -4.545 -0.25 -0.00    +0.000 N 
DOCKED: ATOM      5  H   UNL     1      27.264 -12.800  -3.809 +0.00 -0.00    +0.000 HD
DOCKED: BRANCH   4   6
DOCKED: ATOM      6  C   UNL     1      27.722 -13.011  -5.835 -0.21 -0.00    +0.000 A 
DOCKED: ATOM      7  C   UNL     1      28.643 -13.796  -6.548 -0.29 -0.00    +0.000 A 
DOCKED: ATOM      8  C   UNL     1      29.081 -13.400  -7.814 -0.22 -0.00    +0.000 A 
DOCKED: ATOM      9  C   UNL     1      28.593 -12.225  -8.389 -0.23 -0.00    +0.000 A 
DOCKED: ATOM     10  C   UNL     1      27.659 -11.447  -7.700 -0.17 -0.00    +0.000 A 
DOCKED: ATOM     11  C   UNL     1      27.218 -11.839  -6.431 -0.15 -0.00    +0.000 A 
DOCKED: ENDBRANCH   4   6
DOCKED: ENDBRANCH   1   3
DOCKED: BRANCH   1  12
DOCKED: ATOM     12  C   UNL     1      25.169 -15.673  -2.626 -0.51 -0.00    +0.000 C 
DOCKED: BRANCH  12  13
DOCKED: ATOM     13  C   UNL     1      25.057 -17.118  -2.111 -0.61 -0.00    +0.000 C 
DOCKED: BRANCH  13  14
DOCKED: ATOM     14  C   UNL     1      24.982 -17.219  -0.572 -0.61 -0.00    +0.000 C 
DOCKED: BRANCH  14  15
DOCKED: ATOM     15  C   UNL     1      24.031 -18.337  -0.110 -0.70 -0.00    +0.000 C 
DOCKED: BRANCH  15  16
DOCKED: ATOM     16  C   UNL     1      23.245 -18.953  -1.276 -0.79 -0.00    +0.000 C 
DOCKED: BRANCH  16  17
DOCKED: ATOM     17  C   UNL     1      21.770 -18.711  -1.144 -0.76 -0.00    +0.000 C 
DOCKED: ATOM     18  N   UNL     1      20.836 -19.738  -1.484 -0.77 -0.00    +0.000 N 
DOCKED: ATOM     19  O   UNL     1      19.506 -19.526  -1.351 -1.95 -0.00    +0.000 OA
DOCKED: ATOM     20  O   UNL     1      21.356 -17.604  -0.705 -1.80 -0.00    +0.000 OA
DOCKED: ATOM     21  H   UNL     1      21.161 -20.606  -1.816 -0.33 -0.00    +0.000 HD
DOCKED: ENDBRANCH  16  17
DOCKED: ENDBRANCH  15  16
DOCKED: ENDBRANCH  14  15
DOCKED: ENDBRANCH  13  14
DOCKED: ENDBRANCH  12  13
DOCKED: ENDBRANCH   1  12
DOCKED: TORSDOF 8
DOCKED: TER
DOCKED: ENDMDL
________________________________________________________________________________


	BEGINNING GENETIC ALGORITHM DOCKING 70 of 100
Run: 70 Seed: 42045996 912732579 [ Run 70 of 100 GA/GALS ]
Beginning LAMARCKIAN GENETIC ALGORITHM (LGA), with a maximum of 2500000 energy evaluations.

Final-Value: -13.402


	FINAL GENETIC ALGORITHM DOCKED STATE
	_______________________________________________


Detailed state:  trans 27.054 -15.141 0.142 quatxyzw -0.379523 -0.094369 0.642767 0.658716 center 0.185 0.077 0.153 ntor 8 -53.4398 15.1847 -179.9189 -111.1836 -171.7326 -3.1242 -138.9359 34.7896
State:	 27.054 -15.141   0.142  -0.504 -0.125  0.854 97.596    -53.44   15.18 -179.92 -111.18 -171.73   -3.12 -138.94   34.79

DOCKED: MODEL       70
DOCKED: USER    Run = 70
DOCKED: USER    DPF = ligand_dock.biased.dpf
DOCKED: USER  
DOCKED: USER    Estimated Free Energy of Binding    =  -10.16 kcal/mol  [=(1)+(2)+(3)-(4)]
DOCKED: USER    Estimated Inhibition Constant, Ki   =   35.94 nM (nanomolar)  [Temperature = 298.15 K]
DOCKED: USER    
DOCKED: USER    (1) Final Intermolecular Energy     =  -12.54 kcal/mol
DOCKED: USER        vdW + Hbond + desolv Energy     =  -12.54 kcal/mol
DOCKED: USER        Electrostatic Energy            =   +0.00 kcal/mol
DOCKED: USER    (2) Final Total Internal Energy     =   -0.86 kcal/mol
DOCKED: USER    (3) Torsional Free Energy           =   +2.39 kcal/mol
DOCKED: USER    (4) Unbound System's Energy  [=(2)] =   -0.86 kcal/mol
DOCKED: USER    
DOCKED: USER    
DOCKED: USER    NEWDPF move ligand.pdbqt
DOCKED: USER    NEWDPF about 0.185000 0.077000 0.153000
DOCKED: USER    NEWDPF tran0 27.053812 -15.140652 0.142285
DOCKED: USER    NEWDPF quaternion0 -0.379523 -0.094369 0.642767 0.658716
DOCKED: USER    NEWDPF axisangle0 -0.504422 -0.125425 0.854299 97.595904
DOCKED: USER    NEWDPF quat0 -0.504422 -0.125425 0.854299 97.595904
DOCKED: USER    NEWDPF dihe0 -53.44 15.18 -179.92 -111.18 -171.73 -3.12 -138.94 34.79 
DOCKED: USER  keepresnum = 1 
DOCKED: USER  
DOCKED: REMARK  Name = 
DOCKED: REMARK  8 active torsions:
DOCKED: REMARK  status: ('A' for Active; 'I' for Inactive)
DOCKED: REMARK    1  A    between atoms: C_2  and  C_10
DOCKED: REMARK    2  A    between atoms: N_3  and  C_4
DOCKED: REMARK    3  A    between atoms: C_10  and  C_11
DOCKED: REMARK    4  A    between atoms: C_11  and  C_12
DOCKED: REMARK    5  A    between atoms: C_12  and  C_13
DOCKED: REMARK    6  A    between atoms: C_13  and  C_14
DOCKED: REMARK    7  A    between atoms: C_14  and  C_15
DOCKED: REMARK    8  A    between atoms: C_15  and  C_16
DOCKED: REMARK                            x       y       z     vdW  Elec       q    Type
DOCKED: REMARK                         _______ _______ _______ _____ _____    ______ ____
DOCKED: USER                              x       y       z     vdW  Elec       q    Type
DOCKED: USER                           _______ _______ _______ _____ _____    ______ ____
DOCKED: ROOT
DOCKED: ATOM      1  C   UNL     1      27.399 -14.680   0.123 -0.29 -0.00    +0.000 C 
DOCKED: ENDROOT
DOCKED: BRANCH   1   3
DOCKED: ATOM      2  O   UNL     1      26.359 -13.300   1.767 -0.40 -0.00    +0.000 OA
DOCKED: ATOM      3  C   UNL     1      27.300 -14.095   1.500 -0.27 -0.00    +0.000 C 
DOCKED: ATOM      4  N   UNL     1      28.274 -14.443   2.497 -0.30 -0.00    +0.000 N 
DOCKED: ATOM      5  H   UNL     1      28.882 -15.192   2.307 -1.87 -0.00    +0.000 HD
DOCKED: BRANCH   4   6
DOCKED: ATOM      6  C   UNL     1      28.415 -13.762   3.756 -0.36 -0.00    +0.000 A 
DOCKED: ATOM      7  C   UNL     1      29.125 -14.381   4.797 -0.39 -0.00    +0.000 A 
DOCKED: ATOM      8  C   UNL     1      29.298 -13.729   6.021 -0.34 -0.00    +0.000 A 
DOCKED: ATOM      9  C   UNL     1      28.777 -12.448   6.213 -0.35 -0.00    +0.000 A 
DOCKED: ATOM     10  C   UNL     1      28.089 -11.812   5.176 -0.35 +0.00    +0.000 A 
DOCKED: ATOM     11  C   UNL     1      27.913 -12.461   3.950 -0.30 -0.00    +0.000 A 
DOCKED: ENDBRANCH   4   6
DOCKED: ENDBRANCH   1   3
DOCKED: BRANCH   1  12
DOCKED: ATOM     12  C   UNL     1      26.007 -15.055  -0.398 -0.30 -0.00    +0.000 C 
DOCKED: BRANCH  12  13
DOCKED: ATOM     13  C   UNL     1      26.035 -16.220  -1.402 -0.51 -0.00    +0.000 C 
DOCKED: BRANCH  13  14
DOCKED: ATOM     14  C   UNL     1      26.537 -17.546  -0.792 -0.57 -0.00    +0.000 C 
DOCKED: BRANCH  14  15
DOCKED: ATOM     15  C   UNL     1      25.409 -18.330  -0.099 -0.64 -0.00    +0.000 C 
DOCKED: BRANCH  15  16
DOCKED: ATOM     16  C   UNL     1      24.302 -18.746  -1.078 -0.66 -0.00    +0.000 C 
DOCKED: BRANCH  16  17
DOCKED: ATOM     17  C   UNL     1      23.014 -18.026  -0.802 -0.81 -0.00    +0.000 C 
DOCKED: ATOM     18  N   UNL     1      21.762 -18.634  -1.126 -0.75 -0.00    +0.000 N 
DOCKED: ATOM     19  O   UNL     1      20.600 -17.992  -0.864 -2.25 -0.00    +0.000 OA
DOCKED: ATOM     20  O   UNL     1      23.039 -16.890  -0.256 -0.66 -0.00    +0.000 OA
DOCKED: ATOM     21  H   UNL     1      21.744 -19.526  -1.542 -0.16 -0.00    +0.000 HD
DOCKED: ENDBRANCH  16  17
DOCKED: ENDBRANCH  15  16
DOCKED: ENDBRANCH  14  15
DOCKED: ENDBRANCH  13  14
DOCKED: ENDBRANCH  12  13
DOCKED: ENDBRANCH   1  12
DOCKED: TORSDOF 8
DOCKED: TER
DOCKED: ENDMDL
________________________________________________________________________________


	BEGINNING GENETIC ALGORITHM DOCKING 71 of 100
Run: 71 Seed: 438862608 376782243 [ Run 71 of 100 GA/GALS ]
Beginning LAMARCKIAN GENETIC ALGORITHM (LGA), with a maximum of 2500000 energy evaluations.

Final-Value: -12.941


	FINAL GENETIC ALGORITHM DOCKED STATE
	_______________________________________________


Detailed state:  trans 26.981 -16.703 -1.608 quatxyzw -0.467965 0.076211 0.799247 0.369330 center 0.185 0.077 0.153 ntor 8 -163.3132 144.1933 -174.0664 -19.5797 -158.5872 -16.0197 -8.8993 75.0438
State:	 26.981 -16.703  -1.608  -0.504  0.082  0.860 136.651   -163.31  144.19 -174.07  -19.58 -158.59  -16.02   -8.90   75.04

DOCKED: MODEL       71
DOCKED: USER    Run = 71
DOCKED: USER    DPF = ligand_dock.biased.dpf
DOCKED: USER  
DOCKED: USER    Estimated Free Energy of Binding    =   -9.56 kcal/mol  [=(1)+(2)+(3)-(4)]
DOCKED: USER    Estimated Inhibition Constant, Ki   =   97.61 nM (nanomolar)  [Temperature = 298.15 K]
DOCKED: USER    
DOCKED: USER    (1) Final Intermolecular Energy     =  -11.95 kcal/mol
DOCKED: USER        vdW + Hbond + desolv Energy     =  -11.95 kcal/mol
DOCKED: USER        Electrostatic Energy            =   +0.00 kcal/mol
DOCKED: USER    (2) Final Total Internal Energy     =   -0.99 kcal/mol
DOCKED: USER    (3) Torsional Free Energy           =   +2.39 kcal/mol
DOCKED: USER    (4) Unbound System's Energy  [=(2)] =   -0.99 kcal/mol
DOCKED: USER    
DOCKED: USER    
DOCKED: USER    NEWDPF move ligand.pdbqt
DOCKED: USER    NEWDPF about 0.185000 0.077000 0.153000
DOCKED: USER    NEWDPF tran0 26.981332 -16.703166 -1.607559
DOCKED: USER    NEWDPF quaternion0 -0.467965 0.076211 0.799247 0.369330
DOCKED: USER    NEWDPF axisangle0 -0.503568 0.082009 0.860054 136.651401
DOCKED: USER    NEWDPF quat0 -0.503568 0.082009 0.860054 136.651401
DOCKED: USER    NEWDPF dihe0 -163.31 144.19 -174.07 -19.58 -158.59 -16.02 -8.90 75.04 
DOCKED: USER  keepresnum = 1 
DOCKED: USER  
DOCKED: REMARK  Name = 
DOCKED: REMARK  8 active torsions:
DOCKED: REMARK  status: ('A' for Active; 'I' for Inactive)
DOCKED: REMARK    1  A    between atoms: C_2  and  C_10
DOCKED: REMARK    2  A    between atoms: N_3  and  C_4
DOCKED: REMARK    3  A    between atoms: C_10  and  C_11
DOCKED: REMARK    4  A    between atoms: C_11  and  C_12
DOCKED: REMARK    5  A    between atoms: C_12  and  C_13
DOCKED: REMARK    6  A    between atoms: C_13  and  C_14
DOCKED: REMARK    7  A    between atoms: C_14  and  C_15
DOCKED: REMARK    8  A    between atoms: C_15  and  C_16
DOCKED: REMARK                            x       y       z     vdW  Elec       q    Type
DOCKED: REMARK                         _______ _______ _______ _____ _____    ______ ____
DOCKED: USER                              x       y       z     vdW  Elec       q    Type
DOCKED: USER                           _______ _______ _______ _____ _____    ______ ____
DOCKED: ROOT
DOCKED: ATOM      1  C   UNL     1      27.541 -16.599  -1.520 -0.39 -0.00    +0.000 C 
DOCKED: ENDROOT
DOCKED: BRANCH   1   3
DOCKED: ATOM      2  O   UNL     1      26.955 -16.755   0.787 -0.25 -0.00    +0.000 OA
DOCKED: ATOM      3  C   UNL     1      27.604 -16.132  -0.097 -0.35 -0.00    +0.000 C 
DOCKED: ATOM      4  N   UNL     1      28.399 -14.986   0.247 -0.22 -0.00    +0.000 N 
DOCKED: ATOM      5  H   UNL     1      29.023 -14.638  -0.429 +0.00 -0.00    +0.000 HD
DOCKED: BRANCH   4   6
DOCKED: ATOM      6  C   UNL     1      28.337 -14.315   1.517 -0.21 -0.00    +0.000 A 
DOCKED: ATOM      7  C   UNL     1      27.177 -13.603   1.864 -0.26 -0.00    +0.000 A 
DOCKED: ATOM      8  C   UNL     1      27.083 -12.964   3.103 -0.28 -0.00    +0.000 A 
DOCKED: ATOM      9  C   UNL     1      28.140 -13.041   4.013 -0.34 -0.00    +0.000 A 
DOCKED: ATOM     10  C   UNL     1      29.290 -13.765   3.689 -0.27 -0.00    +0.000 A 
DOCKED: ATOM     11  C   UNL     1      29.388 -14.406   2.449 -0.12 -0.00    +0.000 A 
DOCKED: ENDBRANCH   4   6
DOCKED: ENDBRANCH   1   3
DOCKED: BRANCH   1  12
DOCKED: ATOM     12  C   UNL     1      26.380 -15.918  -2.253 -0.46 -0.00    +0.000 C 
DOCKED: BRANCH  12  13
DOCKED: ATOM     13  C   UNL     1      25.246 -16.892  -2.616 -0.44 -0.00    +0.000 C 
DOCKED: BRANCH  13  14
DOCKED: ATOM     14  C   UNL     1      24.764 -17.747  -1.425 -0.69 -0.00    +0.000 C 
DOCKED: BRANCH  14  15
DOCKED: ATOM     15  C   UNL     1      23.493 -17.172  -0.774 -0.71 -0.00    +0.000 C 
DOCKED: BRANCH  15  16
DOCKED: ATOM     16  C   UNL     1      22.660 -18.251  -0.069 -0.79 -0.00    +0.000 C 
DOCKED: BRANCH  16  17
DOCKED: ATOM     17  C   UNL     1      21.415 -18.585  -0.838 -0.84 -0.00    +0.000 C 
DOCKED: ATOM     18  N   UNL     1      21.375 -19.735  -1.686 -0.51 -0.00    +0.000 N 
DOCKED: ATOM     19  O   UNL     1      20.249 -20.046  -2.367 -2.14 -0.00    +0.000 OA
DOCKED: ATOM     20  O   UNL     1      20.391 -17.861  -0.713 -2.26 +0.00    +0.000 OA
DOCKED: ATOM     21  H   UNL     1      22.173 -20.306  -1.774 -0.41 -0.00    +0.000 HD
DOCKED: ENDBRANCH  16  17
DOCKED: ENDBRANCH  15  16
DOCKED: ENDBRANCH  14  15
DOCKED: ENDBRANCH  13  14
DOCKED: ENDBRANCH  12  13
DOCKED: ENDBRANCH   1  12
DOCKED: TORSDOF 8
DOCKED: TER
DOCKED: ENDMDL
________________________________________________________________________________


	BEGINNING GENETIC ALGORITHM DOCKING 72 of 100
Run: 72 Seed: 1059773953 1680410571 [ Run 72 of 100 GA/GALS ]
Beginning LAMARCKIAN GENETIC ALGORITHM (LGA), with a maximum of 2500000 energy evaluations.

Final-Value: -14.733


	FINAL GENETIC ALGORITHM DOCKED STATE
	_______________________________________________


Detailed state:  trans 27.566 -15.055 0.116 quatxyzw -0.424188 -0.065614 0.625150 0.651880 center 0.185 0.077 0.153 ntor 8 -79.9256 38.3254 155.2973 41.0840 -29.8196 125.2359 -140.5907 93.5089
State:	 27.566 -15.055   0.116  -0.559 -0.087  0.824 98.633    -79.93   38.33  155.30   41.08  -29.82  125.24 -140.59   93.51

DOCKED: MODEL       72
DOCKED: USER    Run = 72
DOCKED: USER    DPF = ligand_dock.biased.dpf
DOCKED: USER  
DOCKED: USER    Estimated Free Energy of Binding    =  -11.80 kcal/mol  [=(1)+(2)+(3)-(4)]
DOCKED: USER    Estimated Inhibition Constant, Ki   =    2.24 nM (nanomolar)  [Temperature = 298.15 K]
DOCKED: USER    
DOCKED: USER    (1) Final Intermolecular Energy     =  -14.19 kcal/mol
DOCKED: USER        vdW + Hbond + desolv Energy     =  -14.19 kcal/mol
DOCKED: USER        Electrostatic Energy            =   +0.00 kcal/mol
DOCKED: USER    (2) Final Total Internal Energy     =   -0.55 kcal/mol
DOCKED: USER    (3) Torsional Free Energy           =   +2.39 kcal/mol
DOCKED: USER    (4) Unbound System's Energy  [=(2)] =   -0.55 kcal/mol
DOCKED: USER    
DOCKED: USER    
DOCKED: USER    NEWDPF move ligand.pdbqt
DOCKED: USER    NEWDPF about 0.185000 0.077000 0.153000
DOCKED: USER    NEWDPF tran0 27.566297 -15.055363 0.116040
DOCKED: USER    NEWDPF quaternion0 -0.424188 -0.065614 0.625150 0.651880
DOCKED: USER    NEWDPF axisangle0 -0.559377 -0.086526 0.824385 98.633082
DOCKED: USER    NEWDPF quat0 -0.559377 -0.086526 0.824385 98.633082
DOCKED: USER    NEWDPF dihe0 -79.93 38.33 155.30 41.08 -29.82 125.24 -140.59 93.51 
DOCKED: USER  keepresnum = 1 
DOCKED: USER  
DOCKED: REMARK  Name = 
DOCKED: REMARK  8 active torsions:
DOCKED: REMARK  status: ('A' for Active; 'I' for Inactive)
DOCKED: REMARK    1  A    between atoms: C_2  and  C_10
DOCKED: REMARK    2  A    between atoms: N_3  and  C_4
DOCKED: REMARK    3  A    between atoms: C_10  and  C_11
DOCKED: REMARK    4  A    between atoms: C_11  and  C_12
DOCKED: REMARK    5  A    between atoms: C_12  and  C_13
DOCKED: REMARK    6  A    between atoms: C_13  and  C_14
DOCKED: REMARK    7  A    between atoms: C_14  and  C_15
DOCKED: REMARK    8  A    between atoms: C_15  and  C_16
DOCKED: REMARK                            x       y       z     vdW  Elec       q    Type
DOCKED: REMARK                         _______ _______ _______ _____ _____    ______ ____
DOCKED: USER                              x       y       z     vdW  Elec       q    Type
DOCKED: USER                           _______ _______ _______ _____ _____    ______ ____
DOCKED: ROOT
DOCKED: ATOM      1  C   UNL     1      27.918 -14.601   0.148 -0.25 -0.00    +0.000 C 
DOCKED: ENDROOT
DOCKED: BRANCH   1   3
DOCKED: ATOM      2  O   UNL     1      26.747 -13.228   1.708 -0.38 -0.00    +0.000 OA
DOCKED: ATOM      3  C   UNL     1      27.680 -14.055   1.524 -0.30 -0.00    +0.000 C 
DOCKED: ATOM      4  N   UNL     1      28.513 -14.476   2.616 -0.28 -0.00    +0.000 N 
DOCKED: ATOM      5  H   UNL     1      29.110 -15.245   2.472 -1.97 -0.00    +0.000 HD
DOCKED: BRANCH   4   6
DOCKED: ATOM      6  C   UNL     1      28.532 -13.841   3.906 -0.38 -0.00    +0.000 A 
DOCKED: ATOM      7  C   UNL     1      29.474 -14.254   4.862 -0.35 -0.00    +0.000 A 
DOCKED: ATOM      8  C   UNL     1      29.529 -13.636   6.114 -0.31 -0.00    +0.000 A 
DOCKED: ATOM      9  C   UNL     1      28.654 -12.590   6.419 -0.38 -0.00    +0.000 A 
DOCKED: ATOM     10  C   UNL     1      27.728 -12.155   5.467 -0.34 +0.00    +0.000 A 
DOCKED: ATOM     11  C   UNL     1      27.669 -12.772   4.213 -0.33 -0.00    +0.000 A 
DOCKED: ENDBRANCH   4   6
DOCKED: ENDBRANCH   1   3
DOCKED: BRANCH   1  12
DOCKED: ATOM     12  C   UNL     1      26.584 -14.936  -0.530 -0.35 -0.00    +0.000 C 
DOCKED: BRANCH  12  13
DOCKED: ATOM     13  C   UNL     1      26.160 -16.400  -0.326 -0.42 -0.00    +0.000 C 
DOCKED: BRANCH  13  14
DOCKED: ATOM     14  C   UNL     1      24.988 -16.833  -1.232 -0.64 -0.00    +0.000 C 
DOCKED: BRANCH  14  15
DOCKED: ATOM     15  C   UNL     1      23.898 -17.588  -0.450 -0.71 -0.00    +0.000 C 
DOCKED: BRANCH  15  16
DOCKED: ATOM     16  C   UNL     1      23.241 -18.694  -1.287 -0.79 -0.00    +0.000 C 
DOCKED: BRANCH  16  17
DOCKED: ATOM     17  C   UNL     1      21.751 -18.717  -1.109 -0.79 -0.00    +0.000 C 
DOCKED: ATOM     18  N   UNL     1      20.959 -19.706  -1.772 -0.70 -0.00    +0.000 N 
DOCKED: ATOM     19  O   UNL     1      19.617 -19.736  -1.600 -2.17 -0.00    +0.000 OA
DOCKED: ATOM     20  O   UNL     1      21.201 -17.877  -0.348 -1.81 -0.00    +0.000 OA
DOCKED: ATOM     21  H   UNL     1      21.392 -20.368  -2.357 -0.55 -0.00    +0.000 HD
DOCKED: ENDBRANCH  16  17
DOCKED: ENDBRANCH  15  16
DOCKED: ENDBRANCH  14  15
DOCKED: ENDBRANCH  13  14
DOCKED: ENDBRANCH  12  13
DOCKED: ENDBRANCH   1  12
DOCKED: TORSDOF 8
DOCKED: TER
DOCKED: ENDMDL
________________________________________________________________________________


	BEGINNING GENETIC ALGORITHM DOCKING 73 of 100
Run: 73 Seed: 847384716 1213019595 [ Run 73 of 100 GA/GALS ]
Beginning LAMARCKIAN GENETIC ALGORITHM (LGA), with a maximum of 2500000 energy evaluations.

Final-Value: -13.335


	FINAL GENETIC ALGORITHM DOCKED STATE
	_______________________________________________


Detailed state:  trans 25.355 -14.871 -3.304 quatxyzw 0.010736 -0.821644 0.568689 0.037125 center 0.185 0.077 0.153 ntor 8 -111.6557 -73.9231 152.0130 -48.7297 164.3993 105.7152 -153.3767 134.8338
State:	 25.355 -14.871  -3.304   0.011 -0.822  0.569 175.745   -111.66  -73.92  152.01  -48.73  164.40  105.72 -153.38  134.83

DOCKED: MODEL       73
DOCKED: USER    Run = 73
DOCKED: USER    DPF = ligand_dock.biased.dpf
DOCKED: USER  
DOCKED: USER    Estimated Free Energy of Binding    =  -10.10 kcal/mol  [=(1)+(2)+(3)-(4)]
DOCKED: USER    Estimated Inhibition Constant, Ki   =   39.33 nM (nanomolar)  [Temperature = 298.15 K]
DOCKED: USER    
DOCKED: USER    (1) Final Intermolecular Energy     =  -12.49 kcal/mol
DOCKED: USER        vdW + Hbond + desolv Energy     =  -12.49 kcal/mol
DOCKED: USER        Electrostatic Energy            =   +0.00 kcal/mol
DOCKED: USER    (2) Final Total Internal Energy     =   -0.85 kcal/mol
DOCKED: USER    (3) Torsional Free Energy           =   +2.39 kcal/mol
DOCKED: USER    (4) Unbound System's Energy  [=(2)] =   -0.85 kcal/mol
DOCKED: USER    
DOCKED: USER    
DOCKED: USER    NEWDPF move ligand.pdbqt
DOCKED: USER    NEWDPF about 0.185000 0.077000 0.153000
DOCKED: USER    NEWDPF tran0 25.354518 -14.871162 -3.303923
DOCKED: USER    NEWDPF quaternion0 0.010736 -0.821644 0.568689 0.037125
DOCKED: USER    NEWDPF axisangle0 0.010744 -0.822211 0.569081 175.744774
DOCKED: USER    NEWDPF quat0 0.010744 -0.822211 0.569081 175.744774
DOCKED: USER    NEWDPF dihe0 -111.66 -73.92 152.01 -48.73 164.40 105.72 -153.38 134.83 
DOCKED: USER  keepresnum = 1 
DOCKED: USER  
DOCKED: REMARK  Name = 
DOCKED: REMARK  8 active torsions:
DOCKED: REMARK  status: ('A' for Active; 'I' for Inactive)
DOCKED: REMARK    1  A    between atoms: C_2  and  C_10
DOCKED: REMARK    2  A    between atoms: N_3  and  C_4
DOCKED: REMARK    3  A    between atoms: C_10  and  C_11
DOCKED: REMARK    4  A    between atoms: C_11  and  C_12
DOCKED: REMARK    5  A    between atoms: C_12  and  C_13
DOCKED: REMARK    6  A    between atoms: C_13  and  C_14
DOCKED: REMARK    7  A    between atoms: C_14  and  C_15
DOCKED: REMARK    8  A    between atoms: C_15  and  C_16
DOCKED: REMARK                            x       y       z     vdW  Elec       q    Type
DOCKED: REMARK                         _______ _______ _______ _____ _____    ______ ____
DOCKED: USER                              x       y       z     vdW  Elec       q    Type
DOCKED: USER                           _______ _______ _______ _____ _____    ______ ____
DOCKED: ROOT
DOCKED: ATOM      1  C   UNL     1      25.620 -14.366  -3.381 -0.49 -0.00    +0.000 C 
DOCKED: ENDROOT
DOCKED: BRANCH   1   3
DOCKED: ATOM      2  O   UNL     1      27.953 -14.756  -3.072 -0.21 -0.00    +0.000 OA
DOCKED: ATOM      3  C   UNL     1      26.983 -14.746  -3.878 -0.41 -0.00    +0.000 C 
DOCKED: ATOM      4  N   UNL     1      27.172 -15.092  -5.259 -0.48 -0.00    +0.000 N 
DOCKED: ATOM      5  H   UNL     1      26.371 -15.242  -5.811 -0.07 +0.00    +0.000 HD
DOCKED: BRANCH   4   6
DOCKED: ATOM      6  C   UNL     1      28.458 -15.230  -5.886 -0.37 -0.00    +0.000 A 
DOCKED: ATOM      7  C   UNL     1      29.245 -16.358  -5.600 -0.27 -0.00    +0.000 A 
DOCKED: ATOM      8  C   UNL     1      30.488 -16.529  -6.216 -0.28 -0.00    +0.000 A 
DOCKED: ATOM      9  C   UNL     1      30.951 -15.583  -7.134 -0.24 -0.00    +0.000 A 
DOCKED: ATOM     10  C   UNL     1      30.166 -14.469  -7.444 -0.23 -0.00    +0.000 A 
DOCKED: ATOM     11  C   UNL     1      28.922 -14.294  -6.829 -0.32 -0.00    +0.000 A 
DOCKED: ENDBRANCH   4   6
DOCKED: ENDBRANCH   1   3
DOCKED: BRANCH   1  12
DOCKED: ATOM     12  C   UNL     1      25.221 -15.248  -2.192 -0.36 -0.00    +0.000 C 
DOCKED: BRANCH  12  13
DOCKED: ATOM     13  C   UNL     1      25.373 -16.751  -2.484 -0.54 -0.00    +0.000 C 
DOCKED: BRANCH  13  14
DOCKED: ATOM     14  C   UNL     1      25.153 -17.644  -1.245 -0.67 -0.00    +0.000 C 
DOCKED: BRANCH  14  15
DOCKED: ATOM     15  C   UNL     1      23.736 -17.492  -0.664 -0.74 -0.00    +0.000 C 
DOCKED: BRANCH  15  16
DOCKED: ATOM     16  C   UNL     1      23.005 -18.837  -0.553 -0.81 -0.00    +0.000 C 
DOCKED: BRANCH  16  17
DOCKED: ATOM     17  C   UNL     1      21.556 -18.717  -0.926 -0.83 -0.00    +0.000 C 
DOCKED: ATOM     18  N   UNL     1      20.862 -19.829  -1.497 -0.67 -0.00    +0.000 N 
DOCKED: ATOM     19  O   UNL     1      19.552 -19.727  -1.819 -2.16 -0.00    +0.000 OA
DOCKED: ATOM     20  O   UNL     1      20.943 -17.638  -0.708 -2.12 -0.00    +0.000 OA
DOCKED: ATOM     21  H   UNL     1      21.340 -20.675  -1.656 -0.22 -0.00    +0.000 HD
DOCKED: ENDBRANCH  16  17
DOCKED: ENDBRANCH  15  16
DOCKED: ENDBRANCH  14  15
DOCKED: ENDBRANCH  13  14
DOCKED: ENDBRANCH  12  13
DOCKED: ENDBRANCH   1  12
DOCKED: TORSDOF 8
DOCKED: TER
DOCKED: ENDMDL
________________________________________________________________________________


	BEGINNING GENETIC ALGORITHM DOCKING 74 of 100
Run: 74 Seed: 1890655471 707556021 [ Run 74 of 100 GA/GALS ]
Beginning LAMARCKIAN GENETIC ALGORITHM (LGA), with a maximum of 2500000 energy evaluations.

Final-Value: -13.240


	FINAL GENETIC ALGORITHM DOCKED STATE
	_______________________________________________


Detailed state:  trans 28.150 -17.232 -0.642 quatxyzw 0.520234 0.143685 0.515329 0.665693 center 0.185 0.077 0.153 ntor 8 -145.8039 79.9403 63.5824 -129.7535 -109.5057 -158.4542 4.0018 -79.7956
State:	 28.150 -17.232  -0.642   0.697  0.193  0.691 96.529   -145.80   79.94   63.58 -129.75 -109.51 -158.45    4.00  -79.80

DOCKED: MODEL       74
DOCKED: USER    Run = 74
DOCKED: USER    DPF = ligand_dock.biased.dpf
DOCKED: USER  
DOCKED: USER    Estimated Free Energy of Binding    =   -9.71 kcal/mol  [=(1)+(2)+(3)-(4)]
DOCKED: USER    Estimated Inhibition Constant, Ki   =   76.04 nM (nanomolar)  [Temperature = 298.15 K]
DOCKED: USER    
DOCKED: USER    (1) Final Intermolecular Energy     =  -12.10 kcal/mol
DOCKED: USER        vdW + Hbond + desolv Energy     =  -12.10 kcal/mol
DOCKED: USER        Electrostatic Energy            =   +0.00 kcal/mol
DOCKED: USER    (2) Final Total Internal Energy     =   -1.14 kcal/mol
DOCKED: USER    (3) Torsional Free Energy           =   +2.39 kcal/mol
DOCKED: USER    (4) Unbound System's Energy  [=(2)] =   -1.14 kcal/mol
DOCKED: USER    
DOCKED: USER    
DOCKED: USER    NEWDPF move ligand.pdbqt
DOCKED: USER    NEWDPF about 0.185000 0.077000 0.153000
DOCKED: USER    NEWDPF tran0 28.150364 -17.232260 -0.642422
DOCKED: USER    NEWDPF quaternion0 0.520234 0.143685 0.515329 0.665693
DOCKED: USER    NEWDPF axisangle0 0.697153 0.192550 0.690581 96.528961
DOCKED: USER    NEWDPF quat0 0.697153 0.192550 0.690581 96.528961
DOCKED: USER    NEWDPF dihe0 -145.80 79.94 63.58 -129.75 -109.51 -158.45 4.00 -79.80 
DOCKED: USER  keepresnum = 1 
DOCKED: USER  
DOCKED: REMARK  Name = 
DOCKED: REMARK  8 active torsions:
DOCKED: REMARK  status: ('A' for Active; 'I' for Inactive)
DOCKED: REMARK    1  A    between atoms: C_2  and  C_10
DOCKED: REMARK    2  A    between atoms: N_3  and  C_4
DOCKED: REMARK    3  A    between atoms: C_10  and  C_11
DOCKED: REMARK    4  A    between atoms: C_11  and  C_12
DOCKED: REMARK    5  A    between atoms: C_12  and  C_13
DOCKED: REMARK    6  A    between atoms: C_13  and  C_14
DOCKED: REMARK    7  A    between atoms: C_14  and  C_15
DOCKED: REMARK    8  A    between atoms: C_15  and  C_16
DOCKED: REMARK                            x       y       z     vdW  Elec       q    Type
DOCKED: REMARK                         _______ _______ _______ _____ _____    ______ ____
DOCKED: USER                              x       y       z     vdW  Elec       q    Type
DOCKED: USER                           _______ _______ _______ _____ _____    ______ ____
DOCKED: ROOT
DOCKED: ATOM      1  C   UNL     1      28.094 -17.452  -1.171 -0.33 -0.00    +0.000 C 
DOCKED: ENDROOT
DOCKED: BRANCH   1   3
DOCKED: ATOM      2  O   UNL     1      29.017 -15.432  -2.044 -0.16 -0.00    +0.000 OA
DOCKED: ATOM      3  C   UNL     1      28.054 -16.246  -2.062 -0.31 -0.00    +0.000 C 
DOCKED: ATOM      4  N   UNL     1      26.926 -16.029  -2.924 -0.35 -0.00    +0.000 N 
DOCKED: ATOM      5  H   UNL     1      26.285 -16.767  -3.040 -0.02 -0.00    +0.000 HD
DOCKED: BRANCH   4   6
DOCKED: ATOM      6  C   UNL     1      26.673 -14.801  -3.627 -0.39 -0.00    +0.000 A 
DOCKED: ATOM      7  C   UNL     1      25.388 -14.235  -3.585 -0.44 -0.00    +0.000 A 
DOCKED: ATOM      8  C   UNL     1      25.124 -13.029  -4.239 -0.22 -0.00    +0.000 A 
DOCKED: ATOM      9  C   UNL     1      26.144 -12.367  -4.927 -0.21 -0.00    +0.000 A 
DOCKED: ATOM     10  C   UNL     1      27.432 -12.908  -4.956 -0.22 -0.00    +0.000 A 
DOCKED: ATOM     11  C   UNL     1      27.700 -14.116  -4.303 -0.25 -0.00    +0.000 A 
DOCKED: ENDBRANCH   4   6
DOCKED: ENDBRANCH   1   3
DOCKED: BRANCH   1  12
DOCKED: ATOM     12  C   UNL     1      27.195 -17.241   0.052 -0.39 -0.00    +0.000 C 
DOCKED: BRANCH  12  13
DOCKED: ATOM     13  C   UNL     1      25.774 -17.797  -0.145 -0.63 -0.00    +0.000 C 
DOCKED: BRANCH  13  14
DOCKED: ATOM     14  C   UNL     1      24.779 -16.761  -0.708 -0.58 -0.00    +0.000 C 
DOCKED: BRANCH  14  15
DOCKED: ATOM     15  C   UNL     1      23.716 -17.408  -1.613 -0.54 -0.00    +0.000 C 
DOCKED: BRANCH  15  16
DOCKED: ATOM     16  C   UNL     1      23.156 -18.707  -1.017 -0.82 -0.00    +0.000 C 
DOCKED: BRANCH  16  17
DOCKED: ATOM     17  C   UNL     1      21.656 -18.730  -1.041 -0.82 -0.00    +0.000 C 
DOCKED: ATOM     18  N   UNL     1      20.960 -19.703  -1.824 -0.69 -0.00    +0.000 N 
DOCKED: ATOM     19  O   UNL     1      19.608 -19.734  -1.834 -2.21 -0.00    +0.000 OA
DOCKED: ATOM     20  O   UNL     1      21.008 -17.903  -0.345 -1.94 +0.00    +0.000 OA
DOCKED: ATOM     21  H   UNL     1      21.468 -20.356  -2.358 -0.56 -0.00    +0.000 HD
DOCKED: ENDBRANCH  16  17
DOCKED: ENDBRANCH  15  16
DOCKED: ENDBRANCH  14  15
DOCKED: ENDBRANCH  13  14
DOCKED: ENDBRANCH  12  13
DOCKED: ENDBRANCH   1  12
DOCKED: TORSDOF 8
DOCKED: TER
DOCKED: ENDMDL
________________________________________________________________________________


	BEGINNING GENETIC ALGORITHM DOCKING 75 of 100
Run: 75 Seed: 1075305493 1289167423 [ Run 75 of 100 GA/GALS ]
Beginning LAMARCKIAN GENETIC ALGORITHM (LGA), with a maximum of 2500000 energy evaluations.

Final-Value: -13.122


	FINAL GENETIC ALGORITHM DOCKED STATE
	_______________________________________________


Detailed state:  trans 26.463 -14.611 -0.604 quatxyzw -0.193009 -0.611140 0.405001 0.652097 center 0.185 0.077 0.153 ntor 8 178.5802 175.7172 92.5345 63.5786 -156.3959 84.1315 -26.6525 57.8800
State:	 26.463 -14.611  -0.604  -0.255 -0.806  0.534 98.600    178.58  175.72   92.53   63.58 -156.40   84.13  -26.65   57.88

DOCKED: MODEL       75
DOCKED: USER    Run = 75
DOCKED: USER    DPF = ligand_dock.biased.dpf
DOCKED: USER  
DOCKED: USER    Estimated Free Energy of Binding    =  -10.01 kcal/mol  [=(1)+(2)+(3)-(4)]
DOCKED: USER    Estimated Inhibition Constant, Ki   =   46.21 nM (nanomolar)  [Temperature = 298.15 K]
DOCKED: USER    
DOCKED: USER    (1) Final Intermolecular Energy     =  -12.39 kcal/mol
DOCKED: USER        vdW + Hbond + desolv Energy     =  -12.39 kcal/mol
DOCKED: USER        Electrostatic Energy            =   +0.00 kcal/mol
DOCKED: USER    (2) Final Total Internal Energy     =   -0.73 kcal/mol
DOCKED: USER    (3) Torsional Free Energy           =   +2.39 kcal/mol
DOCKED: USER    (4) Unbound System's Energy  [=(2)] =   -0.73 kcal/mol
DOCKED: USER    
DOCKED: USER    
DOCKED: USER    NEWDPF move ligand.pdbqt
DOCKED: USER    NEWDPF about 0.185000 0.077000 0.153000
DOCKED: USER    NEWDPF tran0 26.463417 -14.611182 -0.604034
DOCKED: USER    NEWDPF quaternion0 -0.193009 -0.611140 0.405001 0.652097
DOCKED: USER    NEWDPF axisangle0 -0.254583 -0.806109 0.534206 98.600249
DOCKED: USER    NEWDPF quat0 -0.254583 -0.806109 0.534206 98.600249
DOCKED: USER    NEWDPF dihe0 178.58 175.72 92.53 63.58 -156.40 84.13 -26.65 57.88 
DOCKED: USER  keepresnum = 1 
DOCKED: USER  
DOCKED: REMARK  Name = 
DOCKED: REMARK  8 active torsions:
DOCKED: REMARK  status: ('A' for Active; 'I' for Inactive)
DOCKED: REMARK    1  A    between atoms: C_2  and  C_10
DOCKED: REMARK    2  A    between atoms: N_3  and  C_4
DOCKED: REMARK    3  A    between atoms: C_10  and  C_11
DOCKED: REMARK    4  A    between atoms: C_11  and  C_12
DOCKED: REMARK    5  A    between atoms: C_12  and  C_13
DOCKED: REMARK    6  A    between atoms: C_13  and  C_14
DOCKED: REMARK    7  A    between atoms: C_14  and  C_15
DOCKED: REMARK    8  A    between atoms: C_15  and  C_16
DOCKED: REMARK                            x       y       z     vdW  Elec       q    Type
DOCKED: REMARK                         _______ _______ _______ _____ _____    ______ ____
DOCKED: USER                              x       y       z     vdW  Elec       q    Type
DOCKED: USER                           _______ _______ _______ _____ _____    ______ ____
DOCKED: ROOT
DOCKED: ATOM      1  C   UNL     1      26.409 -14.055  -0.465 -0.31 -0.00    +0.000 C 
DOCKED: ENDROOT
DOCKED: BRANCH   1   3
DOCKED: ATOM      2  O   UNL     1      28.142 -14.717   1.036 -0.29 -0.00    +0.000 OA
DOCKED: ATOM      3  C   UNL     1      27.188 -13.923   0.809 -0.30 -0.00    +0.000 C 
DOCKED: ATOM      4  N   UNL     1      26.844 -12.900   1.757 -0.32 -0.00    +0.000 N 
DOCKED: ATOM      5  H   UNL     1      26.218 -12.197   1.470 -0.02 +0.00    +0.000 HD
DOCKED: BRANCH   4   6
DOCKED: ATOM      6  C   UNL     1      27.357 -12.840   3.099 -0.30 -0.00    +0.000 A 
DOCKED: ATOM      7  C   UNL     1      27.560 -14.032   3.812 -0.46 -0.00    +0.000 A 
DOCKED: ATOM      8  C   UNL     1      28.081 -14.002   5.109 -0.48 -0.00    +0.000 A 
DOCKED: ATOM      9  C   UNL     1      28.418 -12.782   5.700 -0.39 -0.00    +0.000 A 
DOCKED: ATOM     10  C   UNL     1      28.242 -11.590   4.991 -0.32 +0.00    +0.000 A 
DOCKED: ATOM     11  C   UNL     1      27.720 -11.617   3.693 -0.27 +0.00    +0.000 A 
DOCKED: ENDBRANCH   4   6
DOCKED: ENDBRANCH   1   3
DOCKED: BRANCH   1  12
DOCKED: ATOM     12  C   UNL     1      25.527 -15.308  -0.423 -0.10 -0.00    +0.000 C 
DOCKED: BRANCH  12  13
DOCKED: ATOM     13  C   UNL     1      25.702 -16.207  -1.659 -0.54 -0.00    +0.000 C 
DOCKED: BRANCH  13  14
DOCKED: ATOM     14  C   UNL     1      25.443 -17.701  -1.375 -0.60 -0.00    +0.000 C 
DOCKED: BRANCH  14  15
DOCKED: ATOM     15  C   UNL     1      24.042 -18.144  -1.835 -0.63 -0.00    +0.000 C 
DOCKED: BRANCH  15  16
DOCKED: ATOM     16  C   UNL     1      23.217 -18.746  -0.689 -0.82 -0.00    +0.000 C 
DOCKED: BRANCH  16  17
DOCKED: ATOM     17  C   UNL     1      21.747 -18.731  -0.993 -0.83 -0.00    +0.000 C 
DOCKED: ATOM     18  N   UNL     1      21.171 -19.738  -1.829 -0.57 -0.00    +0.000 N 
DOCKED: ATOM     19  O   UNL     1      19.844 -19.734  -2.091 -2.31 -0.00    +0.000 OA
DOCKED: ATOM     20  O   UNL     1      21.014 -17.841  -0.485 -2.00 -0.00    +0.000 OA
DOCKED: ATOM     21  H   UNL     1      21.744 -20.439  -2.216 -0.54 -0.00    +0.000 HD
DOCKED: ENDBRANCH  16  17
DOCKED: ENDBRANCH  15  16
DOCKED: ENDBRANCH  14  15
DOCKED: ENDBRANCH  13  14
DOCKED: ENDBRANCH  12  13
DOCKED: ENDBRANCH   1  12
DOCKED: TORSDOF 8
DOCKED: TER
DOCKED: ENDMDL
________________________________________________________________________________


	BEGINNING GENETIC ALGORITHM DOCKING 76 of 100
Run: 76 Seed: 2006325090 601372834 [ Run 76 of 100 GA/GALS ]
Beginning LAMARCKIAN GENETIC ALGORITHM (LGA), with a maximum of 2500000 energy evaluations.

Final-Value: -13.284


	FINAL GENETIC ALGORITHM DOCKED STATE
	_______________________________________________


Detailed state:  trans 27.039 -15.119 -0.095 quatxyzw 0.465550 -0.097240 -0.704152 -0.527236 center 0.185 0.077 0.153 ntor 8 -101.3917 6.8317 64.4628 -151.4250 -86.0922 -117.6282 -117.1426 96.2359
State:	 27.039 -15.119  -0.095   0.548 -0.114 -0.829 -116.362   -101.39    6.83   64.46 -151.43  -86.09 -117.63 -117.14   96.24

DOCKED: MODEL       76
DOCKED: USER    Run = 76
DOCKED: USER    DPF = ligand_dock.biased.dpf
DOCKED: USER  
DOCKED: USER    Estimated Free Energy of Binding    =  -10.11 kcal/mol  [=(1)+(2)+(3)-(4)]
DOCKED: USER    Estimated Inhibition Constant, Ki   =   38.60 nM (nanomolar)  [Temperature = 298.15 K]
DOCKED: USER    
DOCKED: USER    (1) Final Intermolecular Energy     =  -12.50 kcal/mol
DOCKED: USER        vdW + Hbond + desolv Energy     =  -12.50 kcal/mol
DOCKED: USER        Electrostatic Energy            =   +0.00 kcal/mol
DOCKED: USER    (2) Final Total Internal Energy     =   -0.78 kcal/mol
DOCKED: USER    (3) Torsional Free Energy           =   +2.39 kcal/mol
DOCKED: USER    (4) Unbound System's Energy  [=(2)] =   -0.78 kcal/mol
DOCKED: USER    
DOCKED: USER    
DOCKED: USER    NEWDPF move ligand.pdbqt
DOCKED: USER    NEWDPF about 0.185000 0.077000 0.153000
DOCKED: USER    NEWDPF tran0 27.039255 -15.118626 -0.095205
DOCKED: USER    NEWDPF quaternion0 0.465550 -0.097240 -0.704152 -0.527236
DOCKED: USER    NEWDPF axisangle0 0.547887 -0.114438 -0.828688 -116.362238
DOCKED: USER    NEWDPF quat0 0.547887 -0.114438 -0.828688 -116.362238
DOCKED: USER    NEWDPF dihe0 -101.39 6.83 64.46 -151.43 -86.09 -117.63 -117.14 96.24 
DOCKED: USER  keepresnum = 1 
DOCKED: USER  
DOCKED: REMARK  Name = 
DOCKED: REMARK  8 active torsions:
DOCKED: REMARK  status: ('A' for Active; 'I' for Inactive)
DOCKED: REMARK    1  A    between atoms: C_2  and  C_10
DOCKED: REMARK    2  A    between atoms: N_3  and  C_4
DOCKED: REMARK    3  A    between atoms: C_10  and  C_11
DOCKED: REMARK    4  A    between atoms: C_11  and  C_12
DOCKED: REMARK    5  A    between atoms: C_12  and  C_13
DOCKED: REMARK    6  A    between atoms: C_13  and  C_14
DOCKED: REMARK    7  A    between atoms: C_14  and  C_15
DOCKED: REMARK    8  A    between atoms: C_15  and  C_16
DOCKED: REMARK                            x       y       z     vdW  Elec       q    Type
DOCKED: REMARK                         _______ _______ _______ _____ _____    ______ ____
DOCKED: USER                              x       y       z     vdW  Elec       q    Type
DOCKED: USER                           _______ _______ _______ _____ _____    ______ ____
DOCKED: ROOT
DOCKED: ATOM      1  C   UNL     1      27.532 -14.835  -0.006 -0.29 -0.00    +0.000 C 
DOCKED: ENDROOT
DOCKED: BRANCH   1   3
DOCKED: ATOM      2  O   UNL     1      26.406 -13.240   1.365 -0.40 -0.00    +0.000 OA
DOCKED: ATOM      3  C   UNL     1      27.307 -14.119   1.292 -0.28 -0.00    +0.000 C 
DOCKED: ATOM      4  N   UNL     1      28.115 -14.439   2.436 -0.31 -0.00    +0.000 N 
DOCKED: ATOM      5  H   UNL     1      28.680 -15.243   2.392 -1.76 -0.00    +0.000 HD
DOCKED: BRANCH   4   6
DOCKED: ATOM      6  C   UNL     1      28.150 -13.656   3.642 -0.37 -0.00    +0.000 A 
DOCKED: ATOM      7  C   UNL     1      28.502 -14.272   4.853 -0.49 -0.00    +0.000 A 
DOCKED: ATOM      8  C   UNL     1      28.568 -13.527   6.034 -0.36 -0.00    +0.000 A 
DOCKED: ATOM      9  C   UNL     1      28.298 -12.157   6.014 -0.37 +0.00    +0.000 A 
DOCKED: ATOM     10  C   UNL     1      27.969 -11.528   4.810 -0.33 +0.00    +0.000 A 
DOCKED: ATOM     11  C   UNL     1      27.901 -12.270   3.627 -0.27 -0.00    +0.000 A 
DOCKED: ENDBRANCH   4   6
DOCKED: ENDBRANCH   1   3
DOCKED: BRANCH   1  12
DOCKED: ATOM     12  C   UNL     1      26.307 -14.686  -0.915 -0.36 -0.00    +0.000 C 
DOCKED: BRANCH  12  13
DOCKED: ATOM     13  C   UNL     1      25.277 -15.812  -0.722 -0.37 -0.00    +0.000 C 
DOCKED: BRANCH  13  14
DOCKED: ATOM     14  C   UNL     1      25.890 -17.227  -0.796 -0.61 -0.00    +0.000 C 
DOCKED: BRANCH  14  15
DOCKED: ATOM     15  C   UNL     1      24.887 -18.316  -0.376 -0.70 -0.00    +0.000 C 
DOCKED: BRANCH  15  16
DOCKED: ATOM     16  C   UNL     1      23.431 -17.850  -0.511 -0.78 -0.00    +0.000 C 
DOCKED: BRANCH  16  17
DOCKED: ATOM     17  C   UNL     1      22.585 -18.865  -1.223 -0.78 -0.00    +0.000 C 
DOCKED: ATOM     18  N   UNL     1      21.161 -18.837  -1.097 -0.79 -0.00    +0.000 N 
DOCKED: ATOM     19  O   UNL     1      20.397 -19.742  -1.751 -2.24 -0.00    +0.000 OA
DOCKED: ATOM     20  O   UNL     1      23.134 -19.729  -1.959 -0.61 -0.00    +0.000 OA
DOCKED: ATOM     21  H   UNL     1      20.733 -18.154  -0.532 -0.04 -0.00    +0.000 HD
DOCKED: ENDBRANCH  16  17
DOCKED: ENDBRANCH  15  16
DOCKED: ENDBRANCH  14  15
DOCKED: ENDBRANCH  13  14
DOCKED: ENDBRANCH  12  13
DOCKED: ENDBRANCH   1  12
DOCKED: TORSDOF 8
DOCKED: TER
DOCKED: ENDMDL
________________________________________________________________________________


	BEGINNING GENETIC ALGORITHM DOCKING 77 of 100
Run: 77 Seed: 1428614470 534341452 [ Run 77 of 100 GA/GALS ]
Beginning LAMARCKIAN GENETIC ALGORITHM (LGA), with a maximum of 2500000 energy evaluations.

Final-Value: -14.197


	FINAL GENETIC ALGORITHM DOCKED STATE
	_______________________________________________


Detailed state:  trans 27.196 -15.221 -0.191 quatxyzw 0.181467 0.368992 -0.385731 -0.825909 center 0.185 0.077 0.153 ntor 8 -153.9769 173.0891 -179.9833 76.7114 99.1169 161.4588 171.6124 8.9584
State:	 27.196 -15.221  -0.191   0.322  0.654 -0.684 -68.638   -153.98  173.09 -179.98   76.71   99.12  161.46  171.61    8.96

DOCKED: MODEL       77
DOCKED: USER    Run = 77
DOCKED: USER    DPF = ligand_dock.biased.dpf
DOCKED: USER  
DOCKED: USER    Estimated Free Energy of Binding    =  -11.04 kcal/mol  [=(1)+(2)+(3)-(4)]
DOCKED: USER    Estimated Inhibition Constant, Ki   =    8.09 nM (nanomolar)  [Temperature = 298.15 K]
DOCKED: USER    
DOCKED: USER    (1) Final Intermolecular Energy     =  -13.43 kcal/mol
DOCKED: USER        vdW + Hbond + desolv Energy     =  -13.43 kcal/mol
DOCKED: USER        Electrostatic Energy            =   +0.00 kcal/mol
DOCKED: USER    (2) Final Total Internal Energy     =   -0.77 kcal/mol
DOCKED: USER    (3) Torsional Free Energy           =   +2.39 kcal/mol
DOCKED: USER    (4) Unbound System's Energy  [=(2)] =   -0.77 kcal/mol
DOCKED: USER    
DOCKED: USER    
DOCKED: USER    NEWDPF move ligand.pdbqt
DOCKED: USER    NEWDPF about 0.185000 0.077000 0.153000
DOCKED: USER    NEWDPF tran0 27.195791 -15.221207 -0.191148
DOCKED: USER    NEWDPF quaternion0 0.181467 0.368992 -0.385731 -0.825909
DOCKED: USER    NEWDPF axisangle0 0.321863 0.654470 -0.684159 -68.638472
DOCKED: USER    NEWDPF quat0 0.321863 0.654470 -0.684159 -68.638472
DOCKED: USER    NEWDPF dihe0 -153.98 173.09 -179.98 76.71 99.12 161.46 171.61 8.96 
DOCKED: USER  keepresnum = 1 
DOCKED: USER  
DOCKED: REMARK  Name = 
DOCKED: REMARK  8 active torsions:
DOCKED: REMARK  status: ('A' for Active; 'I' for Inactive)
DOCKED: REMARK    1  A    between atoms: C_2  and  C_10
DOCKED: REMARK    2  A    between atoms: N_3  and  C_4
DOCKED: REMARK    3  A    between atoms: C_10  and  C_11
DOCKED: REMARK    4  A    between atoms: C_11  and  C_12
DOCKED: REMARK    5  A    between atoms: C_12  and  C_13
DOCKED: REMARK    6  A    between atoms: C_13  and  C_14
DOCKED: REMARK    7  A    between atoms: C_14  and  C_15
DOCKED: REMARK    8  A    between atoms: C_15  and  C_16
DOCKED: REMARK                            x       y       z     vdW  Elec       q    Type
DOCKED: REMARK                         _______ _______ _______ _____ _____    ______ ____
DOCKED: USER                              x       y       z     vdW  Elec       q    Type
DOCKED: USER                           _______ _______ _______ _____ _____    ______ ____
DOCKED: ROOT
DOCKED: ATOM      1  C   UNL     1      27.069 -14.663  -0.250 -0.31 -0.00    +0.000 C 
DOCKED: ENDROOT
DOCKED: BRANCH   1   3
DOCKED: ATOM      2  O   UNL     1      26.148 -13.380   1.538 -0.37 -0.00    +0.000 OA
DOCKED: ATOM      3  C   UNL     1      27.080 -14.138   1.154 -0.25 -0.00    +0.000 C 
DOCKED: ATOM      4  N   UNL     1      28.146 -14.500   2.046 -0.28 -0.00    +0.000 N 
DOCKED: ATOM      5  H   UNL     1      28.753 -15.224   1.771 -1.36 -0.00    +0.000 HD
DOCKED: BRANCH   4   6
DOCKED: ATOM      6  C   UNL     1      28.384 -13.868   3.315 -0.33 -0.00    +0.000 A 
DOCKED: ATOM      7  C   UNL     1      28.218 -12.479   3.435 -0.24 -0.00    +0.000 A 
DOCKED: ATOM      8  C   UNL     1      28.418 -11.845   4.664 -0.27 +0.00    +0.000 A 
DOCKED: ATOM      9  C   UNL     1      28.771 -12.593   5.789 -0.34 -0.00    +0.000 A 
DOCKED: ATOM     10  C   UNL     1      28.916 -13.980   5.688 -0.33 -0.00    +0.000 A 
DOCKED: ATOM     11  C   UNL     1      28.717 -14.618   4.459 -0.45 -0.00    +0.000 A 
DOCKED: ENDBRANCH   4   6
DOCKED: ENDBRANCH   1   3
DOCKED: BRANCH   1  12
DOCKED: ATOM     12  C   UNL     1      26.310 -15.993  -0.316 -0.37 -0.00    +0.000 C 
DOCKED: BRANCH  12  13
DOCKED: ATOM     13  C   UNL     1      26.312 -16.616  -1.722 -0.50 -0.00    +0.000 C 
DOCKED: BRANCH  13  14
DOCKED: ATOM     14  C   UNL     1      24.916 -17.073  -2.195 -0.59 -0.00    +0.000 C 
DOCKED: BRANCH  14  15
DOCKED: ATOM     15  C   UNL     1      23.846 -16.891  -1.104 -0.63 -0.00    +0.000 C 
DOCKED: BRANCH  15  16
DOCKED: ATOM     16  C   UNL     1      23.360 -18.232  -0.536 -0.81 -0.00    +0.000 C 
DOCKED: BRANCH  16  17
DOCKED: ATOM     17  C   UNL     1      21.931 -18.507  -0.901 -0.82 -0.00    +0.000 C 
DOCKED: ATOM     18  N   UNL     1      21.611 -19.513  -1.865 -0.40 -0.00    +0.000 N 
DOCKED: ATOM     19  O   UNL     1      20.322 -19.772  -2.183 -2.26 -0.00    +0.000 OA
DOCKED: ATOM     20  O   UNL     1      21.007 -17.866  -0.331 -1.94 +0.00    +0.000 OA
DOCKED: ATOM     21  H   UNL     1      22.333 -20.021  -2.300 -0.55 -0.00    +0.000 HD
DOCKED: ENDBRANCH  16  17
DOCKED: ENDBRANCH  15  16
DOCKED: ENDBRANCH  14  15
DOCKED: ENDBRANCH  13  14
DOCKED: ENDBRANCH  12  13
DOCKED: ENDBRANCH   1  12
DOCKED: TORSDOF 8
DOCKED: TER
DOCKED: ENDMDL
________________________________________________________________________________


	BEGINNING GENETIC ALGORITHM DOCKING 78 of 100
Run: 78 Seed: 538019705 2014340527 [ Run 78 of 100 GA/GALS ]
Beginning LAMARCKIAN GENETIC ALGORITHM (LGA), with a maximum of 2500000 energy evaluations.

Final-Value: -12.938


	FINAL GENETIC ALGORITHM DOCKED STATE
	_______________________________________________


Detailed state:  trans 27.189 -17.116 -0.358 quatxyzw -0.001166 0.848327 0.146324 0.508850 center 0.185 0.077 0.153 ntor 8 -112.4256 -109.3805 62.5644 -143.3785 -147.6107 -23.5263 165.2433 79.1368
State:	 27.189 -17.116  -0.358  -0.001  0.985  0.170 118.825   -112.43 -109.38   62.56 -143.38 -147.61  -23.53  165.24   79.14

DOCKED: MODEL       78
DOCKED: USER    Run = 78
DOCKED: USER    DPF = ligand_dock.biased.dpf
DOCKED: USER  
DOCKED: USER    Estimated Free Energy of Binding    =   -9.56 kcal/mol  [=(1)+(2)+(3)-(4)]
DOCKED: USER    Estimated Inhibition Constant, Ki   =   97.78 nM (nanomolar)  [Temperature = 298.15 K]
DOCKED: USER    
DOCKED: USER    (1) Final Intermolecular Energy     =  -11.95 kcal/mol
DOCKED: USER        vdW + Hbond + desolv Energy     =  -11.95 kcal/mol
DOCKED: USER        Electrostatic Energy            =   +0.00 kcal/mol
DOCKED: USER    (2) Final Total Internal Energy     =   -0.99 kcal/mol
DOCKED: USER    (3) Torsional Free Energy           =   +2.39 kcal/mol
DOCKED: USER    (4) Unbound System's Energy  [=(2)] =   -0.99 kcal/mol
DOCKED: USER    
DOCKED: USER    
DOCKED: USER    NEWDPF move ligand.pdbqt
DOCKED: USER    NEWDPF about 0.185000 0.077000 0.153000
DOCKED: USER    NEWDPF tran0 27.189278 -17.115586 -0.357787
DOCKED: USER    NEWDPF quaternion0 -0.001166 0.848327 0.146324 0.508850
DOCKED: USER    NEWDPF axisangle0 -0.001355 0.985447 0.169976 118.825444
DOCKED: USER    NEWDPF quat0 -0.001355 0.985447 0.169976 118.825444
DOCKED: USER    NEWDPF dihe0 -112.43 -109.38 62.56 -143.38 -147.61 -23.53 165.24 79.14 
DOCKED: USER  keepresnum = 1 
DOCKED: USER  
DOCKED: REMARK  Name = 
DOCKED: REMARK  8 active torsions:
DOCKED: REMARK  status: ('A' for Active; 'I' for Inactive)
DOCKED: REMARK    1  A    between atoms: C_2  and  C_10
DOCKED: REMARK    2  A    between atoms: N_3  and  C_4
DOCKED: REMARK    3  A    between atoms: C_10  and  C_11
DOCKED: REMARK    4  A    between atoms: C_11  and  C_12
DOCKED: REMARK    5  A    between atoms: C_12  and  C_13
DOCKED: REMARK    6  A    between atoms: C_13  and  C_14
DOCKED: REMARK    7  A    between atoms: C_14  and  C_15
DOCKED: REMARK    8  A    between atoms: C_15  and  C_16
DOCKED: REMARK                            x       y       z     vdW  Elec       q    Type
DOCKED: REMARK                         _______ _______ _______ _____ _____    ______ ____
DOCKED: USER                              x       y       z     vdW  Elec       q    Type
DOCKED: USER                           _______ _______ _______ _____ _____    ______ ____
DOCKED: ROOT
DOCKED: ATOM      1  C   UNL     1      27.734 -16.931  -0.358 -0.40 -0.00    +0.000 C 
DOCKED: ENDROOT
DOCKED: BRANCH   1   3
DOCKED: ATOM      2  O   UNL     1      28.952 -16.348  -2.325 -0.26 -0.00    +0.000 OA
DOCKED: ATOM      3  C   UNL     1      27.878 -16.229  -1.675 -0.33 -0.00    +0.000 C 
DOCKED: ATOM      4  N   UNL     1      26.797 -15.432  -2.184 -0.31 -0.00    +0.000 N 
DOCKED: ATOM      5  H   UNL     1      25.921 -15.505  -1.742 -0.01 -0.00    +0.000 HD
DOCKED: BRANCH   4   6
DOCKED: ATOM      6  C   UNL     1      26.916 -14.532  -3.300 -0.31 -0.00    +0.000 A 
DOCKED: ATOM      7  C   UNL     1      27.709 -14.899  -4.399 -0.33 -0.00    +0.000 A 
DOCKED: ATOM      8  C   UNL     1      27.820 -14.054  -5.506 -0.31 -0.00    +0.000 A 
DOCKED: ATOM      9  C   UNL     1      27.128 -12.840  -5.533 -0.16 -0.00    +0.000 A 
DOCKED: ATOM     10  C   UNL     1      26.317 -12.475  -4.455 -0.29 -0.00    +0.000 A 
DOCKED: ATOM     11  C   UNL     1      26.205 -13.318  -3.345 -0.23 -0.00    +0.000 A 
DOCKED: ENDBRANCH   4   6
DOCKED: ENDBRANCH   1   3
DOCKED: BRANCH   1  12
DOCKED: ATOM     12  C   UNL     1      27.008 -18.268  -0.543 -0.43 -0.00    +0.000 C 
DOCKED: BRANCH  12  13
DOCKED: ATOM     13  C   UNL     1      25.570 -18.249  -0.000 -0.66 -0.00    +0.000 C 
DOCKED: BRANCH  13  14
DOCKED: ATOM     14  C   UNL     1      24.793 -16.965  -0.359 -0.42 -0.00    +0.000 C 
DOCKED: BRANCH  14  15
DOCKED: ATOM     15  C   UNL     1      23.689 -17.226  -1.400 -0.64 -0.00    +0.000 C 
DOCKED: BRANCH  15  16
DOCKED: ATOM     16  C   UNL     1      23.115 -18.646  -1.296 -0.79 -0.00    +0.000 C 
DOCKED: BRANCH  16  17
DOCKED: ATOM     17  C   UNL     1      21.615 -18.638  -1.249 -0.62 -0.00    +0.000 C 
DOCKED: ATOM     18  N   UNL     1      20.869 -19.733  -1.786 -0.73 -0.00    +0.000 N 
DOCKED: ATOM     19  O   UNL     1      19.518 -19.735  -1.731 -2.14 -0.00    +0.000 OA
DOCKED: ATOM     20  O   UNL     1      21.012 -17.673  -0.707 -2.12 -0.00    +0.000 OA
DOCKED: ATOM     21  H   UNL     1      21.342 -20.492  -2.199 -0.49 -0.00    +0.000 HD
DOCKED: ENDBRANCH  16  17
DOCKED: ENDBRANCH  15  16
DOCKED: ENDBRANCH  14  15
DOCKED: ENDBRANCH  13  14
DOCKED: ENDBRANCH  12  13
DOCKED: ENDBRANCH   1  12
DOCKED: TORSDOF 8
DOCKED: TER
DOCKED: ENDMDL
________________________________________________________________________________


	BEGINNING GENETIC ALGORITHM DOCKING 79 of 100
Run: 79 Seed: 254872680 2126736819 [ Run 79 of 100 GA/GALS ]
Beginning LAMARCKIAN GENETIC ALGORITHM (LGA), with a maximum of 2500000 energy evaluations.

Final-Value: -12.395


	FINAL GENETIC ALGORITHM DOCKED STATE
	_______________________________________________


Detailed state:  trans 26.026 -15.615 -2.242 quatxyzw -0.180388 -0.640984 -0.388059 -0.637190 center 0.185 0.077 0.153 ntor 8 -18.7832 -180.0000 -178.0981 -175.8171 24.9970 -159.4493 139.4882 56.8154
State:	 26.026 -15.615  -2.242  -0.234 -0.832 -0.504 -100.835    -18.78 -180.00 -178.10 -175.82   25.00 -159.45  139.49   56.82

DOCKED: MODEL       79
DOCKED: USER    Run = 79
DOCKED: USER    DPF = ligand_dock.biased.dpf
DOCKED: USER  
DOCKED: USER    Estimated Free Energy of Binding    =   -9.24 kcal/mol  [=(1)+(2)+(3)-(4)]
DOCKED: USER    Estimated Inhibition Constant, Ki   =  169.35 nM (nanomolar)  [Temperature = 298.15 K]
DOCKED: USER    
DOCKED: USER    (1) Final Intermolecular Energy     =  -11.62 kcal/mol
DOCKED: USER        vdW + Hbond + desolv Energy     =  -11.62 kcal/mol
DOCKED: USER        Electrostatic Energy            =   +0.00 kcal/mol
DOCKED: USER    (2) Final Total Internal Energy     =   -0.77 kcal/mol
DOCKED: USER    (3) Torsional Free Energy           =   +2.39 kcal/mol
DOCKED: USER    (4) Unbound System's Energy  [=(2)] =   -0.77 kcal/mol
DOCKED: USER    
DOCKED: USER    
DOCKED: USER    NEWDPF move ligand.pdbqt
DOCKED: USER    NEWDPF about 0.185000 0.077000 0.153000
DOCKED: USER    NEWDPF tran0 26.025709 -15.615354 -2.242481
DOCKED: USER    NEWDPF quaternion0 -0.180388 -0.640984 -0.388059 -0.637190
DOCKED: USER    NEWDPF axisangle0 -0.234056 -0.831683 -0.503510 -100.834855
DOCKED: USER    NEWDPF quat0 -0.234056 -0.831683 -0.503510 -100.834855
DOCKED: USER    NEWDPF dihe0 -18.78 -180.00 -178.10 -175.82 25.00 -159.45 139.49 56.82 
DOCKED: USER  keepresnum = 1 
DOCKED: USER  
DOCKED: REMARK  Name = 
DOCKED: REMARK  8 active torsions:
DOCKED: REMARK  status: ('A' for Active; 'I' for Inactive)
DOCKED: REMARK    1  A    between atoms: C_2  and  C_10
DOCKED: REMARK    2  A    between atoms: N_3  and  C_4
DOCKED: REMARK    3  A    between atoms: C_10  and  C_11
DOCKED: REMARK    4  A    between atoms: C_11  and  C_12
DOCKED: REMARK    5  A    between atoms: C_12  and  C_13
DOCKED: REMARK    6  A    between atoms: C_13  and  C_14
DOCKED: REMARK    7  A    between atoms: C_14  and  C_15
DOCKED: REMARK    8  A    between atoms: C_15  and  C_16
DOCKED: REMARK                            x       y       z     vdW  Elec       q    Type
DOCKED: REMARK                         _______ _______ _______ _____ _____    ______ ____
DOCKED: USER                              x       y       z     vdW  Elec       q    Type
DOCKED: USER                           _______ _______ _______ _____ _____    ______ ____
DOCKED: ROOT
DOCKED: ATOM      1  C   UNL     1      26.536 -15.685  -2.500 -0.44 -0.00    +0.000 C 
DOCKED: ENDROOT
DOCKED: BRANCH   1   3
DOCKED: ATOM      2  O   UNL     1      27.411 -14.709  -4.493 -0.39 -0.00    +0.000 OA
DOCKED: ATOM      3  C   UNL     1      26.536 -14.652  -3.587 -0.44 -0.00    +0.000 C 
DOCKED: ATOM      4  N   UNL     1      25.545 -13.613  -3.588 -0.38 -0.00    +0.000 N 
DOCKED: ATOM      5  H   UNL     1      24.781 -13.702  -2.974 -0.02 -0.00    +0.000 HD
DOCKED: BRANCH   4   6
DOCKED: ATOM      6  C   UNL     1      25.600 -12.448  -4.429 -0.30 -0.00    +0.000 A 
DOCKED: ATOM      7  C   UNL     1      26.850 -11.908  -4.776 -0.21 -0.00    +0.000 A 
DOCKED: ATOM      8  C   UNL     1      26.931 -10.791  -5.613 -0.15 -0.00    +0.000 A 
DOCKED: ATOM      9  C   UNL     1      25.767 -10.213  -6.124 -0.22 -0.00    +0.000 A 
DOCKED: ATOM     10  C   UNL     1      24.519 -10.755  -5.805 -0.38 -0.00    +0.000 A 
DOCKED: ATOM     11  C   UNL     1      24.434 -11.872  -4.967 -0.14 -0.00    +0.000 A 
DOCKED: ENDBRANCH   4   6
DOCKED: ENDBRANCH   1   3
DOCKED: BRANCH   1  12
DOCKED: ATOM     12  C   UNL     1      25.192 -16.421  -2.466 -0.55 -0.00    +0.000 C 
DOCKED: BRANCH  12  13
DOCKED: ATOM     13  C   UNL     1      24.574 -16.476  -1.058 -0.55 -0.00    +0.000 C 
DOCKED: BRANCH  13  14
DOCKED: ATOM     14  C   UNL     1      24.948 -17.748  -0.270 -0.66 -0.00    +0.000 C 
DOCKED: BRANCH  14  15
DOCKED: ATOM     15  C   UNL     1      24.127 -18.971  -0.717 -0.66 -0.00    +0.000 C 
DOCKED: BRANCH  15  16
DOCKED: ATOM     16  C   UNL     1      23.098 -18.617  -1.800 -0.53 -0.00    +0.000 C 
DOCKED: BRANCH  16  17
DOCKED: ATOM     17  C   UNL     1      21.692 -18.698  -1.281 -0.62 -0.00    +0.000 C 
DOCKED: ATOM     18  N   UNL     1      20.772 -19.645  -1.829 -0.74 -0.00    +0.000 N 
DOCKED: ATOM     19  O   UNL     1      19.509 -19.728  -1.351 -2.04 -0.00    +0.000 OA
DOCKED: ATOM     20  O   UNL     1      21.331 -17.944  -0.337 -1.70 -0.00    +0.000 OA
DOCKED: ATOM     21  H   UNL     1      21.059 -20.240  -2.558 -0.50 -0.00    +0.000 HD
DOCKED: ENDBRANCH  16  17
DOCKED: ENDBRANCH  15  16
DOCKED: ENDBRANCH  14  15
DOCKED: ENDBRANCH  13  14
DOCKED: ENDBRANCH  12  13
DOCKED: ENDBRANCH   1  12
DOCKED: TORSDOF 8
DOCKED: TER
DOCKED: ENDMDL
________________________________________________________________________________


	BEGINNING GENETIC ALGORITHM DOCKING 80 of 100
Run: 80 Seed: 458357092 1631812653 [ Run 80 of 100 GA/GALS ]
Beginning LAMARCKIAN GENETIC ALGORITHM (LGA), with a maximum of 2500000 energy evaluations.

Final-Value: -12.862


	FINAL GENETIC ALGORITHM DOCKED STATE
	_______________________________________________


Detailed state:  trans 26.682 -17.041 -0.089 quatxyzw 0.225938 0.837957 0.165854 0.468266 center 0.185 0.077 0.153 ntor 8 -159.1160 46.1439 93.7900 -97.1165 -166.3914 53.2251 160.8529 114.5851
State:	 26.682 -17.041  -0.089   0.256  0.948  0.188 124.156   -159.12   46.14   93.79  -97.12 -166.39   53.23  160.85  114.59

DOCKED: MODEL       80
DOCKED: USER    Run = 80
DOCKED: USER    DPF = ligand_dock.biased.dpf
DOCKED: USER  
DOCKED: USER    Estimated Free Energy of Binding    =   -9.69 kcal/mol  [=(1)+(2)+(3)-(4)]
DOCKED: USER    Estimated Inhibition Constant, Ki   =   79.11 nM (nanomolar)  [Temperature = 298.15 K]
DOCKED: USER    
DOCKED: USER    (1) Final Intermolecular Energy     =  -12.07 kcal/mol
DOCKED: USER        vdW + Hbond + desolv Energy     =  -12.07 kcal/mol
DOCKED: USER        Electrostatic Energy            =   +0.00 kcal/mol
DOCKED: USER    (2) Final Total Internal Energy     =   -0.79 kcal/mol
DOCKED: USER    (3) Torsional Free Energy           =   +2.39 kcal/mol
DOCKED: USER    (4) Unbound System's Energy  [=(2)] =   -0.79 kcal/mol
DOCKED: USER    
DOCKED: USER    
DOCKED: USER    NEWDPF move ligand.pdbqt
DOCKED: USER    NEWDPF about 0.185000 0.077000 0.153000
DOCKED: USER    NEWDPF tran0 26.682347 -17.040930 -0.088957
DOCKED: USER    NEWDPF quaternion0 0.225938 0.837957 0.165854 0.468266
DOCKED: USER    NEWDPF axisangle0 0.255706 0.948357 0.187705 124.156448
DOCKED: USER    NEWDPF quat0 0.255706 0.948357 0.187705 124.156448
DOCKED: USER    NEWDPF dihe0 -159.12 46.14 93.79 -97.12 -166.39 53.23 160.85 114.59 
DOCKED: USER  keepresnum = 1 
DOCKED: USER  
DOCKED: REMARK  Name = 
DOCKED: REMARK  8 active torsions:
DOCKED: REMARK  status: ('A' for Active; 'I' for Inactive)
DOCKED: REMARK    1  A    between atoms: C_2  and  C_10
DOCKED: REMARK    2  A    between atoms: N_3  and  C_4
DOCKED: REMARK    3  A    between atoms: C_10  and  C_11
DOCKED: REMARK    4  A    between atoms: C_11  and  C_12
DOCKED: REMARK    5  A    between atoms: C_12  and  C_13
DOCKED: REMARK    6  A    between atoms: C_13  and  C_14
DOCKED: REMARK    7  A    between atoms: C_14  and  C_15
DOCKED: REMARK    8  A    between atoms: C_15  and  C_16
DOCKED: REMARK                            x       y       z     vdW  Elec       q    Type
DOCKED: REMARK                         _______ _______ _______ _____ _____    ______ ____
DOCKED: USER                              x       y       z     vdW  Elec       q    Type
DOCKED: USER                           _______ _______ _______ _____ _____    ______ ____
DOCKED: ROOT
DOCKED: ATOM      1  C   UNL     1      27.255 -17.097  -0.107 -0.43 -0.00    +0.000 C 
DOCKED: ENDROOT
DOCKED: BRANCH   1   3
DOCKED: ATOM      2  O   UNL     1      28.563 -17.384  -2.081 -0.28 -0.00    +0.000 OA
DOCKED: ATOM      3  C   UNL     1      27.606 -16.776  -1.529 -0.40 -0.00    +0.000 C 
DOCKED: ATOM      4  N   UNL     1      26.855 -15.785  -2.246 -0.33 -0.00    +0.000 N 
DOCKED: ATOM      5  H   UNL     1      26.015 -15.463  -1.846 -0.01 -0.00    +0.000 HD
DOCKED: BRANCH   4   6
DOCKED: ATOM      6  C   UNL     1      27.254 -15.231  -3.511 -0.33 -0.00    +0.000 A 
DOCKED: ATOM      7  C   UNL     1      26.617 -14.074  -3.988 -0.36 -0.00    +0.000 A 
DOCKED: ATOM      8  C   UNL     1      27.004 -13.502  -5.203 -0.24 -0.00    +0.000 A 
DOCKED: ATOM      9  C   UNL     1      28.041 -14.071  -5.946 -0.29 -0.00    +0.000 A 
DOCKED: ATOM     10  C   UNL     1      28.698 -15.208  -5.471 -0.34 -0.00    +0.000 A 
DOCKED: ATOM     11  C   UNL     1      28.313 -15.784  -4.256 -0.25 -0.00    +0.000 A 
DOCKED: ENDBRANCH   4   6
DOCKED: ENDBRANCH   1   3
DOCKED: BRANCH   1  12
DOCKED: ATOM     12  C   UNL     1      26.041 -18.033  -0.056 -0.64 -0.00    +0.000 C 
DOCKED: BRANCH  12  13
DOCKED: ATOM     13  C   UNL     1      24.727 -17.330  -0.436 -0.61 -0.00    +0.000 C 
DOCKED: BRANCH  13  14
DOCKED: ATOM     14  C   UNL     1      24.028 -17.951  -1.664 -0.69 -0.00    +0.000 C 
DOCKED: BRANCH  14  15
DOCKED: ATOM     15  C   UNL     1      23.038 -19.061  -1.268 -0.77 -0.00    +0.000 C 
DOCKED: BRANCH  15  16
DOCKED: ATOM     16  C   UNL     1      21.729 -18.498  -0.699 -0.86 -0.00    +0.000 C 
DOCKED: BRANCH  16  17
DOCKED: ATOM     17  C   UNL     1      20.623 -19.512  -0.736 -0.88 -0.00    +0.000 C 
DOCKED: ATOM     18  N   UNL     1      20.232 -20.199   0.455 -0.71 -0.00    +0.000 N 
DOCKED: ATOM     19  O   UNL     1      19.225 -21.102   0.426 -0.86 -0.00    +0.000 OA
DOCKED: ATOM     20  O   UNL     1      20.019 -19.737  -1.818 -2.39 -0.00    +0.000 OA
DOCKED: ATOM     21  H   UNL     1      20.698 -20.014   1.303 -0.40 -0.00    +0.000 HD
DOCKED: ENDBRANCH  16  17
DOCKED: ENDBRANCH  15  16
DOCKED: ENDBRANCH  14  15
DOCKED: ENDBRANCH  13  14
DOCKED: ENDBRANCH  12  13
DOCKED: ENDBRANCH   1  12
DOCKED: TORSDOF 8
DOCKED: TER
DOCKED: ENDMDL
________________________________________________________________________________


	BEGINNING GENETIC ALGORITHM DOCKING 81 of 100
Run: 81 Seed: 1812618362 1216730316 [ Run 81 of 100 GA/GALS ]
Beginning LAMARCKIAN GENETIC ALGORITHM (LGA), with a maximum of 2500000 energy evaluations.

Final-Value: -12.900


	FINAL GENETIC ALGORITHM DOCKED STATE
	_______________________________________________


Detailed state:  trans 26.533 -16.101 -2.407 quatxyzw 0.178268 0.617331 0.312992 0.699399 center 0.185 0.077 0.153 ntor 8 -44.2594 170.3138 -167.7974 152.2110 40.5086 -179.3381 180.0000 112.2296
State:	 26.533 -16.101  -2.407   0.249  0.864  0.438 91.242    -44.26  170.31 -167.80  152.21   40.51 -179.34  180.00  112.23

DOCKED: MODEL       81
DOCKED: USER    Run = 81
DOCKED: USER    DPF = ligand_dock.biased.dpf
DOCKED: USER  
DOCKED: USER    Estimated Free Energy of Binding    =   -9.63 kcal/mol  [=(1)+(2)+(3)-(4)]
DOCKED: USER    Estimated Inhibition Constant, Ki   =   87.78 nM (nanomolar)  [Temperature = 298.15 K]
DOCKED: USER    
DOCKED: USER    (1) Final Intermolecular Energy     =  -12.01 kcal/mol
DOCKED: USER        vdW + Hbond + desolv Energy     =  -12.01 kcal/mol
DOCKED: USER        Electrostatic Energy            =   +0.00 kcal/mol
DOCKED: USER    (2) Final Total Internal Energy     =   -0.89 kcal/mol
DOCKED: USER    (3) Torsional Free Energy           =   +2.39 kcal/mol
DOCKED: USER    (4) Unbound System's Energy  [=(2)] =   -0.89 kcal/mol
DOCKED: USER    
DOCKED: USER    
DOCKED: USER    NEWDPF move ligand.pdbqt
DOCKED: USER    NEWDPF about 0.185000 0.077000 0.153000
DOCKED: USER    NEWDPF tran0 26.532641 -16.101190 -2.406689
DOCKED: USER    NEWDPF quaternion0 0.178268 0.617331 0.312992 0.699399
DOCKED: USER    NEWDPF axisangle0 0.249420 0.863724 0.437915 91.242350
DOCKED: USER    NEWDPF quat0 0.249420 0.863724 0.437915 91.242350
DOCKED: USER    NEWDPF dihe0 -44.26 170.31 -167.80 152.21 40.51 -179.34 180.00 112.23 
DOCKED: USER  keepresnum = 1 
DOCKED: USER  
DOCKED: REMARK  Name = 
DOCKED: REMARK  8 active torsions:
DOCKED: REMARK  status: ('A' for Active; 'I' for Inactive)
DOCKED: REMARK    1  A    between atoms: C_2  and  C_10
DOCKED: REMARK    2  A    between atoms: N_3  and  C_4
DOCKED: REMARK    3  A    between atoms: C_10  and  C_11
DOCKED: REMARK    4  A    between atoms: C_11  and  C_12
DOCKED: REMARK    5  A    between atoms: C_12  and  C_13
DOCKED: REMARK    6  A    between atoms: C_13  and  C_14
DOCKED: REMARK    7  A    between atoms: C_14  and  C_15
DOCKED: REMARK    8  A    between atoms: C_15  and  C_16
DOCKED: REMARK                            x       y       z     vdW  Elec       q    Type
DOCKED: REMARK                         _______ _______ _______ _____ _____    ______ ____
DOCKED: USER                              x       y       z     vdW  Elec       q    Type
DOCKED: USER                           _______ _______ _______ _____ _____    ______ ____
DOCKED: ROOT
DOCKED: ATOM      1  C   UNL     1      27.009 -16.118  -2.729 -0.33 -0.00    +0.000 C 
DOCKED: ENDROOT
DOCKED: BRANCH   1   3
DOCKED: ATOM      2  O   UNL     1      26.845 -15.555  -5.042 -1.02 +0.00    +0.000 OA
DOCKED: ATOM      3  C   UNL     1      26.721 -15.163  -3.849 -0.48 -0.00    +0.000 C 
DOCKED: ATOM      4  N   UNL     1      26.310 -13.819  -3.557 -0.34 -0.00    +0.000 N 
DOCKED: ATOM      5  H   UNL     1      26.056 -13.604  -2.631 -0.01 -0.00    +0.000 HD
DOCKED: BRANCH   4   6
DOCKED: ATOM      6  C   UNL     1      26.247 -12.765  -4.534 -0.29 -0.00    +0.000 A 
DOCKED: ATOM      7  C   UNL     1      27.281 -12.636  -5.475 -0.20 -0.00    +0.000 A 
DOCKED: ATOM      8  C   UNL     1      27.231 -11.637  -6.450 -0.16 -0.00    +0.000 A 
DOCKED: ATOM      9  C   UNL     1      26.140 -10.766  -6.505 -0.20 -0.00    +0.000 A 
DOCKED: ATOM     10  C   UNL     1      25.093 -10.899  -5.589 -0.34 -0.00    +0.000 A 
DOCKED: ATOM     11  C   UNL     1      25.141 -11.898  -4.611 -0.27 -0.00    +0.000 A 
DOCKED: ENDBRANCH   4   6
DOCKED: ENDBRANCH   1   3
DOCKED: BRANCH   1  12
DOCKED: ATOM     12  C   UNL     1      25.799 -17.024  -2.478 -0.22 -0.00    +0.000 C 
DOCKED: BRANCH  12  13
DOCKED: ATOM     13  C   UNL     1      24.645 -16.299  -1.764 -0.51 -0.00    +0.000 C 
DOCKED: BRANCH  13  14
DOCKED: ATOM     14  C   UNL     1      24.389 -16.810  -0.331 -0.28 -0.00    +0.000 C 
DOCKED: BRANCH  14  15
DOCKED: ATOM     15  C   UNL     1      23.963 -18.289  -0.310 -0.77 -0.00    +0.000 C 
DOCKED: BRANCH  15  16
DOCKED: ATOM     16  C   UNL     1      23.116 -18.669  -1.532 -0.72 -0.00    +0.000 C 
DOCKED: BRANCH  16  17
DOCKED: ATOM     17  C   UNL     1      21.651 -18.701  -1.207 -0.69 -0.00    +0.000 C 
DOCKED: ATOM     18  N   UNL     1      20.804 -19.697  -1.785 -0.75 -0.00    +0.000 N 
DOCKED: ATOM     19  O   UNL     1      19.487 -19.736  -1.480 -2.06 -0.00    +0.000 OA
DOCKED: ATOM     20  O   UNL     1      21.173 -17.862  -0.398 -1.86 -0.00    +0.000 OA
DOCKED: ATOM     21  H   UNL     1      21.182 -20.359  -2.408 -0.51 -0.00    +0.000 HD
DOCKED: ENDBRANCH  16  17
DOCKED: ENDBRANCH  15  16
DOCKED: ENDBRANCH  14  15
DOCKED: ENDBRANCH  13  14
DOCKED: ENDBRANCH  12  13
DOCKED: ENDBRANCH   1  12
DOCKED: TORSDOF 8
DOCKED: TER
DOCKED: ENDMDL
________________________________________________________________________________


	BEGINNING GENETIC ALGORITHM DOCKING 82 of 100
Run: 82 Seed: 1811637099 2071317756 [ Run 82 of 100 GA/GALS ]
Beginning LAMARCKIAN GENETIC ALGORITHM (LGA), with a maximum of 2500000 energy evaluations.

Final-Value: -13.394


	FINAL GENETIC ALGORITHM DOCKED STATE
	_______________________________________________


Detailed state:  trans 27.133 -15.551 -2.931 quatxyzw 0.529629 0.380145 0.457088 0.605024 center 0.185 0.077 0.153 ntor 8 -134.2780 144.9879 166.2302 -59.3519 -142.5350 50.3959 174.3895 -59.1531
State:	 27.133 -15.551  -2.931   0.665  0.477  0.574 105.539   -134.28  144.99  166.23  -59.35 -142.53   50.40  174.39  -59.15

DOCKED: MODEL       82
DOCKED: USER    Run = 82
DOCKED: USER    DPF = ligand_dock.biased.dpf
DOCKED: USER  
DOCKED: USER    Estimated Free Energy of Binding    =  -10.28 kcal/mol  [=(1)+(2)+(3)-(4)]
DOCKED: USER    Estimated Inhibition Constant, Ki   =   29.17 nM (nanomolar)  [Temperature = 298.15 K]
DOCKED: USER    
DOCKED: USER    (1) Final Intermolecular Energy     =  -12.67 kcal/mol
DOCKED: USER        vdW + Hbond + desolv Energy     =  -12.67 kcal/mol
DOCKED: USER        Electrostatic Energy            =   +0.00 kcal/mol
DOCKED: USER    (2) Final Total Internal Energy     =   -0.73 kcal/mol
DOCKED: USER    (3) Torsional Free Energy           =   +2.39 kcal/mol
DOCKED: USER    (4) Unbound System's Energy  [=(2)] =   -0.73 kcal/mol
DOCKED: USER    
DOCKED: USER    
DOCKED: USER    NEWDPF move ligand.pdbqt
DOCKED: USER    NEWDPF about 0.185000 0.077000 0.153000
DOCKED: USER    NEWDPF tran0 27.132542 -15.551307 -2.931450
DOCKED: USER    NEWDPF quaternion0 0.529629 0.380145 0.457088 0.605024
DOCKED: USER    NEWDPF axisangle0 0.665189 0.477444 0.574082 105.538912
DOCKED: USER    NEWDPF quat0 0.665189 0.477444 0.574082 105.538912
DOCKED: USER    NEWDPF dihe0 -134.28 144.99 166.23 -59.35 -142.53 50.40 174.39 -59.15 
DOCKED: USER  keepresnum = 1 
DOCKED: USER  
DOCKED: REMARK  Name = 
DOCKED: REMARK  8 active torsions:
DOCKED: REMARK  status: ('A' for Active; 'I' for Inactive)
DOCKED: REMARK    1  A    between atoms: C_2  and  C_10
DOCKED: REMARK    2  A    between atoms: N_3  and  C_4
DOCKED: REMARK    3  A    between atoms: C_10  and  C_11
DOCKED: REMARK    4  A    between atoms: C_11  and  C_12
DOCKED: REMARK    5  A    between atoms: C_12  and  C_13
DOCKED: REMARK    6  A    between atoms: C_13  and  C_14
DOCKED: REMARK    7  A    between atoms: C_14  and  C_15
DOCKED: REMARK    8  A    between atoms: C_15  and  C_16
DOCKED: REMARK                            x       y       z     vdW  Elec       q    Type
DOCKED: REMARK                         _______ _______ _______ _____ _____    ______ ____
DOCKED: USER                              x       y       z     vdW  Elec       q    Type
DOCKED: USER                           _______ _______ _______ _____ _____    ______ ____
DOCKED: ROOT
DOCKED: ATOM      1  C   UNL     1      27.283 -15.922  -3.345 -0.29 -0.00    +0.000 C 
DOCKED: ENDROOT
DOCKED: BRANCH   1   3
DOCKED: ATOM      2  O   UNL     1      26.666 -15.537  -5.618 -1.18 +0.00    +0.000 OA
DOCKED: ATOM      3  C   UNL     1      27.261 -15.096  -4.597 -0.46 -0.00    +0.000 C 
DOCKED: ATOM      4  N   UNL     1      27.915 -13.818  -4.623 -0.22 -0.00    +0.000 N 
DOCKED: ATOM      5  H   UNL     1      28.212 -13.434  -3.767 +0.01 -0.00    +0.000 HD
DOCKED: BRANCH   4   6
DOCKED: ATOM      6  C   UNL     1      28.163 -13.064  -5.822 -0.21 -0.00    +0.000 A 
DOCKED: ATOM      7  C   UNL     1      29.078 -13.556  -6.767 -0.26 -0.00    +0.000 A 
DOCKED: ATOM      8  C   UNL     1      29.318 -12.855  -7.952 -0.20 -0.00    +0.000 A 
DOCKED: ATOM      9  C   UNL     1      28.635 -11.665  -8.212 -0.18 -0.00    +0.000 A 
DOCKED: ATOM     10  C   UNL     1      27.705 -11.178  -7.291 -0.15 -0.00    +0.000 A 
DOCKED: ATOM     11  C   UNL     1      27.463 -11.876  -6.103 -0.17 -0.00    +0.000 A 
DOCKED: ENDBRANCH   4   6
DOCKED: ENDBRANCH   1   3
DOCKED: BRANCH   1  12
DOCKED: ATOM     12  C   UNL     1      26.037 -15.638  -2.498 -0.49 -0.00    +0.000 C 
DOCKED: BRANCH  12  13
DOCKED: ATOM     13  C   UNL     1      25.102 -16.853  -2.380 -0.54 -0.00    +0.000 C 
DOCKED: BRANCH  13  14
DOCKED: ATOM     14  C   UNL     1      24.940 -17.368  -0.935 -0.68 -0.00    +0.000 C 
DOCKED: BRANCH  14  15
DOCKED: ATOM     15  C   UNL     1      23.504 -17.186  -0.411 -0.60 -0.00    +0.000 C 
DOCKED: BRANCH  15  16
DOCKED: ATOM     16  C   UNL     1      22.803 -18.527  -0.156 -0.79 -0.00    +0.000 C 
DOCKED: BRANCH  16  17
DOCKED: ATOM     17  C   UNL     1      21.487 -18.614  -0.873 -0.84 -0.00    +0.000 C 
DOCKED: ATOM     18  N   UNL     1      21.196 -19.731  -1.717 -0.60 -0.00    +0.000 N 
DOCKED: ATOM     19  O   UNL     1      20.005 -19.818  -2.352 -2.15 -0.00    +0.000 OA
DOCKED: ATOM     20  O   UNL     1      20.625 -17.710  -0.708 -2.23 +0.00    +0.000 OA
DOCKED: ATOM     21  H   UNL     1      21.866 -20.442  -1.836 -0.42 -0.00    +0.000 HD
DOCKED: ENDBRANCH  16  17
DOCKED: ENDBRANCH  15  16
DOCKED: ENDBRANCH  14  15
DOCKED: ENDBRANCH  13  14
DOCKED: ENDBRANCH  12  13
DOCKED: ENDBRANCH   1  12
DOCKED: TORSDOF 8
DOCKED: TER
DOCKED: ENDMDL
________________________________________________________________________________


	BEGINNING GENETIC ALGORITHM DOCKING 83 of 100
Run: 83 Seed: 808425193 2069603127 [ Run 83 of 100 GA/GALS ]
Beginning LAMARCKIAN GENETIC ALGORITHM (LGA), with a maximum of 2500000 energy evaluations.

Final-Value: -13.453


	FINAL GENETIC ALGORITHM DOCKED STATE
	_______________________________________________


Detailed state:  trans 27.563 -15.564 -2.853 quatxyzw 0.168283 0.885411 -0.191958 0.388434 center 0.185 0.077 0.153 ntor 8 -132.3411 122.4592 171.6567 33.5304 -95.5715 80.8348 -11.6996 63.8953
State:	 27.563 -15.564  -2.853   0.183  0.961 -0.208 134.286   -132.34  122.46  171.66   33.53  -95.57   80.83  -11.70   63.90

DOCKED: MODEL       83
DOCKED: USER    Run = 83
DOCKED: USER    DPF = ligand_dock.biased.dpf
DOCKED: USER  
DOCKED: USER    Estimated Free Energy of Binding    =  -10.36 kcal/mol  [=(1)+(2)+(3)-(4)]
DOCKED: USER    Estimated Inhibition Constant, Ki   =   25.50 nM (nanomolar)  [Temperature = 298.15 K]
DOCKED: USER    
DOCKED: USER    (1) Final Intermolecular Energy     =  -12.75 kcal/mol
DOCKED: USER        vdW + Hbond + desolv Energy     =  -12.75 kcal/mol
DOCKED: USER        Electrostatic Energy            =   +0.00 kcal/mol
DOCKED: USER    (2) Final Total Internal Energy     =   -0.71 kcal/mol
DOCKED: USER    (3) Torsional Free Energy           =   +2.39 kcal/mol
DOCKED: USER    (4) Unbound System's Energy  [=(2)] =   -0.71 kcal/mol
DOCKED: USER    
DOCKED: USER    
DOCKED: USER    NEWDPF move ligand.pdbqt
DOCKED: USER    NEWDPF about 0.185000 0.077000 0.153000
DOCKED: USER    NEWDPF tran0 27.562977 -15.563765 -2.853092
DOCKED: USER    NEWDPF quaternion0 0.168283 0.885411 -0.191958 0.388434
DOCKED: USER    NEWDPF axisangle0 0.182623 0.960861 -0.208316 134.285813
DOCKED: USER    NEWDPF quat0 0.182623 0.960861 -0.208316 134.285813
DOCKED: USER    NEWDPF dihe0 -132.34 122.46 171.66 33.53 -95.57 80.83 -11.70 63.90 
DOCKED: USER  keepresnum = 1 
DOCKED: USER  
DOCKED: REMARK  Name = 
DOCKED: REMARK  8 active torsions:
DOCKED: REMARK  status: ('A' for Active; 'I' for Inactive)
DOCKED: REMARK    1  A    between atoms: C_2  and  C_10
DOCKED: REMARK    2  A    between atoms: N_3  and  C_4
DOCKED: REMARK    3  A    between atoms: C_10  and  C_11
DOCKED: REMARK    4  A    between atoms: C_11  and  C_12
DOCKED: REMARK    5  A    between atoms: C_12  and  C_13
DOCKED: REMARK    6  A    between atoms: C_13  and  C_14
DOCKED: REMARK    7  A    between atoms: C_14  and  C_15
DOCKED: REMARK    8  A    between atoms: C_15  and  C_16
DOCKED: REMARK                            x       y       z     vdW  Elec       q    Type
DOCKED: REMARK                         _______ _______ _______ _____ _____    ______ ____
DOCKED: USER                              x       y       z     vdW  Elec       q    Type
DOCKED: USER                           _______ _______ _______ _____ _____    ______ ____
DOCKED: ROOT
DOCKED: ATOM      1  C   UNL     1      28.108 -15.381  -2.890 -0.26 -0.00    +0.000 C 
DOCKED: ENDROOT
DOCKED: BRANCH   1   3
DOCKED: ATOM      2  O   UNL     1      27.732 -15.623  -5.233 -0.87 +0.00    +0.000 OA
DOCKED: ATOM      3  C   UNL     1      28.531 -15.783  -4.271 -0.31 -0.00    +0.000 C 
DOCKED: ATOM      4  N   UNL     1      29.836 -16.343  -4.486 -0.24 -0.00    +0.000 N 
DOCKED: ATOM      5  H   UNL     1      30.489 -16.288  -3.752 +0.00 -0.00    +0.000 HD
DOCKED: BRANCH   4   6
DOCKED: ATOM      6  C   UNL     1      30.248 -16.979  -5.708 -0.29 -0.00    +0.000 A 
DOCKED: ATOM      7  C   UNL     1      30.053 -18.361  -5.864 -0.26 -0.00    +0.000 A 
DOCKED: ATOM      8  C   UNL     1      30.421 -18.998  -7.052 -0.36 -0.00    +0.000 A 
DOCKED: ATOM      9  C   UNL     1      30.975 -18.260  -8.101 -0.31 -0.00    +0.000 A 
DOCKED: ATOM     10  C   UNL     1      31.153 -16.881  -7.966 -0.27 -0.00    +0.000 A 
DOCKED: ATOM     11  C   UNL     1      30.785 -16.239  -6.778 -0.27 -0.00    +0.000 A 
DOCKED: ENDBRANCH   4   6
DOCKED: ENDBRANCH   1   3
DOCKED: BRANCH   1  12
DOCKED: ATOM     12  C   UNL     1      27.358 -16.532  -2.207 -0.34 -0.00    +0.000 C 
DOCKED: BRANCH  12  13
DOCKED: ATOM     13  C   UNL     1      25.943 -16.138  -1.751 -0.52 -0.00    +0.000 C 
DOCKED: BRANCH  13  14
DOCKED: ATOM     14  C   UNL     1      24.931 -17.301  -1.811 -0.65 -0.00    +0.000 C 
DOCKED: BRANCH  14  15
DOCKED: ATOM     15  C   UNL     1      23.688 -17.033  -0.944 -0.66 -0.00    +0.000 C 
DOCKED: BRANCH  15  16
DOCKED: ATOM     16  C   UNL     1      23.030 -18.330  -0.453 -0.82 -0.00    +0.000 C 
DOCKED: BRANCH  16  17
DOCKED: ATOM     17  C   UNL     1      21.606 -18.441  -0.913 -0.80 -0.00    +0.000 C 
DOCKED: ATOM     18  N   UNL     1      21.144 -19.633  -1.555 -0.69 -0.00    +0.000 N 
DOCKED: ATOM     19  O   UNL     1      19.857 -19.740  -1.957 -2.35 -0.00    +0.000 OA
DOCKED: ATOM     20  O   UNL     1      20.807 -17.489  -0.707 -2.08 +0.00    +0.000 OA
DOCKED: ATOM     21  H   UNL     1      21.767 -20.380  -1.706 -0.40 -0.00    +0.000 HD
DOCKED: ENDBRANCH  16  17
DOCKED: ENDBRANCH  15  16
DOCKED: ENDBRANCH  14  15
DOCKED: ENDBRANCH  13  14
DOCKED: ENDBRANCH  12  13
DOCKED: ENDBRANCH   1  12
DOCKED: TORSDOF 8
DOCKED: TER
DOCKED: ENDMDL
________________________________________________________________________________


	BEGINNING GENETIC ALGORITHM DOCKING 84 of 100
Run: 84 Seed: 120604908 1671531730 [ Run 84 of 100 GA/GALS ]
Beginning LAMARCKIAN GENETIC ALGORITHM (LGA), with a maximum of 2500000 energy evaluations.

Final-Value: -13.639


	FINAL GENETIC ALGORITHM DOCKED STATE
	_______________________________________________


Detailed state:  trans 25.195 -15.318 -3.275 quatxyzw -0.054001 -0.899462 0.429395 0.060599 center 0.185 0.077 0.153 ntor 8 -179.3582 99.2538 85.5293 49.8625 120.0288 110.4657 -172.9490 -124.2838
State:	 25.195 -15.318  -3.275  -0.054 -0.901  0.430 173.052   -179.36   99.25   85.53   49.86  120.03  110.47 -172.95 -124.28

DOCKED: MODEL       84
DOCKED: USER    Run = 84
DOCKED: USER    DPF = ligand_dock.biased.dpf
DOCKED: USER  
DOCKED: USER    Estimated Free Energy of Binding    =  -10.41 kcal/mol  [=(1)+(2)+(3)-(4)]
DOCKED: USER    Estimated Inhibition Constant, Ki   =   23.23 nM (nanomolar)  [Temperature = 298.15 K]
DOCKED: USER    
DOCKED: USER    (1) Final Intermolecular Energy     =  -12.80 kcal/mol
DOCKED: USER        vdW + Hbond + desolv Energy     =  -12.80 kcal/mol
DOCKED: USER        Electrostatic Energy            =   +0.00 kcal/mol
DOCKED: USER    (2) Final Total Internal Energy     =   -0.84 kcal/mol
DOCKED: USER    (3) Torsional Free Energy           =   +2.39 kcal/mol
DOCKED: USER    (4) Unbound System's Energy  [=(2)] =   -0.84 kcal/mol
DOCKED: USER    
DOCKED: USER    
DOCKED: USER    NEWDPF move ligand.pdbqt
DOCKED: USER    NEWDPF about 0.185000 0.077000 0.153000
DOCKED: USER    NEWDPF tran0 25.195221 -15.317560 -3.275122
DOCKED: USER    NEWDPF quaternion0 -0.054001 -0.899462 0.429395 0.060599
DOCKED: USER    NEWDPF axisangle0 -0.054101 -0.901118 0.430185 173.051556
DOCKED: USER    NEWDPF quat0 -0.054101 -0.901118 0.430185 173.051556
DOCKED: USER    NEWDPF dihe0 -179.36 99.25 85.53 49.86 120.03 110.47 -172.95 -124.28 
DOCKED: USER  keepresnum = 1 
DOCKED: USER  
DOCKED: REMARK  Name = 
DOCKED: REMARK  8 active torsions:
DOCKED: REMARK  status: ('A' for Active; 'I' for Inactive)
DOCKED: REMARK    1  A    between atoms: C_2  and  C_10
DOCKED: REMARK    2  A    between atoms: N_3  and  C_4
DOCKED: REMARK    3  A    between atoms: C_10  and  C_11
DOCKED: REMARK    4  A    between atoms: C_11  and  C_12
DOCKED: REMARK    5  A    between atoms: C_12  and  C_13
DOCKED: REMARK    6  A    between atoms: C_13  and  C_14
DOCKED: REMARK    7  A    between atoms: C_14  and  C_15
DOCKED: REMARK    8  A    between atoms: C_15  and  C_16
DOCKED: REMARK                            x       y       z     vdW  Elec       q    Type
DOCKED: REMARK                         _______ _______ _______ _____ _____    ______ ____
DOCKED: USER                              x       y       z     vdW  Elec       q    Type
DOCKED: USER                           _______ _______ _______ _____ _____    ______ ____
DOCKED: ROOT
DOCKED: ATOM      1  C   UNL     1      25.494 -14.839  -3.162 -0.53 -0.00    +0.000 C 
DOCKED: ENDROOT
DOCKED: BRANCH   1   3
DOCKED: ATOM      2  O   UNL     1      27.833 -15.142  -2.799 -0.24 -0.00    +0.000 OA
DOCKED: ATOM      3  C   UNL     1      26.882 -15.160  -3.628 -0.44 -0.00    +0.000 C 
DOCKED: ATOM      4  N   UNL     1      27.118 -15.483  -5.008 -0.47 +0.00    +0.000 N 
DOCKED: ATOM      5  H   UNL     1      26.337 -15.658  -5.581 -0.08 +0.00    +0.000 HD
DOCKED: BRANCH   4   6
DOCKED: ATOM      6  C   UNL     1      28.424 -15.564  -5.604 -0.31 -0.00    +0.000 A 
DOCKED: ATOM      7  C   UNL     1      28.796 -14.623  -6.577 -0.32 -0.00    +0.000 A 
DOCKED: ATOM      8  C   UNL     1      30.069 -14.665  -7.154 -0.26 -0.00    +0.000 A 
DOCKED: ATOM      9  C   UNL     1      30.987 -15.639  -6.753 -0.22 -0.00    +0.000 A 
DOCKED: ATOM     10  C   UNL     1      30.636 -16.567  -5.769 -0.24 -0.00    +0.000 A 
DOCKED: ATOM     11  C   UNL     1      29.363 -16.528  -5.190 -0.26 -0.00    +0.000 A 
DOCKED: ENDBRANCH   4   6
DOCKED: ENDBRANCH   1   3
DOCKED: BRANCH   1  12
DOCKED: ATOM     12  C   UNL     1      24.917 -16.012  -2.361 -0.44 -0.00    +0.000 C 
DOCKED: BRANCH  12  13
DOCKED: ATOM     13  C   UNL     1      25.877 -16.526  -1.275 -0.55 -0.00    +0.000 C 
DOCKED: BRANCH  13  14
DOCKED: ATOM     14  C   UNL     1      25.284 -17.662  -0.416 -0.67 -0.00    +0.000 C 
DOCKED: BRANCH  14  15
DOCKED: ATOM     15  C   UNL     1      24.054 -18.309  -1.078 -0.79 -0.00    +0.000 C 
DOCKED: BRANCH  15  16
DOCKED: ATOM     16  C   UNL     1      22.915 -18.553  -0.079 -0.77 -0.00    +0.000 C 
DOCKED: BRANCH  16  17
DOCKED: ATOM     17  C   UNL     1      21.574 -18.552  -0.752 -0.85 -0.00    +0.000 C 
DOCKED: ATOM     18  N   UNL     1      21.091 -19.730  -1.404 -0.72 -0.00    +0.000 N 
DOCKED: ATOM     19  O   UNL     1      19.875 -19.735  -1.998 -2.36 -0.00    +0.000 OA
DOCKED: ATOM     20  O   UNL     1      20.858 -17.515  -0.718 -2.09 +0.00    +0.000 OA
DOCKED: ATOM     21  H   UNL     1      21.646 -20.543  -1.420 -0.19 -0.00    +0.000 HD
DOCKED: ENDBRANCH  16  17
DOCKED: ENDBRANCH  15  16
DOCKED: ENDBRANCH  14  15
DOCKED: ENDBRANCH  13  14
DOCKED: ENDBRANCH  12  13
DOCKED: ENDBRANCH   1  12
DOCKED: TORSDOF 8
DOCKED: TER
DOCKED: ENDMDL
________________________________________________________________________________


	BEGINNING GENETIC ALGORITHM DOCKING 85 of 100
Run: 85 Seed: 2081320052 1886476395 [ Run 85 of 100 GA/GALS ]
Beginning LAMARCKIAN GENETIC ALGORITHM (LGA), with a maximum of 2500000 energy evaluations.

Final-Value: -14.588


	FINAL GENETIC ALGORITHM DOCKED STATE
	_______________________________________________


Detailed state:  trans 27.162 -15.417 -0.107 quatxyzw -0.105460 -0.348238 0.398821 0.841754 center 0.185 0.077 0.153 ntor 8 -140.2944 176.4210 -169.1499 25.1812 145.8752 137.1614 161.7675 -8.5396
State:	 27.162 -15.417  -0.107  -0.195 -0.645  0.739 65.348   -140.29  176.42 -169.15   25.18  145.88  137.16  161.77   -8.54

DOCKED: MODEL       85
DOCKED: USER    Run = 85
DOCKED: USER    DPF = ligand_dock.biased.dpf
DOCKED: USER  
DOCKED: USER    Estimated Free Energy of Binding    =  -11.46 kcal/mol  [=(1)+(2)+(3)-(4)]
DOCKED: USER    Estimated Inhibition Constant, Ki   =    3.96 nM (nanomolar)  [Temperature = 298.15 K]
DOCKED: USER    
DOCKED: USER    (1) Final Intermolecular Energy     =  -13.85 kcal/mol
DOCKED: USER        vdW + Hbond + desolv Energy     =  -13.85 kcal/mol
DOCKED: USER        Electrostatic Energy            =   +0.00 kcal/mol
DOCKED: USER    (2) Final Total Internal Energy     =   -0.74 kcal/mol
DOCKED: USER    (3) Torsional Free Energy           =   +2.39 kcal/mol
DOCKED: USER    (4) Unbound System's Energy  [=(2)] =   -0.74 kcal/mol
DOCKED: USER    
DOCKED: USER    
DOCKED: USER    NEWDPF move ligand.pdbqt
DOCKED: USER    NEWDPF about 0.185000 0.077000 0.153000
DOCKED: USER    NEWDPF tran0 27.162204 -15.417373 -0.107008
DOCKED: USER    NEWDPF quaternion0 -0.105460 -0.348238 0.398821 0.841754
DOCKED: USER    NEWDPF axisangle0 -0.195346 -0.645051 0.738748 65.348310
DOCKED: USER    NEWDPF quat0 -0.195346 -0.645051 0.738748 65.348310
DOCKED: USER    NEWDPF dihe0 -140.29 176.42 -169.15 25.18 145.88 137.16 161.77 -8.54 
DOCKED: USER  keepresnum = 1 
DOCKED: USER  
DOCKED: REMARK  Name = 
DOCKED: REMARK  8 active torsions:
DOCKED: REMARK  status: ('A' for Active; 'I' for Inactive)
DOCKED: REMARK    1  A    between atoms: C_2  and  C_10
DOCKED: REMARK    2  A    between atoms: N_3  and  C_4
DOCKED: REMARK    3  A    between atoms: C_10  and  C_11
DOCKED: REMARK    4  A    between atoms: C_11  and  C_12
DOCKED: REMARK    5  A    between atoms: C_12  and  C_13
DOCKED: REMARK    6  A    between atoms: C_13  and  C_14
DOCKED: REMARK    7  A    between atoms: C_14  and  C_15
DOCKED: REMARK    8  A    between atoms: C_15  and  C_16
DOCKED: REMARK                            x       y       z     vdW  Elec       q    Type
DOCKED: REMARK                         _______ _______ _______ _____ _____    ______ ____
DOCKED: USER                              x       y       z     vdW  Elec       q    Type
DOCKED: USER                           _______ _______ _______ _____ _____    ______ ____
DOCKED: ROOT
DOCKED: ATOM      1  C   UNL     1      27.012 -14.880  -0.250 -0.33 -0.00    +0.000 C 
DOCKED: ENDROOT
DOCKED: BRANCH   1   3
DOCKED: ATOM      2  O   UNL     1      26.172 -13.233   1.257 -0.41 -0.00    +0.000 OA
DOCKED: ATOM      3  C   UNL     1      27.022 -14.142   1.055 -0.26 -0.00    +0.000 C 
DOCKED: ATOM      4  N   UNL     1      27.995 -14.473   2.058 -0.30 -0.00    +0.000 N 
DOCKED: ATOM      5  H   UNL     1      28.522 -15.295   1.937 -1.38 -0.00    +0.000 HD
DOCKED: BRANCH   4   6
DOCKED: ATOM      6  C   UNL     1      28.249 -13.676   3.228 -0.32 -0.00    +0.000 A 
DOCKED: ATOM      7  C   UNL     1      28.177 -12.276   3.137 -0.22 -0.00    +0.000 A 
DOCKED: ATOM      8  C   UNL     1      28.394 -11.481   4.265 -0.24 +0.00    +0.000 A 
DOCKED: ATOM      9  C   UNL     1      28.670 -12.076   5.498 -0.31 -0.00    +0.000 A 
DOCKED: ATOM     10  C   UNL     1      28.721 -13.468   5.607 -0.41 -0.00    +0.000 A 
DOCKED: ATOM     11  C   UNL     1      28.505 -14.267   4.479 -0.47 -0.00    +0.000 A 
DOCKED: ENDBRANCH   4   6
DOCKED: ENDBRANCH   1   3
DOCKED: BRANCH   1  12
DOCKED: ATOM     12  C   UNL     1      26.307 -16.232  -0.091 -0.22 -0.00    +0.000 C 
DOCKED: BRANCH  12  13
DOCKED: ATOM     13  C   UNL     1      25.932 -16.874  -1.438 -0.57 -0.00    +0.000 C 
DOCKED: BRANCH  13  14
DOCKED: ATOM     14  C   UNL     1      24.761 -17.875  -1.338 -0.70 -0.00    +0.000 C 
DOCKED: BRANCH  14  15
DOCKED: ATOM     15  C   UNL     1      23.627 -17.352  -0.439 -0.66 -0.00    +0.000 C 
DOCKED: BRANCH  15  16
DOCKED: ATOM     16  C   UNL     1      22.697 -18.476   0.039 -0.76 -0.00    +0.000 C 
DOCKED: BRANCH  16  17
DOCKED: ATOM     17  C   UNL     1      21.419 -18.514  -0.747 -0.85 -0.00    +0.000 C 
DOCKED: ATOM     18  N   UNL     1      21.043 -19.694  -1.461 -0.74 -0.00    +0.000 N 
DOCKED: ATOM     19  O   UNL     1      19.884 -19.734  -2.156 -2.33 -0.00    +0.000 OA
DOCKED: ATOM     20  O   UNL     1      20.660 -17.507  -0.753 -2.10 +0.00    +0.000 OA
DOCKED: ATOM     21  H   UNL     1      21.632 -20.483  -1.446 -0.28 -0.00    +0.000 HD
DOCKED: ENDBRANCH  16  17
DOCKED: ENDBRANCH  15  16
DOCKED: ENDBRANCH  14  15
DOCKED: ENDBRANCH  13  14
DOCKED: ENDBRANCH  12  13
DOCKED: ENDBRANCH   1  12
DOCKED: TORSDOF 8
DOCKED: TER
DOCKED: ENDMDL
________________________________________________________________________________


	BEGINNING GENETIC ALGORITHM DOCKING 86 of 100
Run: 86 Seed: 1442212807 1720536403 [ Run 86 of 100 GA/GALS ]
Beginning LAMARCKIAN GENETIC ALGORITHM (LGA), with a maximum of 2500000 energy evaluations.

Final-Value: -14.449


	FINAL GENETIC ALGORITHM DOCKED STATE
	_______________________________________________


Detailed state:  trans 27.444 -15.221 0.060 quatxyzw -0.012489 0.455931 -0.206999 -0.865519 center 0.185 0.077 0.153 ntor 8 -172.7531 -179.9864 162.2381 48.6400 180.0000 169.2795 132.6845 -5.6015
State:	 27.444 -15.221   0.060  -0.025  0.910 -0.413 -60.116   -172.75 -179.99  162.24   48.64  180.00  169.28  132.68   -5.60

DOCKED: MODEL       86
DOCKED: USER    Run = 86
DOCKED: USER    DPF = ligand_dock.biased.dpf
DOCKED: USER  
DOCKED: USER    Estimated Free Energy of Binding    =  -11.30 kcal/mol  [=(1)+(2)+(3)-(4)]
DOCKED: USER    Estimated Inhibition Constant, Ki   =    5.19 nM (nanomolar)  [Temperature = 298.15 K]
DOCKED: USER    
DOCKED: USER    (1) Final Intermolecular Energy     =  -13.69 kcal/mol
DOCKED: USER        vdW + Hbond + desolv Energy     =  -13.69 kcal/mol
DOCKED: USER        Electrostatic Energy            =   +0.00 kcal/mol
DOCKED: USER    (2) Final Total Internal Energy     =   -0.76 kcal/mol
DOCKED: USER    (3) Torsional Free Energy           =   +2.39 kcal/mol
DOCKED: USER    (4) Unbound System's Energy  [=(2)] =   -0.76 kcal/mol
DOCKED: USER    
DOCKED: USER    
DOCKED: USER    NEWDPF move ligand.pdbqt
DOCKED: USER    NEWDPF about 0.185000 0.077000 0.153000
DOCKED: USER    NEWDPF tran0 27.444246 -15.220631 0.060435
DOCKED: USER    NEWDPF quaternion0 -0.012489 0.455931 -0.206999 -0.865519
DOCKED: USER    NEWDPF axisangle0 -0.024935 0.910266 -0.413273 -60.115991
DOCKED: USER    NEWDPF quat0 -0.024935 0.910266 -0.413273 -60.115991
DOCKED: USER    NEWDPF dihe0 -172.75 -179.99 162.24 48.64 180.00 169.28 132.68 -5.60 
DOCKED: USER  keepresnum = 1 
DOCKED: USER  
DOCKED: REMARK  Name = 
DOCKED: REMARK  8 active torsions:
DOCKED: REMARK  status: ('A' for Active; 'I' for Inactive)
DOCKED: REMARK    1  A    between atoms: C_2  and  C_10
DOCKED: REMARK    2  A    between atoms: N_3  and  C_4
DOCKED: REMARK    3  A    between atoms: C_10  and  C_11
DOCKED: REMARK    4  A    between atoms: C_11  and  C_12
DOCKED: REMARK    5  A    between atoms: C_12  and  C_13
DOCKED: REMARK    6  A    between atoms: C_13  and  C_14
DOCKED: REMARK    7  A    between atoms: C_14  and  C_15
DOCKED: REMARK    8  A    between atoms: C_15  and  C_16
DOCKED: REMARK                            x       y       z     vdW  Elec       q    Type
DOCKED: REMARK                         _______ _______ _______ _____ _____    ______ ____
DOCKED: USER                              x       y       z     vdW  Elec       q    Type
DOCKED: USER                           _______ _______ _______ _____ _____    ______ ____
DOCKED: ROOT
DOCKED: ATOM      1  C   UNL     1      27.051 -14.807  -0.014 -0.32 -0.00    +0.000 C 
DOCKED: ENDROOT
DOCKED: BRANCH   1   3
DOCKED: ATOM      2  O   UNL     1      26.159 -13.196   1.503 -0.41 -0.00    +0.000 OA
DOCKED: ATOM      3  C   UNL     1      27.022 -14.094   1.305 -0.22 -0.00    +0.000 C 
DOCKED: ATOM      4  N   UNL     1      27.971 -14.438   2.326 -0.31 -0.00    +0.000 N 
DOCKED: ATOM      5  H   UNL     1      28.508 -15.254   2.203 -1.54 -0.00    +0.000 HD
DOCKED: BRANCH   4   6
DOCKED: ATOM      6  C   UNL     1      28.189 -13.663   3.518 -0.35 -0.00    +0.000 A 
DOCKED: ATOM      7  C   UNL     1      28.033 -12.268   3.470 -0.25 -0.00    +0.000 A 
DOCKED: ATOM      8  C   UNL     1      28.214 -11.495   4.620 -0.29 +0.00    +0.000 A 
DOCKED: ATOM      9  C   UNL     1      28.537 -12.108   5.832 -0.35 +0.00    +0.000 A 
DOCKED: ATOM     10  C   UNL     1      28.671 -13.498   5.898 -0.39 -0.00    +0.000 A 
DOCKED: ATOM     11  C   UNL     1      28.492 -14.275   4.749 -0.48 -0.00    +0.000 A 
DOCKED: ENDBRANCH   4   6
DOCKED: ENDBRANCH   1   3
DOCKED: BRANCH   1  12
DOCKED: ATOM     12  C   UNL     1      27.049 -16.325   0.201 -0.31 -0.00    +0.000 C 
DOCKED: BRANCH  12  13
DOCKED: ATOM     13  C   UNL     1      26.779 -17.113  -1.092 -0.52 -0.00    +0.000 C 
DOCKED: BRANCH  13  14
DOCKED: ATOM     14  C   UNL     1      25.576 -18.074  -0.987 -0.60 -0.00    +0.000 C 
DOCKED: BRANCH  14  15
DOCKED: ATOM     15  C   UNL     1      24.231 -17.332  -1.079 -0.72 -0.00    +0.000 C 
DOCKED: BRANCH  15  16
DOCKED: ATOM     16  C   UNL     1      23.207 -17.855  -0.063 -0.69 -0.00    +0.000 C 
DOCKED: BRANCH  16  17
DOCKED: ATOM     17  C   UNL     1      21.887 -18.163  -0.709 -0.84 -0.00    +0.000 C 
DOCKED: ATOM     18  N   UNL     1      21.633 -19.461  -1.251 -0.70 -0.00    +0.000 N 
DOCKED: ATOM     19  O   UNL     1      20.438 -19.743  -1.820 -2.24 -0.00    +0.000 OA
DOCKED: ATOM     20  O   UNL     1      20.990 -17.278  -0.747 -1.89 +0.00    +0.000 OA
DOCKED: ATOM     21  H   UNL     1      22.331 -20.154  -1.210 -0.26 -0.00    +0.000 HD
DOCKED: ENDBRANCH  16  17
DOCKED: ENDBRANCH  15  16
DOCKED: ENDBRANCH  14  15
DOCKED: ENDBRANCH  13  14
DOCKED: ENDBRANCH  12  13
DOCKED: ENDBRANCH   1  12
DOCKED: TORSDOF 8
DOCKED: TER
DOCKED: ENDMDL
________________________________________________________________________________


	BEGINNING GENETIC ALGORITHM DOCKING 87 of 100
Run: 87 Seed: 72103605 1281251770 [ Run 87 of 100 GA/GALS ]
Beginning LAMARCKIAN GENETIC ALGORITHM (LGA), with a maximum of 2500000 energy evaluations.

Final-Value: -12.954


	FINAL GENETIC ALGORITHM DOCKED STATE
	_______________________________________________


Detailed state:  trans 25.884 -15.905 -0.943 quatxyzw -0.387498 0.845552 -0.325874 0.169388 center 0.185 0.077 0.153 ntor 8 -172.4950 -127.0481 151.4388 48.3160 -173.9419 -151.1965 75.8776 111.2809
State:	 25.884 -15.905  -0.943  -0.393  0.858 -0.331 160.495   -172.49 -127.05  151.44   48.32 -173.94 -151.20   75.88  111.28

DOCKED: MODEL       87
DOCKED: USER    Run = 87
DOCKED: USER    DPF = ligand_dock.biased.dpf
DOCKED: USER  
DOCKED: USER    Estimated Free Energy of Binding    =   -9.76 kcal/mol  [=(1)+(2)+(3)-(4)]
DOCKED: USER    Estimated Inhibition Constant, Ki   =   70.28 nM (nanomolar)  [Temperature = 298.15 K]
DOCKED: USER    
DOCKED: USER    (1) Final Intermolecular Energy     =  -12.15 kcal/mol
DOCKED: USER        vdW + Hbond + desolv Energy     =  -12.15 kcal/mol
DOCKED: USER        Electrostatic Energy            =   +0.00 kcal/mol
DOCKED: USER    (2) Final Total Internal Energy     =   -0.81 kcal/mol
DOCKED: USER    (3) Torsional Free Energy           =   +2.39 kcal/mol
DOCKED: USER    (4) Unbound System's Energy  [=(2)] =   -0.81 kcal/mol
DOCKED: USER    
DOCKED: USER    
DOCKED: USER    NEWDPF move ligand.pdbqt
DOCKED: USER    NEWDPF about 0.185000 0.077000 0.153000
DOCKED: USER    NEWDPF tran0 25.884473 -15.904542 -0.942853
DOCKED: USER    NEWDPF quaternion0 -0.387498 0.845552 -0.325874 0.169388
DOCKED: USER    NEWDPF axisangle0 -0.393180 0.857950 -0.330652 160.495501
DOCKED: USER    NEWDPF quat0 -0.393180 0.857950 -0.330652 160.495501
DOCKED: USER    NEWDPF dihe0 -172.49 -127.05 151.44 48.32 -173.94 -151.20 75.88 111.28 
DOCKED: USER  keepresnum = 1 
DOCKED: USER  
DOCKED: REMARK  Name = 
DOCKED: REMARK  8 active torsions:
DOCKED: REMARK  status: ('A' for Active; 'I' for Inactive)
DOCKED: REMARK    1  A    between atoms: C_2  and  C_10
DOCKED: REMARK    2  A    between atoms: N_3  and  C_4
DOCKED: REMARK    3  A    between atoms: C_10  and  C_11
DOCKED: REMARK    4  A    between atoms: C_11  and  C_12
DOCKED: REMARK    5  A    between atoms: C_12  and  C_13
DOCKED: REMARK    6  A    between atoms: C_13  and  C_14
DOCKED: REMARK    7  A    between atoms: C_14  and  C_15
DOCKED: REMARK    8  A    between atoms: C_15  and  C_16
DOCKED: REMARK                            x       y       z     vdW  Elec       q    Type
DOCKED: REMARK                         _______ _______ _______ _____ _____    ______ ____
DOCKED: USER                              x       y       z     vdW  Elec       q    Type
DOCKED: USER                           _______ _______ _______ _____ _____    ______ ____
DOCKED: ROOT
DOCKED: ATOM      1  C   UNL     1      25.889 -15.331  -0.897 -0.42 -0.00    +0.000 C 
DOCKED: ENDROOT
DOCKED: BRANCH   1   3
DOCKED: ATOM      2  O   UNL     1      25.811 -13.980  -2.862 -0.38 -0.00    +0.000 OA
DOCKED: ATOM      3  C   UNL     1      26.432 -14.867  -2.216 -0.38 -0.00    +0.000 C 
DOCKED: ATOM      4  N   UNL     1      27.648 -15.433  -2.729 -0.25 -0.00    +0.000 N 
DOCKED: ATOM      5  H   UNL     1      28.191 -15.986  -2.124 -0.00 -0.00    +0.000 HD
DOCKED: BRANCH   4   6
DOCKED: ATOM      6  C   UNL     1      28.119 -15.243  -4.074 -0.29 -0.00    +0.000 A 
DOCKED: ATOM      7  C   UNL     1      27.644 -14.154  -4.823 -0.30 -0.00    +0.000 A 
DOCKED: ATOM      8  C   UNL     1      28.106 -13.934  -6.124 -0.27 -0.00    +0.000 A 
DOCKED: ATOM      9  C   UNL     1      29.058 -14.789  -6.683 -0.32 -0.00    +0.000 A 
DOCKED: ATOM     10  C   UNL     1      29.556 -15.862  -5.939 -0.32 -0.00    +0.000 A 
DOCKED: ATOM     11  C   UNL     1      29.096 -16.086  -4.638 -0.26 -0.00    +0.000 A 
DOCKED: ENDBRANCH   4   6
DOCKED: ENDBRANCH   1   3
DOCKED: BRANCH   1  12
DOCKED: ATOM     12  C   UNL     1      26.722 -16.501  -0.360 -0.47 -0.00    +0.000 C 
DOCKED: BRANCH  12  13
DOCKED: ATOM     13  C   UNL     1      26.436 -17.824  -1.090 -0.50 -0.00    +0.000 C 
DOCKED: BRANCH  13  14
DOCKED: ATOM     14  C   UNL     1      25.215 -18.585  -0.531 -0.62 -0.00    +0.000 C 
DOCKED: BRANCH  14  15
DOCKED: ATOM     15  C   UNL     1      23.889 -18.060  -1.111 -0.78 -0.00    +0.000 C 
DOCKED: BRANCH  15  16
DOCKED: ATOM     16  C   UNL     1      22.792 -17.945  -0.044 -0.73 -0.00    +0.000 C 
DOCKED: BRANCH  16  17
DOCKED: ATOM     17  C   UNL     1      21.452 -18.360  -0.576 -0.80 -0.00    +0.000 C 
DOCKED: ATOM     18  N   UNL     1      21.031 -19.724  -0.490 -0.75 -0.00    +0.000 N 
DOCKED: ATOM     19  O   UNL     1      19.816 -20.096  -0.956 -1.82 -0.00    +0.000 OA
DOCKED: ATOM     20  O   UNL     1      20.683 -17.495  -1.075 -2.09 -0.00    +0.000 OA
DOCKED: ATOM     21  H   UNL     1      21.628 -20.396  -0.090 -0.40 -0.00    +0.000 HD
DOCKED: ENDBRANCH  16  17
DOCKED: ENDBRANCH  15  16
DOCKED: ENDBRANCH  14  15
DOCKED: ENDBRANCH  13  14
DOCKED: ENDBRANCH  12  13
DOCKED: ENDBRANCH   1  12
DOCKED: TORSDOF 8
DOCKED: TER
DOCKED: ENDMDL
________________________________________________________________________________


	BEGINNING GENETIC ALGORITHM DOCKING 88 of 100
Run: 88 Seed: 870865388 729625853 [ Run 88 of 100 GA/GALS ]
Beginning LAMARCKIAN GENETIC ALGORITHM (LGA), with a maximum of 2500000 energy evaluations.

Final-Value: -12.493


	FINAL GENETIC ALGORITHM DOCKED STATE
	_______________________________________________


Detailed state:  trans 26.098 -14.582 -3.352 quatxyzw 0.239611 0.964723 -0.036585 0.102755 center 0.185 0.077 0.153 ntor 8 -80.3397 -161.0148 111.7144 -114.6570 -177.5693 18.2795 29.7683 -86.2973
State:	 26.098 -14.582  -3.352   0.241  0.970 -0.037 168.204    -80.34 -161.01  111.71 -114.66 -177.57   18.28   29.77  -86.30

DOCKED: MODEL       88
DOCKED: USER    Run = 88
DOCKED: USER    DPF = ligand_dock.biased.dpf
DOCKED: USER  
DOCKED: USER    Estimated Free Energy of Binding    =   -9.38 kcal/mol  [=(1)+(2)+(3)-(4)]
DOCKED: USER    Estimated Inhibition Constant, Ki   =  133.72 nM (nanomolar)  [Temperature = 298.15 K]
DOCKED: USER    
DOCKED: USER    (1) Final Intermolecular Energy     =  -11.76 kcal/mol
DOCKED: USER        vdW + Hbond + desolv Energy     =  -11.76 kcal/mol
DOCKED: USER        Electrostatic Energy            =   +0.00 kcal/mol
DOCKED: USER    (2) Final Total Internal Energy     =   -0.73 kcal/mol
DOCKED: USER    (3) Torsional Free Energy           =   +2.39 kcal/mol
DOCKED: USER    (4) Unbound System's Energy  [=(2)] =   -0.73 kcal/mol
DOCKED: USER    
DOCKED: USER    
DOCKED: USER    NEWDPF move ligand.pdbqt
DOCKED: USER    NEWDPF about 0.185000 0.077000 0.153000
DOCKED: USER    NEWDPF tran0 26.097887 -14.582086 -3.351698
DOCKED: USER    NEWDPF quaternion0 0.239611 0.964723 -0.036585 0.102755
DOCKED: USER    NEWDPF axisangle0 0.240886 0.969856 -0.036780 168.204308
DOCKED: USER    NEWDPF quat0 0.240886 0.969856 -0.036780 168.204308
DOCKED: USER    NEWDPF dihe0 -80.34 -161.01 111.71 -114.66 -177.57 18.28 29.77 -86.30 
DOCKED: USER  keepresnum = 1 
DOCKED: USER  
DOCKED: REMARK  Name = 
DOCKED: REMARK  8 active torsions:
DOCKED: REMARK  status: ('A' for Active; 'I' for Inactive)
DOCKED: REMARK    1  A    between atoms: C_2  and  C_10
DOCKED: REMARK    2  A    between atoms: N_3  and  C_4
DOCKED: REMARK    3  A    between atoms: C_10  and  C_11
DOCKED: REMARK    4  A    between atoms: C_11  and  C_12
DOCKED: REMARK    5  A    between atoms: C_12  and  C_13
DOCKED: REMARK    6  A    between atoms: C_13  and  C_14
DOCKED: REMARK    7  A    between atoms: C_14  and  C_15
DOCKED: REMARK    8  A    between atoms: C_15  and  C_16
DOCKED: REMARK                            x       y       z     vdW  Elec       q    Type
DOCKED: REMARK                         _______ _______ _______ _____ _____    ______ ____
DOCKED: USER                              x       y       z     vdW  Elec       q    Type
DOCKED: USER                           _______ _______ _______ _____ _____    ______ ____
DOCKED: ROOT
DOCKED: ATOM      1  C   UNL     1      26.558 -14.483  -3.020 -0.38 -0.00    +0.000 C 
DOCKED: ENDROOT
DOCKED: BRANCH   1   3
DOCKED: ATOM      2  O   UNL     1      28.139 -13.909  -4.711 -0.23 -0.00    +0.000 OA
DOCKED: ATOM      3  C   UNL     1      27.722 -14.792  -3.914 -0.32 -0.00    +0.000 C 
DOCKED: ATOM      4  N   UNL     1      28.348 -16.083  -3.855 -0.27 -0.00    +0.000 N 
DOCKED: ATOM      5  H   UNL     1      28.112 -16.677  -3.107 -0.02 -0.00    +0.000 HD
DOCKED: BRANCH   4   6
DOCKED: ATOM      6  C   UNL     1      29.297 -16.562  -4.823 -0.23 -0.00    +0.000 A 
DOCKED: ATOM      7  C   UNL     1      29.444 -15.878  -6.040 -0.31 -0.00    +0.000 A 
DOCKED: ATOM      8  C   UNL     1      30.378 -16.310  -6.987 -0.29 -0.00    +0.000 A 
DOCKED: ATOM      9  C   UNL     1      31.184 -17.419  -6.720 -0.26 -0.00    +0.000 A 
DOCKED: ATOM     10  C   UNL     1      31.063 -18.094  -5.503 -0.24 -0.00    +0.000 A 
DOCKED: ATOM     11  C   UNL     1      30.129 -17.666  -4.553 -0.24 -0.00    +0.000 A 
DOCKED: ENDBRANCH   4   6
DOCKED: ENDBRANCH   1   3
DOCKED: BRANCH   1  12
DOCKED: ATOM     12  C   UNL     1      25.486 -15.571  -3.147 -0.55 -0.00    +0.000 C 
DOCKED: BRANCH  12  13
DOCKED: ATOM     13  C   UNL     1      25.720 -16.757  -2.195 -0.54 -0.00    +0.000 C 
DOCKED: BRANCH  13  14
DOCKED: ATOM     14  C   UNL     1      25.144 -16.534  -0.780 -0.54 -0.00    +0.000 C 
DOCKED: BRANCH  14  15
DOCKED: ATOM     15  C   UNL     1      23.625 -16.776  -0.728 -0.55 -0.00    +0.000 C 
DOCKED: BRANCH  15  16
DOCKED: ATOM     16  C   UNL     1      23.247 -18.200  -1.157 -0.79 -0.00    +0.000 C 
DOCKED: BRANCH  16  17
DOCKED: ATOM     17  C   UNL     1      21.766 -18.429  -1.085 -0.76 -0.00    +0.000 C 
DOCKED: ATOM     18  N   UNL     1      21.215 -19.707  -1.412 -0.68 -0.00    +0.000 N 
DOCKED: ATOM     19  O   UNL     1      19.881 -19.918  -1.333 -2.10 -0.00    +0.000 OA
DOCKED: ATOM     20  O   UNL     1      21.008 -17.496  -0.706 -2.08 -0.00    +0.000 OA
DOCKED: ATOM     21  H   UNL     1      21.809 -20.438  -1.697 -0.38 -0.00    +0.000 HD
DOCKED: ENDBRANCH  16  17
DOCKED: ENDBRANCH  15  16
DOCKED: ENDBRANCH  14  15
DOCKED: ENDBRANCH  13  14
DOCKED: ENDBRANCH  12  13
DOCKED: ENDBRANCH   1  12
DOCKED: TORSDOF 8
DOCKED: TER
DOCKED: ENDMDL
________________________________________________________________________________


	BEGINNING GENETIC ALGORITHM DOCKING 89 of 100
Run: 89 Seed: 823935732 1027918701 [ Run 89 of 100 GA/GALS ]
Beginning LAMARCKIAN GENETIC ALGORITHM (LGA), with a maximum of 2500000 energy evaluations.

Final-Value: -12.151


	FINAL GENETIC ALGORITHM DOCKED STATE
	_______________________________________________


Detailed state:  trans 26.509 -15.740 -1.441 quatxyzw -0.329666 -0.137685 0.782349 0.510189 center 0.185 0.077 0.153 ntor 8 -82.9718 -153.9197 -179.6585 -70.6533 -160.7152 -15.4300 16.6653 59.4447
State:	 26.509 -15.740  -1.441  -0.383 -0.160  0.910 118.647    -82.97 -153.92 -179.66  -70.65 -160.72  -15.43   16.67   59.44

DOCKED: MODEL       89
DOCKED: USER    Run = 89
DOCKED: USER    DPF = ligand_dock.biased.dpf
DOCKED: USER  
DOCKED: USER    Estimated Free Energy of Binding    =   -8.98 kcal/mol  [=(1)+(2)+(3)-(4)]
DOCKED: USER    Estimated Inhibition Constant, Ki   =  261.00 nM (nanomolar)  [Temperature = 298.15 K]
DOCKED: USER    
DOCKED: USER    (1) Final Intermolecular Energy     =  -11.37 kcal/mol
DOCKED: USER        vdW + Hbond + desolv Energy     =  -11.37 kcal/mol
DOCKED: USER        Electrostatic Energy            =   +0.00 kcal/mol
DOCKED: USER    (2) Final Total Internal Energy     =   -0.78 kcal/mol
DOCKED: USER    (3) Torsional Free Energy           =   +2.39 kcal/mol
DOCKED: USER    (4) Unbound System's Energy  [=(2)] =   -0.78 kcal/mol
DOCKED: USER    
DOCKED: USER    
DOCKED: USER    NEWDPF move ligand.pdbqt
DOCKED: USER    NEWDPF about 0.185000 0.077000 0.153000
DOCKED: USER    NEWDPF tran0 26.509329 -15.740292 -1.440685
DOCKED: USER    NEWDPF quaternion0 -0.329666 -0.137685 0.782349 0.510189
DOCKED: USER    NEWDPF axisangle0 -0.383305 -0.160087 0.909643 118.647163
DOCKED: USER    NEWDPF quat0 -0.383305 -0.160087 0.909643 118.647163
DOCKED: USER    NEWDPF dihe0 -82.97 -153.92 -179.66 -70.65 -160.72 -15.43 16.67 59.44 
DOCKED: USER  keepresnum = 1 
DOCKED: USER  
DOCKED: REMARK  Name = 
DOCKED: REMARK  8 active torsions:
DOCKED: REMARK  status: ('A' for Active; 'I' for Inactive)
DOCKED: REMARK    1  A    between atoms: C_2  and  C_10
DOCKED: REMARK    2  A    between atoms: N_3  and  C_4
DOCKED: REMARK    3  A    between atoms: C_10  and  C_11
DOCKED: REMARK    4  A    between atoms: C_11  and  C_12
DOCKED: REMARK    5  A    between atoms: C_12  and  C_13
DOCKED: REMARK    6  A    between atoms: C_13  and  C_14
DOCKED: REMARK    7  A    between atoms: C_14  and  C_15
DOCKED: REMARK    8  A    between atoms: C_15  and  C_16
DOCKED: REMARK                            x       y       z     vdW  Elec       q    Type
DOCKED: REMARK                         _______ _______ _______ _____ _____    ______ ____
DOCKED: USER                              x       y       z     vdW  Elec       q    Type
DOCKED: USER                           _______ _______ _______ _____ _____    ______ ____
DOCKED: ROOT
DOCKED: ATOM      1  C   UNL     1      26.974 -15.413  -1.535 -0.35 -0.00    +0.000 C 
DOCKED: ENDROOT
DOCKED: BRANCH   1   3
DOCKED: ATOM      2  O   UNL     1      27.906 -15.848   0.618 -0.30 -0.00    +0.000 OA
DOCKED: ATOM      3  C   UNL     1      27.405 -14.992  -0.162 -0.30 -0.00    +0.000 C 
DOCKED: ATOM      4  N   UNL     1      27.247 -13.626   0.251 -0.23 -0.00    +0.000 N 
DOCKED: ATOM      5  H   UNL     1      27.020 -12.959  -0.436 -0.00 -0.00    +0.000 HD
DOCKED: BRANCH   4   6
DOCKED: ATOM      6  C   UNL     1      27.397 -13.173   1.607 -0.25 -0.00    +0.000 A 
DOCKED: ATOM      7  C   UNL     1      27.586 -14.115   2.632 -0.28 -0.00    +0.000 A 
DOCKED: ATOM      8  C   UNL     1      27.759 -13.698   3.954 -0.45 -0.00    +0.000 A 
DOCKED: ATOM      9  C   UNL     1      27.761 -12.336   4.265 -0.32 +0.00    +0.000 A 
DOCKED: ATOM     10  C   UNL     1      27.597 -11.388   3.251 -0.25 +0.00    +0.000 A 
DOCKED: ATOM     11  C   UNL     1      27.423 -11.802   1.926 -0.22 +0.00    +0.000 A 
DOCKED: ENDBRANCH   4   6
DOCKED: ENDBRANCH   1   3
DOCKED: BRANCH   1  12
DOCKED: ATOM     12  C   UNL     1      25.455 -15.267  -1.684 -0.38 -0.00    +0.000 C 
DOCKED: BRANCH  12  13
DOCKED: ATOM     13  C   UNL     1      24.774 -16.554  -2.178 -0.54 -0.00    +0.000 C 
DOCKED: BRANCH  13  14
DOCKED: ATOM     14  C   UNL     1      25.152 -17.805  -1.357 -0.65 -0.00    +0.000 C 
DOCKED: BRANCH  14  15
DOCKED: ATOM     15  C   UNL     1      24.113 -18.118  -0.265 -0.74 -0.00    +0.000 C 
DOCKED: BRANCH  15  16
DOCKED: ATOM     16  C   UNL     1      23.195 -19.284  -0.652 -0.69 -0.00    +0.000 C 
DOCKED: BRANCH  16  17
DOCKED: ATOM     17  C   UNL     1      21.783 -18.830  -0.882 -0.84 -0.00    +0.000 C 
DOCKED: ATOM     18  N   UNL     1      20.776 -19.766  -1.273 -0.77 -0.00    +0.000 N 
DOCKED: ATOM     19  O   UNL     1      19.500 -19.360  -1.467 -1.92 -0.00    +0.000 OA
DOCKED: ATOM     20  O   UNL     1      21.480 -17.620  -0.703 -1.68 -0.00    +0.000 OA
DOCKED: ATOM     21  H   UNL     1      21.012 -20.713  -1.402 -0.19 -0.00    +0.000 HD
DOCKED: ENDBRANCH  16  17
DOCKED: ENDBRANCH  15  16
DOCKED: ENDBRANCH  14  15
DOCKED: ENDBRANCH  13  14
DOCKED: ENDBRANCH  12  13
DOCKED: ENDBRANCH   1  12
DOCKED: TORSDOF 8
DOCKED: TER
DOCKED: ENDMDL
________________________________________________________________________________


	BEGINNING GENETIC ALGORITHM DOCKING 90 of 100
Run: 90 Seed: 1065215424 1558748405 [ Run 90 of 100 GA/GALS ]
Beginning LAMARCKIAN GENETIC ALGORITHM (LGA), with a maximum of 2500000 energy evaluations.

Final-Value: -13.553


	FINAL GENETIC ALGORITHM DOCKED STATE
	_______________________________________________


Detailed state:  trans 27.361 -15.493 0.460 quatxyzw 0.320638 0.043885 -0.617940 -0.716530 center 0.185 0.077 0.153 ntor 8 56.7441 -180.0000 -180.0000 88.0983 -147.4551 72.7760 -149.2974 39.6029
State:	 27.361 -15.493   0.460   0.460  0.063 -0.886 -88.463     56.74 -180.00 -180.00   88.10 -147.46   72.78 -149.30   39.60

DOCKED: MODEL       90
DOCKED: USER    Run = 90
DOCKED: USER    DPF = ligand_dock.biased.dpf
DOCKED: USER  
DOCKED: USER    Estimated Free Energy of Binding    =  -10.48 kcal/mol  [=(1)+(2)+(3)-(4)]
DOCKED: USER    Estimated Inhibition Constant, Ki   =   20.97 nM (nanomolar)  [Temperature = 298.15 K]
DOCKED: USER    
DOCKED: USER    (1) Final Intermolecular Energy     =  -12.86 kcal/mol
DOCKED: USER        vdW + Hbond + desolv Energy     =  -12.86 kcal/mol
DOCKED: USER        Electrostatic Energy            =   +0.00 kcal/mol
DOCKED: USER    (2) Final Total Internal Energy     =   -0.69 kcal/mol
DOCKED: USER    (3) Torsional Free Energy           =   +2.39 kcal/mol
DOCKED: USER    (4) Unbound System's Energy  [=(2)] =   -0.69 kcal/mol
DOCKED: USER    
DOCKED: USER    
DOCKED: USER    NEWDPF move ligand.pdbqt
DOCKED: USER    NEWDPF about 0.185000 0.077000 0.153000
DOCKED: USER    NEWDPF tran0 27.361078 -15.492655 0.459657
DOCKED: USER    NEWDPF quaternion0 0.320638 0.043885 -0.617940 -0.716530
DOCKED: USER    NEWDPF axisangle0 0.459660 0.062912 -0.885864 -88.462557
DOCKED: USER    NEWDPF quat0 0.459660 0.062912 -0.885864 -88.462557
DOCKED: USER    NEWDPF dihe0 56.74 -180.00 -180.00 88.10 -147.46 72.78 -149.30 39.60 
DOCKED: USER  keepresnum = 1 
DOCKED: USER  
DOCKED: REMARK  Name = 
DOCKED: REMARK  8 active torsions:
DOCKED: REMARK  status: ('A' for Active; 'I' for Inactive)
DOCKED: REMARK    1  A    between atoms: C_2  and  C_10
DOCKED: REMARK    2  A    between atoms: N_3  and  C_4
DOCKED: REMARK    3  A    between atoms: C_10  and  C_11
DOCKED: REMARK    4  A    between atoms: C_11  and  C_12
DOCKED: REMARK    5  A    between atoms: C_12  and  C_13
DOCKED: REMARK    6  A    between atoms: C_13  and  C_14
DOCKED: REMARK    7  A    between atoms: C_14  and  C_15
DOCKED: REMARK    8  A    between atoms: C_15  and  C_16
DOCKED: REMARK                            x       y       z     vdW  Elec       q    Type
DOCKED: REMARK                         _______ _______ _______ _____ _____    ______ ____
DOCKED: USER                              x       y       z     vdW  Elec       q    Type
DOCKED: USER                           _______ _______ _______ _____ _____    ______ ____
DOCKED: ROOT
DOCKED: ATOM      1  C   UNL     1      27.670 -15.017   0.361 -0.30 -0.00    +0.000 C 
DOCKED: ENDROOT
DOCKED: BRANCH   1   3
DOCKED: ATOM      2  O   UNL     1      26.598 -13.311   1.639 -0.39 -0.00    +0.000 OA
DOCKED: ATOM      3  C   UNL     1      27.488 -14.203   1.608 -0.28 -0.00    +0.000 C 
DOCKED: ATOM      4  N   UNL     1      28.325 -14.446   2.750 -0.32 -0.00    +0.000 N 
DOCKED: ATOM      5  H   UNL     1      28.881 -15.257   2.751 -1.95 -0.00    +0.000 HD
DOCKED: BRANCH   4   6
DOCKED: ATOM      6  C   UNL     1      28.401 -13.575   3.892 -0.36 -0.00    +0.000 A 
DOCKED: ATOM      7  C   UNL     1      28.235 -12.192   3.715 -0.24 -0.00    +0.000 A 
DOCKED: ATOM      8  C   UNL     1      28.279 -11.327   4.812 -0.29 +0.00    +0.000 A 
DOCKED: ATOM      9  C   UNL     1      28.475 -11.836   6.098 -0.35 +0.00    +0.000 A 
DOCKED: ATOM     10  C   UNL     1      28.618 -13.213   6.289 -0.37 -0.00    +0.000 A 
DOCKED: ATOM     11  C   UNL     1      28.575 -14.082   5.193 -0.46 -0.00    +0.000 A 
DOCKED: ENDBRANCH   4   6
DOCKED: ENDBRANCH   1   3
DOCKED: BRANCH   1  12
DOCKED: ATOM     12  C   UNL     1      26.326 -15.591  -0.100 -0.16 -0.00    +0.000 C 
DOCKED: BRANCH  12  13
DOCKED: ATOM     13  C   UNL     1      26.461 -16.968  -0.772 -0.54 -0.00    +0.000 C 
DOCKED: BRANCH  13  14
DOCKED: ATOM     14  C   UNL     1      25.344 -17.958  -0.379 -0.69 -0.00    +0.000 C 
DOCKED: BRANCH  14  15
DOCKED: ATOM     15  C   UNL     1      24.374 -18.229  -1.542 -0.66 -0.00    +0.000 C 
DOCKED: BRANCH  15  16
DOCKED: ATOM     16  C   UNL     1      23.096 -17.385  -1.443 -0.39 -0.00    +0.000 C 
DOCKED: BRANCH  16  17
DOCKED: ATOM     17  C   UNL     1      21.888 -18.232  -1.169 -0.58 -0.00    +0.000 C 
DOCKED: ATOM     18  N   UNL     1      21.718 -19.487  -1.833 -0.44 -0.00    +0.000 N 
DOCKED: ATOM     19  O   UNL     1      20.637 -20.258  -1.575 -1.70 -0.00    +0.000 OA
DOCKED: ATOM     20  O   UNL     1      21.033 -17.846  -0.327 -1.87 +0.00    +0.000 OA
DOCKED: ATOM     21  H   UNL     1      22.393 -19.792  -2.482 -0.53 -0.00    +0.000 HD
DOCKED: ENDBRANCH  16  17
DOCKED: ENDBRANCH  15  16
DOCKED: ENDBRANCH  14  15
DOCKED: ENDBRANCH  13  14
DOCKED: ENDBRANCH  12  13
DOCKED: ENDBRANCH   1  12
DOCKED: TORSDOF 8
DOCKED: TER
DOCKED: ENDMDL
________________________________________________________________________________


	BEGINNING GENETIC ALGORITHM DOCKING 91 of 100
Run: 91 Seed: 1886034935 156912973 [ Run 91 of 100 GA/GALS ]
Beginning LAMARCKIAN GENETIC ALGORITHM (LGA), with a maximum of 2500000 energy evaluations.

Final-Value: -13.443


	FINAL GENETIC ALGORITHM DOCKED STATE
	_______________________________________________


Detailed state:  trans 27.246 -15.373 -0.865 quatxyzw 0.002807 0.716600 -0.102611 -0.689889 center 0.185 0.077 0.153 ntor 8 -159.1717 -21.6611 -172.1230 4.2155 -168.8479 -179.5731 -50.7280 -11.4067
State:	 27.246 -15.373  -0.865   0.004  0.990 -0.142 -92.757   -159.17  -21.66 -172.12    4.22 -168.85 -179.57  -50.73  -11.41

DOCKED: MODEL       91
DOCKED: USER    Run = 91
DOCKED: USER    DPF = ligand_dock.biased.dpf
DOCKED: USER  
DOCKED: USER    Estimated Free Energy of Binding    =  -10.26 kcal/mol  [=(1)+(2)+(3)-(4)]
DOCKED: USER    Estimated Inhibition Constant, Ki   =   30.19 nM (nanomolar)  [Temperature = 298.15 K]
DOCKED: USER    
DOCKED: USER    (1) Final Intermolecular Energy     =  -12.65 kcal/mol
DOCKED: USER        vdW + Hbond + desolv Energy     =  -12.65 kcal/mol
DOCKED: USER        Electrostatic Energy            =   +0.00 kcal/mol
DOCKED: USER    (2) Final Total Internal Energy     =   -0.80 kcal/mol
DOCKED: USER    (3) Torsional Free Energy           =   +2.39 kcal/mol
DOCKED: USER    (4) Unbound System's Energy  [=(2)] =   -0.80 kcal/mol
DOCKED: USER    
DOCKED: USER    
DOCKED: USER    NEWDPF move ligand.pdbqt
DOCKED: USER    NEWDPF about 0.185000 0.077000 0.153000
DOCKED: USER    NEWDPF tran0 27.246237 -15.372513 -0.864885
DOCKED: USER    NEWDPF quaternion0 0.002807 0.716600 -0.102611 -0.689889
DOCKED: USER    NEWDPF axisangle0 0.003877 0.989896 -0.141744 -92.757326
DOCKED: USER    NEWDPF quat0 0.003877 0.989896 -0.141744 -92.757326
DOCKED: USER    NEWDPF dihe0 -159.17 -21.66 -172.12 4.22 -168.85 -179.57 -50.73 -11.41 
DOCKED: USER  keepresnum = 1 
DOCKED: USER  
DOCKED: REMARK  Name = 
DOCKED: REMARK  8 active torsions:
DOCKED: REMARK  status: ('A' for Active; 'I' for Inactive)
DOCKED: REMARK    1  A    between atoms: C_2  and  C_10
DOCKED: REMARK    2  A    between atoms: N_3  and  C_4
DOCKED: REMARK    3  A    between atoms: C_10  and  C_11
DOCKED: REMARK    4  A    between atoms: C_11  and  C_12
DOCKED: REMARK    5  A    between atoms: C_12  and  C_13
DOCKED: REMARK    6  A    between atoms: C_13  and  C_14
DOCKED: REMARK    7  A    between atoms: C_14  and  C_15
DOCKED: REMARK    8  A    between atoms: C_15  and  C_16
DOCKED: REMARK                            x       y       z     vdW  Elec       q    Type
DOCKED: REMARK                         _______ _______ _______ _____ _____    ______ ____
DOCKED: USER                              x       y       z     vdW  Elec       q    Type
DOCKED: USER                           _______ _______ _______ _____ _____    ______ ____
DOCKED: ROOT
DOCKED: ATOM      1  C   UNL     1      26.878 -15.017  -0.602 -0.33 -0.00    +0.000 C 
DOCKED: ENDROOT
DOCKED: BRANCH   1   3
DOCKED: ATOM      2  O   UNL     1      28.798 -14.968   0.813 -0.24 -0.00    +0.000 OA
DOCKED: ATOM      3  C   UNL     1      27.614 -14.575   0.627 -0.28 -0.00    +0.000 C 
DOCKED: ATOM      4  N   UNL     1      26.970 -13.712   1.577 -0.31 -0.00    +0.000 N 
DOCKED: ATOM      5  H   UNL     1      26.122 -13.288   1.314 -0.02 -0.00    +0.000 HD
DOCKED: BRANCH   4   6
DOCKED: ATOM      6  C   UNL     1      27.487 -13.430   2.888 -0.33 -0.00    +0.000 A 
DOCKED: ATOM      7  C   UNL     1      27.671 -12.094   3.283 -0.26 +0.00    +0.000 A 
DOCKED: ATOM      8  C   UNL     1      28.148 -11.794   4.562 -0.30 +0.00    +0.000 A 
DOCKED: ATOM      9  C   UNL     1      28.431 -12.822   5.464 -0.38 -0.00    +0.000 A 
DOCKED: ATOM     10  C   UNL     1      28.230 -14.154   5.091 -0.48 -0.00    +0.000 A 
DOCKED: ATOM     11  C   UNL     1      27.753 -14.459   3.811 -0.47 -0.00    +0.000 A 
DOCKED: ENDBRANCH   4   6
DOCKED: ENDBRANCH   1   3
DOCKED: BRANCH   1  12
DOCKED: ATOM     12  C   UNL     1      27.024 -16.531  -0.795 -0.45 -0.00    +0.000 C 
DOCKED: BRANCH  12  13
DOCKED: ATOM     13  C   UNL     1      25.967 -17.118  -1.746 -0.54 -0.00    +0.000 C 
DOCKED: BRANCH  13  14
DOCKED: ATOM     14  C   UNL     1      24.963 -18.059  -1.046 -0.69 -0.00    +0.000 C 
DOCKED: BRANCH  14  15
DOCKED: ATOM     15  C   UNL     1      23.755 -17.295  -0.475 -0.65 -0.00    +0.000 C 
DOCKED: BRANCH  15  16
DOCKED: ATOM     16  C   UNL     1      22.729 -18.233   0.176 -0.69 -0.00    +0.000 C 
DOCKED: BRANCH  16  17
DOCKED: ATOM     17  C   UNL     1      21.518 -18.421  -0.691 -0.85 -0.00    +0.000 C 
DOCKED: ATOM     18  N   UNL     1      21.352 -19.621  -1.450 -0.66 -0.00    +0.000 N 
DOCKED: ATOM     19  O   UNL     1      20.253 -19.798  -2.220 -2.30 -0.00    +0.000 OA
DOCKED: ATOM     20  O   UNL     1      20.630 -17.527  -0.726 -2.11 +0.00    +0.000 OA
DOCKED: ATOM     21  H   UNL     1      22.040 -20.324  -1.413 -0.29 -0.00    +0.000 HD
DOCKED: ENDBRANCH  16  17
DOCKED: ENDBRANCH  15  16
DOCKED: ENDBRANCH  14  15
DOCKED: ENDBRANCH  13  14
DOCKED: ENDBRANCH  12  13
DOCKED: ENDBRANCH   1  12
DOCKED: TORSDOF 8
DOCKED: TER
DOCKED: ENDMDL
________________________________________________________________________________


	BEGINNING GENETIC ALGORITHM DOCKING 92 of 100
Run: 92 Seed: 1000946173 391220326 [ Run 92 of 100 GA/GALS ]
Beginning LAMARCKIAN GENETIC ALGORITHM (LGA), with a maximum of 2500000 energy evaluations.

Final-Value: -12.773


	FINAL GENETIC ALGORITHM DOCKED STATE
	_______________________________________________


Detailed state:  trans 26.882 -15.619 -2.459 quatxyzw 0.068180 0.679985 0.205743 0.700458 center 0.185 0.077 0.153 ntor 8 177.4523 174.3492 104.5634 -48.2815 173.5740 29.4748 -164.0522 48.2380
State:	 26.882 -15.619  -2.459   0.096  0.953  0.288 91.072    177.45  174.35  104.56  -48.28  173.57   29.47 -164.05   48.24

DOCKED: MODEL       92
DOCKED: USER    Run = 92
DOCKED: USER    DPF = ligand_dock.biased.dpf
DOCKED: USER  
DOCKED: USER    Estimated Free Energy of Binding    =   -9.62 kcal/mol  [=(1)+(2)+(3)-(4)]
DOCKED: USER    Estimated Inhibition Constant, Ki   =   88.21 nM (nanomolar)  [Temperature = 298.15 K]
DOCKED: USER    
DOCKED: USER    (1) Final Intermolecular Energy     =  -12.01 kcal/mol
DOCKED: USER        vdW + Hbond + desolv Energy     =  -12.01 kcal/mol
DOCKED: USER        Electrostatic Energy            =   +0.00 kcal/mol
DOCKED: USER    (2) Final Total Internal Energy     =   -0.76 kcal/mol
DOCKED: USER    (3) Torsional Free Energy           =   +2.39 kcal/mol
DOCKED: USER    (4) Unbound System's Energy  [=(2)] =   -0.76 kcal/mol
DOCKED: USER    
DOCKED: USER    
DOCKED: USER    NEWDPF move ligand.pdbqt
DOCKED: USER    NEWDPF about 0.185000 0.077000 0.153000
DOCKED: USER    NEWDPF tran0 26.882116 -15.618824 -2.459465
DOCKED: USER    NEWDPF quaternion0 0.068180 0.679985 0.205743 0.700458
DOCKED: USER    NEWDPF axisangle0 0.095531 0.952769 0.288279 91.072424
DOCKED: USER    NEWDPF quat0 0.095531 0.952769 0.288279 91.072424
DOCKED: USER    NEWDPF dihe0 177.45 174.35 104.56 -48.28 173.57 29.47 -164.05 48.24 
DOCKED: USER  keepresnum = 1 
DOCKED: USER  
DOCKED: REMARK  Name = 
DOCKED: REMARK  8 active torsions:
DOCKED: REMARK  status: ('A' for Active; 'I' for Inactive)
DOCKED: REMARK    1  A    between atoms: C_2  and  C_10
DOCKED: REMARK    2  A    between atoms: N_3  and  C_4
DOCKED: REMARK    3  A    between atoms: C_10  and  C_11
DOCKED: REMARK    4  A    between atoms: C_11  and  C_12
DOCKED: REMARK    5  A    between atoms: C_12  and  C_13
DOCKED: REMARK    6  A    between atoms: C_13  and  C_14
DOCKED: REMARK    7  A    between atoms: C_14  and  C_15
DOCKED: REMARK    8  A    between atoms: C_15  and  C_16
DOCKED: REMARK                            x       y       z     vdW  Elec       q    Type
DOCKED: REMARK                         _______ _______ _______ _____ _____    ______ ____
DOCKED: USER                              x       y       z     vdW  Elec       q    Type
DOCKED: USER                           _______ _______ _______ _____ _____    ______ ____
DOCKED: ROOT
DOCKED: ATOM      1  C   UNL     1      27.376 -15.489  -2.725 -0.33 -0.00    +0.000 C 
DOCKED: ENDROOT
DOCKED: BRANCH   1   3
DOCKED: ATOM      2  O   UNL     1      27.055 -15.147  -5.065 -0.83 -0.00    +0.000 OA
DOCKED: ATOM      3  C   UNL     1      26.946 -14.667  -3.904 -0.41 -0.00    +0.000 C 
DOCKED: ATOM      4  N   UNL     1      26.417 -13.347  -3.702 -0.30 -0.00    +0.000 N 
DOCKED: ATOM      5  H   UNL     1      26.185 -13.078  -2.784 -0.01 -0.00    +0.000 HD
DOCKED: BRANCH   4   6
DOCKED: ATOM      6  C   UNL     1      26.207 -12.393  -4.757 -0.27 -0.00    +0.000 A 
DOCKED: ATOM      7  C   UNL     1      27.140 -12.309  -5.804 -0.15 -0.00    +0.000 A 
DOCKED: ATOM      8  C   UNL     1      26.945 -11.408  -6.855 -0.15 -0.00    +0.000 A 
DOCKED: ATOM      9  C   UNL     1      25.811 -10.593  -6.878 -0.22 -0.00    +0.000 A 
DOCKED: ATOM     10  C   UNL     1      24.864 -10.684  -5.854 -0.36 -0.00    +0.000 A 
DOCKED: ATOM     11  C   UNL     1      25.056 -11.585  -4.800 -0.34 -0.00    +0.000 A 
DOCKED: ENDBRANCH   4   6
DOCKED: ENDBRANCH   1   3
DOCKED: BRANCH   1  12
DOCKED: ATOM     12  C   UNL     1      26.477 -16.722  -2.580 -0.17 -0.00    +0.000 C 
DOCKED: BRANCH  12  13
DOCKED: ATOM     13  C   UNL     1      26.096 -17.017  -1.120 -0.56 -0.00    +0.000 C 
DOCKED: BRANCH  13  14
DOCKED: ATOM     14  C   UNL     1      24.722 -16.443  -0.713 -0.49 -0.00    +0.000 C 
DOCKED: BRANCH  14  15
DOCKED: ATOM     15  C   UNL     1      23.558 -17.191  -1.386 -0.60 -0.00    +0.000 C 
DOCKED: BRANCH  15  16
DOCKED: ATOM     16  C   UNL     1      22.538 -17.718  -0.367 -0.79 -0.00    +0.000 C 
DOCKED: BRANCH  16  17
DOCKED: ATOM     17  C   UNL     1      21.318 -18.277  -1.038 -0.70 -0.00    +0.000 C 
DOCKED: ATOM     18  N   UNL     1      21.341 -19.589  -1.605 -0.62 -0.00    +0.000 N 
DOCKED: ATOM     19  O   UNL     1      20.237 -20.100  -2.197 -2.25 -0.00    +0.000 OA
DOCKED: ATOM     20  O   UNL     1      20.259 -17.595  -1.077 -2.06 -0.00    +0.000 OA
DOCKED: ATOM     21  H   UNL     1      22.166 -20.125  -1.564 -0.40 -0.00    +0.000 HD
DOCKED: ENDBRANCH  16  17
DOCKED: ENDBRANCH  15  16
DOCKED: ENDBRANCH  14  15
DOCKED: ENDBRANCH  13  14
DOCKED: ENDBRANCH  12  13
DOCKED: ENDBRANCH   1  12
DOCKED: TORSDOF 8
DOCKED: TER
DOCKED: ENDMDL
________________________________________________________________________________


	BEGINNING GENETIC ALGORITHM DOCKING 93 of 100
Run: 93 Seed: 1577706265 1717017746 [ Run 93 of 100 GA/GALS ]
Beginning LAMARCKIAN GENETIC ALGORITHM (LGA), with a maximum of 2500000 energy evaluations.

Final-Value: -12.381


	FINAL GENETIC ALGORITHM DOCKED STATE
	_______________________________________________


Detailed state:  trans 26.776 -16.040 -2.142 quatxyzw 0.332473 0.712079 -0.491997 -0.374625 center 0.185 0.077 0.153 ntor 8 -175.8221 174.0372 174.2495 34.2487 56.6132 124.4349 -178.7315 -176.7948
State:	 26.776 -16.040  -2.142   0.359  0.768 -0.531 -135.998   -175.82  174.04  174.25   34.25   56.61  124.43 -178.73 -176.79

DOCKED: MODEL       93
DOCKED: USER    Run = 93
DOCKED: USER    DPF = ligand_dock.biased.dpf
DOCKED: USER  
DOCKED: USER    Estimated Free Energy of Binding    =   -9.14 kcal/mol  [=(1)+(2)+(3)-(4)]
DOCKED: USER    Estimated Inhibition Constant, Ki   =  198.36 nM (nanomolar)  [Temperature = 298.15 K]
DOCKED: USER    
DOCKED: USER    (1) Final Intermolecular Energy     =  -11.53 kcal/mol
DOCKED: USER        vdW + Hbond + desolv Energy     =  -11.53 kcal/mol
DOCKED: USER        Electrostatic Energy            =   +0.00 kcal/mol
DOCKED: USER    (2) Final Total Internal Energy     =   -0.85 kcal/mol
DOCKED: USER    (3) Torsional Free Energy           =   +2.39 kcal/mol
DOCKED: USER    (4) Unbound System's Energy  [=(2)] =   -0.85 kcal/mol
DOCKED: USER    
DOCKED: USER    
DOCKED: USER    NEWDPF move ligand.pdbqt
DOCKED: USER    NEWDPF about 0.185000 0.077000 0.153000
DOCKED: USER    NEWDPF tran0 26.776110 -16.039526 -2.141765
DOCKED: USER    NEWDPF quaternion0 0.332473 0.712079 -0.491997 -0.374625
DOCKED: USER    NEWDPF axisangle0 0.358587 0.768008 -0.530641 -135.997735
DOCKED: USER    NEWDPF quat0 0.358587 0.768008 -0.530641 -135.997735
DOCKED: USER    NEWDPF dihe0 -175.82 174.04 174.25 34.25 56.61 124.43 -178.73 -176.79 
DOCKED: USER  keepresnum = 1 
DOCKED: USER  
DOCKED: REMARK  Name = 
DOCKED: REMARK  8 active torsions:
DOCKED: REMARK  status: ('A' for Active; 'I' for Inactive)
DOCKED: REMARK    1  A    between atoms: C_2  and  C_10
DOCKED: REMARK    2  A    between atoms: N_3  and  C_4
DOCKED: REMARK    3  A    between atoms: C_10  and  C_11
DOCKED: REMARK    4  A    between atoms: C_11  and  C_12
DOCKED: REMARK    5  A    between atoms: C_12  and  C_13
DOCKED: REMARK    6  A    between atoms: C_13  and  C_14
DOCKED: REMARK    7  A    between atoms: C_14  and  C_15
DOCKED: REMARK    8  A    between atoms: C_15  and  C_16
DOCKED: REMARK                            x       y       z     vdW  Elec       q    Type
DOCKED: REMARK                         _______ _______ _______ _____ _____    ______ ____
DOCKED: USER                              x       y       z     vdW  Elec       q    Type
DOCKED: USER                           _______ _______ _______ _____ _____    ______ ____
DOCKED: ROOT
DOCKED: ATOM      1  C   UNL     1      27.050 -15.591  -1.907 -0.35 -0.00    +0.000 C 
DOCKED: ENDROOT
DOCKED: BRANCH   1   3
DOCKED: ATOM      2  O   UNL     1      28.232 -15.936   0.135 -0.32 -0.00    +0.000 OA
DOCKED: ATOM      3  C   UNL     1      28.140 -16.217  -1.090 -0.32 -0.00    +0.000 C 
DOCKED: ATOM      4  N   UNL     1      29.064 -17.128  -1.706 -0.28 -0.00    +0.000 N 
DOCKED: ATOM      5  H   UNL     1      28.856 -17.456  -2.610 -0.02 -0.00    +0.000 HD
DOCKED: BRANCH   4   6
DOCKED: ATOM      6  C   UNL     1      30.276 -17.589  -1.085 -0.20 -0.00    +0.000 A 
DOCKED: ATOM      7  C   UNL     1      31.035 -16.696  -0.310 -0.13 -0.00    +0.000 A 
DOCKED: ATOM      8  C   UNL     1      32.203 -17.126   0.325 -0.10 -0.00    +0.000 A 
DOCKED: ATOM      9  C   UNL     1      32.617 -18.455   0.205 -0.09 -0.00    +0.000 A 
DOCKED: ATOM     10  C   UNL     1      31.857 -19.358  -0.544 -0.14 -0.00    +0.000 A 
DOCKED: ATOM     11  C   UNL     1      30.688 -18.931  -1.181 -0.15 -0.00    +0.000 A 
DOCKED: ENDBRANCH   4   6
DOCKED: ENDBRANCH   1   3
DOCKED: BRANCH   1  12
DOCKED: ATOM     12  C   UNL     1      25.726 -16.331  -1.687 -0.55 -0.00    +0.000 C 
DOCKED: BRANCH  12  13
DOCKED: ATOM     13  C   UNL     1      25.870 -17.555  -0.766 -0.63 -0.00    +0.000 C 
DOCKED: BRANCH  13  14
DOCKED: ATOM     14  C   UNL     1      24.623 -18.464  -0.751 -0.73 -0.00    +0.000 C 
DOCKED: BRANCH  14  15
DOCKED: ATOM     15  C   UNL     1      23.320 -17.660  -0.592 -0.77 -0.00    +0.000 C 
DOCKED: BRANCH  15  16
DOCKED: ATOM     16  C   UNL     1      22.212 -18.474   0.089 -0.77 -0.00    +0.000 C 
DOCKED: BRANCH  16  17
DOCKED: ATOM     17  C   UNL     1      21.022 -18.655  -0.808 -0.84 -0.00    +0.000 C 
DOCKED: ATOM     18  N   UNL     1      20.977 -19.736  -1.741 -0.70 -0.00    +0.000 N 
DOCKED: ATOM     19  O   UNL     1      19.898 -19.909  -2.539 -1.97 -0.00    +0.000 OA
DOCKED: ATOM     20  O   UNL     1      20.045 -17.863  -0.716 -2.01 +0.00    +0.000 OA
DOCKED: ATOM     21  H   UNL     1      21.736 -20.360  -1.804 -0.43 -0.00    +0.000 HD
DOCKED: ENDBRANCH  16  17
DOCKED: ENDBRANCH  15  16
DOCKED: ENDBRANCH  14  15
DOCKED: ENDBRANCH  13  14
DOCKED: ENDBRANCH  12  13
DOCKED: ENDBRANCH   1  12
DOCKED: TORSDOF 8
DOCKED: TER
DOCKED: ENDMDL
________________________________________________________________________________


	BEGINNING GENETIC ALGORITHM DOCKING 94 of 100
Run: 94 Seed: 1234825056 832522233 [ Run 94 of 100 GA/GALS ]
Beginning LAMARCKIAN GENETIC ALGORITHM (LGA), with a maximum of 2500000 energy evaluations.

Final-Value: -15.327


	FINAL GENETIC ALGORITHM DOCKED STATE
	_______________________________________________


Detailed state:  trans 27.463 -15.484 0.258 quatxyzw 0.373917 0.009595 -0.621850 -0.688038 center 0.185 0.077 0.153 ntor 8 -125.9691 -179.7248 163.2432 70.7849 29.8110 125.0159 -139.6444 69.7191
State:	 27.463 -15.484   0.258   0.515  0.013 -0.857 -93.050   -125.97 -179.72  163.24   70.78   29.81  125.02 -139.64   69.72

DOCKED: MODEL       94
DOCKED: USER    Run = 94
DOCKED: USER    DPF = ligand_dock.biased.dpf
DOCKED: USER  
DOCKED: USER    Estimated Free Energy of Binding    =  -12.27 kcal/mol  [=(1)+(2)+(3)-(4)]
DOCKED: USER    Estimated Inhibition Constant, Ki   =    1.01 nM (nanomolar)  [Temperature = 298.15 K]
DOCKED: USER    
DOCKED: USER    (1) Final Intermolecular Energy     =  -14.66 kcal/mol
DOCKED: USER        vdW + Hbond + desolv Energy     =  -14.66 kcal/mol
DOCKED: USER        Electrostatic Energy            =   +0.00 kcal/mol
DOCKED: USER    (2) Final Total Internal Energy     =   -0.67 kcal/mol
DOCKED: USER    (3) Torsional Free Energy           =   +2.39 kcal/mol
DOCKED: USER    (4) Unbound System's Energy  [=(2)] =   -0.67 kcal/mol
DOCKED: USER    
DOCKED: USER    
DOCKED: USER    NEWDPF move ligand.pdbqt
DOCKED: USER    NEWDPF about 0.185000 0.077000 0.153000
DOCKED: USER    NEWDPF tran0 27.462516 -15.484187 0.258058
DOCKED: USER    NEWDPF quaternion0 0.373917 0.009595 -0.621850 -0.688038
DOCKED: USER    NEWDPF axisangle0 0.515268 0.013222 -0.856927 -93.049966
DOCKED: USER    NEWDPF quat0 0.515268 0.013222 -0.856927 -93.049966
DOCKED: USER    NEWDPF dihe0 -125.97 -179.72 163.24 70.78 29.81 125.02 -139.64 69.72 
DOCKED: USER  keepresnum = 1 
DOCKED: USER  
DOCKED: REMARK  Name = 
DOCKED: REMARK  8 active torsions:
DOCKED: REMARK  status: ('A' for Active; 'I' for Inactive)
DOCKED: REMARK    1  A    between atoms: C_2  and  C_10
DOCKED: REMARK    2  A    between atoms: N_3  and  C_4
DOCKED: REMARK    3  A    between atoms: C_10  and  C_11
DOCKED: REMARK    4  A    between atoms: C_11  and  C_12
DOCKED: REMARK    5  A    between atoms: C_12  and  C_13
DOCKED: REMARK    6  A    between atoms: C_13  and  C_14
DOCKED: REMARK    7  A    between atoms: C_14  and  C_15
DOCKED: REMARK    8  A    between atoms: C_15  and  C_16
DOCKED: REMARK                            x       y       z     vdW  Elec       q    Type
DOCKED: REMARK                         _______ _______ _______ _____ _____    ______ ____
DOCKED: USER                              x       y       z     vdW  Elec       q    Type
DOCKED: USER                           _______ _______ _______ _____ _____    ______ ____
DOCKED: ROOT
DOCKED: ATOM      1  C   UNL     1      27.810 -15.027   0.220 -0.28 -0.00    +0.000 C 
DOCKED: ENDROOT
DOCKED: BRANCH   1   3
DOCKED: ATOM      2  O   UNL     1      26.589 -13.440   1.517 -0.38 -0.00    +0.000 OA
DOCKED: ATOM      3  C   UNL     1      27.544 -14.264   1.483 -0.28 -0.00    +0.000 C 
DOCKED: ATOM      4  N   UNL     1      28.372 -14.475   2.637 -0.30 -0.00    +0.000 N 
DOCKED: ATOM      5  H   UNL     1      28.987 -15.244   2.629 -1.99 -0.00    +0.000 HD
DOCKED: BRANCH   4   6
DOCKED: ATOM      6  C   UNL     1      28.361 -13.633   3.802 -0.36 -0.00    +0.000 A 
DOCKED: ATOM      7  C   UNL     1      28.091 -12.262   3.658 -0.26 -0.00    +0.000 A 
DOCKED: ATOM      8  C   UNL     1      28.049 -11.428   4.778 -0.32 +0.00    +0.000 A 
DOCKED: ATOM      9  C   UNL     1      28.261 -11.956   6.054 -0.36 +0.00    +0.000 A 
DOCKED: ATOM     10  C   UNL     1      28.507 -13.322   6.212 -0.36 -0.00    +0.000 A 
DOCKED: ATOM     11  C   UNL     1      28.550 -14.161   5.093 -0.46 -0.00    +0.000 A 
DOCKED: ENDBRANCH   4   6
DOCKED: ENDBRANCH   1   3
DOCKED: BRANCH   1  12
DOCKED: ATOM     12  C   UNL     1      26.492 -15.483  -0.415 -0.37 -0.00    +0.000 C 
DOCKED: BRANCH  12  13
DOCKED: ATOM     13  C   UNL     1      26.355 -17.013  -0.479 -0.55 -0.00    +0.000 C 
DOCKED: BRANCH  13  14
DOCKED: ATOM     14  C   UNL     1      25.184 -17.491  -1.364 -0.66 -0.00    +0.000 C 
DOCKED: BRANCH  14  15
DOCKED: ATOM     15  C   UNL     1      23.817 -17.253  -0.697 -0.71 -0.00    +0.000 C 
DOCKED: BRANCH  15  16
DOCKED: ATOM     16  C   UNL     1      23.082 -18.564  -0.390 -0.82 -0.00    +0.000 C 
DOCKED: BRANCH  16  17
DOCKED: ATOM     17  C   UNL     1      21.675 -18.549  -0.911 -0.82 -0.00    +0.000 C 
DOCKED: ATOM     18  N   UNL     1      21.143 -19.689  -1.592 -0.67 -0.00    +0.000 N 
DOCKED: ATOM     19  O   UNL     1      19.870 -19.682  -2.048 -2.25 -0.00    +0.000 OA
DOCKED: ATOM     20  O   UNL     1      20.950 -17.536  -0.721 -2.09 -0.00    +0.000 OA
DOCKED: ATOM     21  H   UNL     1      21.707 -20.484  -1.729 -0.38 -0.00    +0.000 HD
DOCKED: ENDBRANCH  16  17
DOCKED: ENDBRANCH  15  16
DOCKED: ENDBRANCH  14  15
DOCKED: ENDBRANCH  13  14
DOCKED: ENDBRANCH  12  13
DOCKED: ENDBRANCH   1  12
DOCKED: TORSDOF 8
DOCKED: TER
DOCKED: ENDMDL
________________________________________________________________________________


	BEGINNING GENETIC ALGORITHM DOCKING 95 of 100
Run: 95 Seed: 1369130204 753695900 [ Run 95 of 100 GA/GALS ]
Beginning LAMARCKIAN GENETIC ALGORITHM (LGA), with a maximum of 2500000 energy evaluations.

Final-Value: -12.676


	FINAL GENETIC ALGORITHM DOCKED STATE
	_______________________________________________


Detailed state:  trans 25.585 -16.614 -2.353 quatxyzw -0.449150 -0.076297 -0.592166 -0.664668 center 0.185 0.077 0.153 ntor 8 123.9408 79.4504 166.7782 94.9881 -178.0879 149.0159 -138.9969 44.3555
State:	 25.585 -16.614  -2.353  -0.601 -0.102 -0.793 -96.686    123.94   79.45  166.78   94.99 -178.09  149.02 -139.00   44.36

DOCKED: MODEL       95
DOCKED: USER    Run = 95
DOCKED: USER    DPF = ligand_dock.biased.dpf
DOCKED: USER  
DOCKED: USER    Estimated Free Energy of Binding    =   -9.54 kcal/mol  [=(1)+(2)+(3)-(4)]
DOCKED: USER    Estimated Inhibition Constant, Ki   =  101.68 nM (nanomolar)  [Temperature = 298.15 K]
DOCKED: USER    
DOCKED: USER    (1) Final Intermolecular Energy     =  -11.93 kcal/mol
DOCKED: USER        vdW + Hbond + desolv Energy     =  -11.93 kcal/mol
DOCKED: USER        Electrostatic Energy            =   +0.00 kcal/mol
DOCKED: USER    (2) Final Total Internal Energy     =   -0.75 kcal/mol
DOCKED: USER    (3) Torsional Free Energy           =   +2.39 kcal/mol
DOCKED: USER    (4) Unbound System's Energy  [=(2)] =   -0.75 kcal/mol
DOCKED: USER    
DOCKED: USER    
DOCKED: USER    NEWDPF move ligand.pdbqt
DOCKED: USER    NEWDPF about 0.185000 0.077000 0.153000
DOCKED: USER    NEWDPF tran0 25.585195 -16.613821 -2.352507
DOCKED: USER    NEWDPF quaternion0 -0.449150 -0.076297 -0.592166 -0.664668
DOCKED: USER    NEWDPF axisangle0 -0.601159 -0.102119 -0.792578 -96.686332
DOCKED: USER    NEWDPF quat0 -0.601159 -0.102119 -0.792578 -96.686332
DOCKED: USER    NEWDPF dihe0 123.94 79.45 166.78 94.99 -178.09 149.02 -139.00 44.36 
DOCKED: USER  keepresnum = 1 
DOCKED: USER  
DOCKED: REMARK  Name = 
DOCKED: REMARK  8 active torsions:
DOCKED: REMARK  status: ('A' for Active; 'I' for Inactive)
DOCKED: REMARK    1  A    between atoms: C_2  and  C_10
DOCKED: REMARK    2  A    between atoms: N_3  and  C_4
DOCKED: REMARK    3  A    between atoms: C_10  and  C_11
DOCKED: REMARK    4  A    between atoms: C_11  and  C_12
DOCKED: REMARK    5  A    between atoms: C_12  and  C_13
DOCKED: REMARK    6  A    between atoms: C_13  and  C_14
DOCKED: REMARK    7  A    between atoms: C_14  and  C_15
DOCKED: REMARK    8  A    between atoms: C_15  and  C_16
DOCKED: REMARK                            x       y       z     vdW  Elec       q    Type
DOCKED: REMARK                         _______ _______ _______ _____ _____    ______ ____
DOCKED: USER                              x       y       z     vdW  Elec       q    Type
DOCKED: USER                           _______ _______ _______ _____ _____    ______ ____
DOCKED: ROOT
DOCKED: ATOM      1  C   UNL     1      25.539 -16.724  -2.916 -0.32 -0.00    +0.000 C 
DOCKED: ENDROOT
DOCKED: BRANCH   1   3
DOCKED: ATOM      2  O   UNL     1      24.761 -14.609  -3.699 -0.90 -0.00    +0.000 OA
DOCKED: ATOM      3  C   UNL     1      25.744 -15.387  -3.564 -0.57 -0.00    +0.000 C 
DOCKED: ATOM      4  N   UNL     1      27.050 -15.007  -4.023 -0.37 -0.00    +0.000 N 
DOCKED: ATOM      5  H   UNL     1      27.816 -15.558  -3.745 -0.01 -0.00    +0.000 HD
DOCKED: BRANCH   4   6
DOCKED: ATOM      6  C   UNL     1      27.309 -13.871  -4.865 -0.30 -0.00    +0.000 A 
DOCKED: ATOM      7  C   UNL     1      28.141 -14.020  -5.986 -0.30 -0.00    +0.000 A 
DOCKED: ATOM      8  C   UNL     1      28.388 -12.937  -6.835 -0.22 -0.00    +0.000 A 
DOCKED: ATOM      9  C   UNL     1      27.793 -11.699  -6.581 -0.16 -0.00    +0.000 A 
DOCKED: ATOM     10  C   UNL     1      26.944 -11.544  -5.483 -0.18 -0.00    +0.000 A 
DOCKED: ATOM     11  C   UNL     1      26.696 -12.626  -4.630 -0.25 -0.00    +0.000 A 
DOCKED: ENDBRANCH   4   6
DOCKED: ENDBRANCH   1   3
DOCKED: BRANCH   1  12
DOCKED: ATOM     12  C   UNL     1      24.588 -16.595  -1.720 -0.58 -0.00    +0.000 C 
DOCKED: BRANCH  12  13
DOCKED: ATOM     13  C   UNL     1      24.986 -17.495  -0.538 -0.67 -0.00    +0.000 C 
DOCKED: BRANCH  13  14
DOCKED: ATOM     14  C   UNL     1      23.780 -18.077   0.228 -0.52 -0.00    +0.000 C 
DOCKED: BRANCH  14  15
DOCKED: ATOM     15  C   UNL     1      23.152 -19.277  -0.504 -0.60 -0.00    +0.000 C 
DOCKED: BRANCH  15  16
DOCKED: ATOM     16  C   UNL     1      22.024 -18.854  -1.455 -0.64 -0.00    +0.000 C 
DOCKED: BRANCH  16  17
DOCKED: ATOM     17  C   UNL     1      20.750 -19.596  -1.172 -0.82 -0.00    +0.000 C 
DOCKED: ATOM     18  N   UNL     1      20.490 -20.116   0.134 -0.71 -0.00    +0.000 N 
DOCKED: ATOM     19  O   UNL     1      19.335 -20.771   0.393 -0.94 -0.00    +0.000 OA
DOCKED: ATOM     20  O   UNL     1      19.893 -19.735  -2.086 -2.35 -0.00    +0.000 OA
DOCKED: ATOM     21  H   UNL     1      21.156 -19.996   0.849 -0.51 -0.00    +0.000 HD
DOCKED: ENDBRANCH  16  17
DOCKED: ENDBRANCH  15  16
DOCKED: ENDBRANCH  14  15
DOCKED: ENDBRANCH  13  14
DOCKED: ENDBRANCH  12  13
DOCKED: ENDBRANCH   1  12
DOCKED: TORSDOF 8
DOCKED: TER
DOCKED: ENDMDL
________________________________________________________________________________


	BEGINNING GENETIC ALGORITHM DOCKING 96 of 100
Run: 96 Seed: 929366429 1235892518 [ Run 96 of 100 GA/GALS ]
Beginning LAMARCKIAN GENETIC ALGORITHM (LGA), with a maximum of 2500000 energy evaluations.

Final-Value: -13.911


	FINAL GENETIC ALGORITHM DOCKED STATE
	_______________________________________________


Detailed state:  trans 26.032 -15.522 -3.326 quatxyzw 0.491826 -0.062575 0.583954 0.642798 center 0.185 0.077 0.153 ntor 8 -164.0764 170.5803 111.9440 37.4099 88.6568 -169.6809 32.2647 61.2635
State:	 26.032 -15.522  -3.326   0.642 -0.082  0.762 99.998   -164.08  170.58  111.94   37.41   88.66 -169.68   32.26   61.26

DOCKED: MODEL       96
DOCKED: USER    Run = 96
DOCKED: USER    DPF = ligand_dock.biased.dpf
DOCKED: USER  
DOCKED: USER    Estimated Free Energy of Binding    =  -10.73 kcal/mol  [=(1)+(2)+(3)-(4)]
DOCKED: USER    Estimated Inhibition Constant, Ki   =   13.68 nM (nanomolar)  [Temperature = 298.15 K]
DOCKED: USER    
DOCKED: USER    (1) Final Intermolecular Energy     =  -13.11 kcal/mol
DOCKED: USER        vdW + Hbond + desolv Energy     =  -13.11 kcal/mol
DOCKED: USER        Electrostatic Energy            =   +0.00 kcal/mol
DOCKED: USER    (2) Final Total Internal Energy     =   -0.80 kcal/mol
DOCKED: USER    (3) Torsional Free Energy           =   +2.39 kcal/mol
DOCKED: USER    (4) Unbound System's Energy  [=(2)] =   -0.80 kcal/mol
DOCKED: USER    
DOCKED: USER    
DOCKED: USER    NEWDPF move ligand.pdbqt
DOCKED: USER    NEWDPF about 0.185000 0.077000 0.153000
DOCKED: USER    NEWDPF tran0 26.032144 -15.522229 -3.326226
DOCKED: USER    NEWDPF quaternion0 0.491826 -0.062575 0.583954 0.642798
DOCKED: USER    NEWDPF axisangle0 0.642040 -0.081687 0.762307 99.998445
DOCKED: USER    NEWDPF quat0 0.642040 -0.081687 0.762307 99.998445
DOCKED: USER    NEWDPF dihe0 -164.08 170.58 111.94 37.41 88.66 -169.68 32.26 61.26 
DOCKED: USER  keepresnum = 1 
DOCKED: USER  
DOCKED: REMARK  Name = 
DOCKED: REMARK  8 active torsions:
DOCKED: REMARK  status: ('A' for Active; 'I' for Inactive)
DOCKED: REMARK    1  A    between atoms: C_2  and  C_10
DOCKED: REMARK    2  A    between atoms: N_3  and  C_4
DOCKED: REMARK    3  A    between atoms: C_10  and  C_11
DOCKED: REMARK    4  A    between atoms: C_11  and  C_12
DOCKED: REMARK    5  A    between atoms: C_12  and  C_13
DOCKED: REMARK    6  A    between atoms: C_13  and  C_14
DOCKED: REMARK    7  A    between atoms: C_14  and  C_15
DOCKED: REMARK    8  A    between atoms: C_15  and  C_16
DOCKED: REMARK                            x       y       z     vdW  Elec       q    Type
DOCKED: REMARK                         _______ _______ _______ _____ _____    ______ ____
DOCKED: USER                              x       y       z     vdW  Elec       q    Type
DOCKED: USER                           _______ _______ _______ _____ _____    ______ ____
DOCKED: ROOT
DOCKED: ATOM      1  C   UNL     1      25.841 -15.566  -3.867 -0.58 -0.00    +0.000 C 
DOCKED: ENDROOT
DOCKED: BRANCH   1   3
DOCKED: ATOM      2  O   UNL     1      27.226 -13.954  -4.951 -0.36 -0.00    +0.000 OA
DOCKED: ATOM      3  C   UNL     1      26.096 -14.210  -4.453 -0.47 -0.00    +0.000 C 
DOCKED: ATOM      4  N   UNL     1      25.057 -13.217  -4.442 -0.44 -0.00    +0.000 N 
DOCKED: ATOM      5  H   UNL     1      24.146 -13.506  -4.209 -0.27 -0.00    +0.000 HD
DOCKED: BRANCH   4   6
DOCKED: ATOM      6  C   UNL     1      25.267 -11.829  -4.749 -0.31 -0.00    +0.000 A 
DOCKED: ATOM      7  C   UNL     1      26.407 -11.177  -4.249 -0.20 -0.00    +0.000 A 
DOCKED: ATOM      8  C   UNL     1      26.646  -9.835  -4.554 -0.13 -0.00    +0.000 A 
DOCKED: ATOM      9  C   UNL     1      25.759  -9.133  -5.373 -0.16 -0.00    +0.000 A 
DOCKED: ATOM     10  C   UNL     1      24.634  -9.777  -5.896 -0.34 -0.00    +0.000 A 
DOCKED: ATOM     11  C   UNL     1      24.390 -11.121  -5.592 -0.33 -0.00    +0.000 A 
DOCKED: ENDBRANCH   4   6
DOCKED: ENDBRANCH   1   3
DOCKED: BRANCH   1  12
DOCKED: ATOM     12  C   UNL     1      25.222 -15.436  -2.471 -0.47 -0.00    +0.000 C 
DOCKED: BRANCH  12  13
DOCKED: ATOM     13  C   UNL     1      26.011 -16.197  -1.392 -0.51 -0.00    +0.000 C 
DOCKED: BRANCH  13  14
DOCKED: ATOM     14  C   UNL     1      25.355 -17.531  -0.975 -0.67 -0.00    +0.000 C 
DOCKED: BRANCH  14  15
DOCKED: ATOM     15  C   UNL     1      23.897 -17.635  -1.457 -0.72 -0.00    +0.000 C 
DOCKED: BRANCH  15  16
DOCKED: ATOM     16  C   UNL     1      23.028 -18.468  -0.505 -0.83 -0.00    +0.000 C 
DOCKED: BRANCH  16  17
DOCKED: ATOM     17  C   UNL     1      21.606 -18.553  -0.979 -0.81 -0.00    +0.000 C 
DOCKED: ATOM     18  N   UNL     1      21.154 -19.697  -1.707 -0.63 -0.00    +0.000 N 
DOCKED: ATOM     19  O   UNL     1      19.869 -19.781  -2.122 -2.30 -0.00    +0.000 OA
DOCKED: ATOM     20  O   UNL     1      20.802 -17.622  -0.708 -2.15 +0.00    +0.000 OA
DOCKED: ATOM     21  H   UNL     1      21.781 -20.429  -1.908 -0.45 -0.00    +0.000 HD
DOCKED: ENDBRANCH  16  17
DOCKED: ENDBRANCH  15  16
DOCKED: ENDBRANCH  14  15
DOCKED: ENDBRANCH  13  14
DOCKED: ENDBRANCH  12  13
DOCKED: ENDBRANCH   1  12
DOCKED: TORSDOF 8
DOCKED: TER
DOCKED: ENDMDL
________________________________________________________________________________


	BEGINNING GENETIC ALGORITHM DOCKING 97 of 100
Run: 97 Seed: 512445034 798104160 [ Run 97 of 100 GA/GALS ]
Beginning LAMARCKIAN GENETIC ALGORITHM (LGA), with a maximum of 2500000 energy evaluations.

Final-Value: -12.244


	FINAL GENETIC ALGORITHM DOCKED STATE
	_______________________________________________


Detailed state:  trans 26.447 -15.584 -2.396 quatxyzw -0.014922 -0.601794 0.115316 0.790141 center 0.185 0.077 0.153 ntor 8 95.1465 152.1037 159.4925 82.2507 109.9120 40.9003 -180.0000 -167.3860
State:	 26.447 -15.584  -2.396  -0.024 -0.982  0.188 75.603     95.15  152.10  159.49   82.25  109.91   40.90 -180.00 -167.39

DOCKED: MODEL       97
DOCKED: USER    Run = 97
DOCKED: USER    DPF = ligand_dock.biased.dpf
DOCKED: USER  
DOCKED: USER    Estimated Free Energy of Binding    =   -8.75 kcal/mol  [=(1)+(2)+(3)-(4)]
DOCKED: USER    Estimated Inhibition Constant, Ki   =  384.38 nM (nanomolar)  [Temperature = 298.15 K]
DOCKED: USER    
DOCKED: USER    (1) Final Intermolecular Energy     =  -11.14 kcal/mol
DOCKED: USER        vdW + Hbond + desolv Energy     =  -11.14 kcal/mol
DOCKED: USER        Electrostatic Energy            =   +0.00 kcal/mol
DOCKED: USER    (2) Final Total Internal Energy     =   -1.11 kcal/mol
DOCKED: USER    (3) Torsional Free Energy           =   +2.39 kcal/mol
DOCKED: USER    (4) Unbound System's Energy  [=(2)] =   -1.11 kcal/mol
DOCKED: USER    
DOCKED: USER    
DOCKED: USER    NEWDPF move ligand.pdbqt
DOCKED: USER    NEWDPF about 0.185000 0.077000 0.153000
DOCKED: USER    NEWDPF tran0 26.447168 -15.583559 -2.396298
DOCKED: USER    NEWDPF quaternion0 -0.014922 -0.601794 0.115316 0.790141
DOCKED: USER    NEWDPF axisangle0 -0.024346 -0.981840 0.188140 75.602571
DOCKED: USER    NEWDPF quat0 -0.024346 -0.981840 0.188140 75.602571
DOCKED: USER    NEWDPF dihe0 95.15 152.10 159.49 82.25 109.91 40.90 -180.00 -167.39 
DOCKED: USER  keepresnum = 1 
DOCKED: USER  
DOCKED: REMARK  Name = 
DOCKED: REMARK  8 active torsions:
DOCKED: REMARK  status: ('A' for Active; 'I' for Inactive)
DOCKED: REMARK    1  A    between atoms: C_2  and  C_10
DOCKED: REMARK    2  A    between atoms: N_3  and  C_4
DOCKED: REMARK    3  A    between atoms: C_10  and  C_11
DOCKED: REMARK    4  A    between atoms: C_11  and  C_12
DOCKED: REMARK    5  A    between atoms: C_12  and  C_13
DOCKED: REMARK    6  A    between atoms: C_13  and  C_14
DOCKED: REMARK    7  A    between atoms: C_14  and  C_15
DOCKED: REMARK    8  A    between atoms: C_15  and  C_16
DOCKED: REMARK                            x       y       z     vdW  Elec       q    Type
DOCKED: REMARK                         _______ _______ _______ _____ _____    ______ ____
DOCKED: USER                              x       y       z     vdW  Elec       q    Type
DOCKED: USER                           _______ _______ _______ _____ _____    ______ ____
DOCKED: ROOT
DOCKED: ATOM      1  C   UNL     1      26.023 -15.217  -2.265 -0.45 -0.00    +0.000 C 
DOCKED: ENDROOT
DOCKED: BRANCH   1   3
DOCKED: ATOM      2  O   UNL     1      25.502 -14.846   0.033 -0.13 -0.00    +0.000 OA
DOCKED: ATOM      3  C   UNL     1      26.365 -14.749  -0.882 -0.36 -0.00    +0.000 C 
DOCKED: ATOM      4  N   UNL     1      27.663 -14.198  -0.612 -0.18 -0.00    +0.000 N 
DOCKED: ATOM      5  H   UNL     1      28.360 -14.301  -1.299 +0.01 -0.00    +0.000 HD
DOCKED: BRANCH   4   6
DOCKED: ATOM      6  C   UNL     1      28.007 -13.504   0.600 -0.17 -0.00    +0.000 A 
DOCKED: ATOM      7  C   UNL     1      27.310 -12.335   0.945 -0.21 -0.00    +0.000 A 
DOCKED: ATOM      8  C   UNL     1      27.608 -11.656   2.130 -0.21 +0.00    +0.000 A 
DOCKED: ATOM      9  C   UNL     1      28.596 -12.146   2.988 -0.16 -0.00    +0.000 A 
DOCKED: ATOM     10  C   UNL     1      29.280 -13.321   2.667 -0.16 -0.00    +0.000 A 
DOCKED: ATOM     11  C   UNL     1      28.984 -14.003   1.481 -0.17 -0.00    +0.000 A 
DOCKED: ENDBRANCH   4   6
DOCKED: ENDBRANCH   1   3
DOCKED: BRANCH   1  12
DOCKED: ATOM     12  C   UNL     1      26.192 -16.737  -2.370 -0.38 -0.00    +0.000 C 
DOCKED: BRANCH  12  13
DOCKED: ATOM     13  C   UNL     1      26.516 -17.398  -1.020 -0.55 -0.00    +0.000 C 
DOCKED: BRANCH  13  14
DOCKED: ATOM     14  C   UNL     1      25.341 -18.211  -0.435 -0.70 -0.00    +0.000 C 
DOCKED: BRANCH  14  15
DOCKED: ATOM     15  C   UNL     1      24.160 -18.312  -1.417 -0.72 -0.00    +0.000 C 
DOCKED: BRANCH  15  16
DOCKED: ATOM     16  C   UNL     1      23.000 -17.384  -1.032 -0.69 -0.00    +0.000 C 
DOCKED: BRANCH  16  17
DOCKED: ATOM     17  C   UNL     1      21.679 -18.094  -1.077 -0.65 -0.00    +0.000 C 
DOCKED: ATOM     18  N   UNL     1      21.604 -19.456  -1.507 -0.66 -0.00    +0.000 N 
DOCKED: ATOM     19  O   UNL     1      20.416 -20.102  -1.534 -2.10 -0.00    +0.000 OA
DOCKED: ATOM     20  O   UNL     1      20.634 -17.494  -0.708 -2.09 +0.00    +0.000 OA
DOCKED: ATOM     21  H   UNL     1      22.423 -19.927  -1.785 -0.40 -0.00    +0.000 HD
DOCKED: ENDBRANCH  16  17
DOCKED: ENDBRANCH  15  16
DOCKED: ENDBRANCH  14  15
DOCKED: ENDBRANCH  13  14
DOCKED: ENDBRANCH  12  13
DOCKED: ENDBRANCH   1  12
DOCKED: TORSDOF 8
DOCKED: TER
DOCKED: ENDMDL
________________________________________________________________________________


	BEGINNING GENETIC ALGORITHM DOCKING 98 of 100
Run: 98 Seed: 1353742236 829836528 [ Run 98 of 100 GA/GALS ]
Beginning LAMARCKIAN GENETIC ALGORITHM (LGA), with a maximum of 2500000 energy evaluations.

Final-Value: -14.200


	FINAL GENETIC ALGORITHM DOCKED STATE
	_______________________________________________


Detailed state:  trans 26.249 -16.422 -2.749 quatxyzw 0.411225 -0.763456 0.489943 -0.089363 center 0.185 0.077 0.153 ntor 8 -144.6786 114.1905 -174.5016 64.9599 -11.1519 -37.8796 52.6733 32.6906
State:	 26.249 -16.422  -2.749   0.413 -0.767  0.492 -169.746   -144.68  114.19 -174.50   64.96  -11.15  -37.88   52.67   32.69

DOCKED: MODEL       98
DOCKED: USER    Run = 98
DOCKED: USER    DPF = ligand_dock.biased.dpf
DOCKED: USER  
DOCKED: USER    Estimated Free Energy of Binding    =  -10.98 kcal/mol  [=(1)+(2)+(3)-(4)]
DOCKED: USER    Estimated Inhibition Constant, Ki   =    8.89 nM (nanomolar)  [Temperature = 298.15 K]
DOCKED: USER    
DOCKED: USER    (1) Final Intermolecular Energy     =  -13.37 kcal/mol
DOCKED: USER        vdW + Hbond + desolv Energy     =  -13.37 kcal/mol
DOCKED: USER        Electrostatic Energy            =   +0.00 kcal/mol
DOCKED: USER    (2) Final Total Internal Energy     =   -0.83 kcal/mol
DOCKED: USER    (3) Torsional Free Energy           =   +2.39 kcal/mol
DOCKED: USER    (4) Unbound System's Energy  [=(2)] =   -0.83 kcal/mol
DOCKED: USER    
DOCKED: USER    
DOCKED: USER    NEWDPF move ligand.pdbqt
DOCKED: USER    NEWDPF about 0.185000 0.077000 0.153000
DOCKED: USER    NEWDPF tran0 26.248577 -16.421872 -2.748666
DOCKED: USER    NEWDPF quaternion0 0.411225 -0.763456 0.489943 -0.089363
DOCKED: USER    NEWDPF axisangle0 0.412876 -0.766522 0.491911 -169.746027
DOCKED: USER    NEWDPF quat0 0.412876 -0.766522 0.491911 -169.746027
DOCKED: USER    NEWDPF dihe0 -144.68 114.19 -174.50 64.96 -11.15 -37.88 52.67 32.69 
DOCKED: USER  keepresnum = 1 
DOCKED: USER  
DOCKED: REMARK  Name = 
DOCKED: REMARK  8 active torsions:
DOCKED: REMARK  status: ('A' for Active; 'I' for Inactive)
DOCKED: REMARK    1  A    between atoms: C_2  and  C_10
DOCKED: REMARK    2  A    between atoms: N_3  and  C_4
DOCKED: REMARK    3  A    between atoms: C_10  and  C_11
DOCKED: REMARK    4  A    between atoms: C_11  and  C_12
DOCKED: REMARK    5  A    between atoms: C_12  and  C_13
DOCKED: REMARK    6  A    between atoms: C_13  and  C_14
DOCKED: REMARK    7  A    between atoms: C_14  and  C_15
DOCKED: REMARK    8  A    between atoms: C_15  and  C_16
DOCKED: REMARK                            x       y       z     vdW  Elec       q    Type
DOCKED: REMARK                         _______ _______ _______ _____ _____    ______ ____
DOCKED: USER                              x       y       z     vdW  Elec       q    Type
DOCKED: USER                           _______ _______ _______ _____ _____    ______ ____
DOCKED: ROOT
DOCKED: ATOM      1  C   UNL     1      26.139 -15.869  -2.865 -0.50 -0.00    +0.000 C 
DOCKED: ENDROOT
DOCKED: BRANCH   1   3
DOCKED: ATOM      2  O   UNL     1      26.259 -15.495  -5.218 -1.14 +0.00    +0.000 OA
DOCKED: ATOM      3  C   UNL     1      26.894 -15.610  -4.135 -0.42 -0.00    +0.000 C 
DOCKED: ATOM      4  N   UNL     1      28.325 -15.494  -4.107 -0.29 -0.00    +0.000 N 
DOCKED: ATOM      5  H   UNL     1      28.765 -15.413  -3.230 +0.00 -0.00    +0.000 HD
DOCKED: BRANCH   4   6
DOCKED: ATOM      6  C   UNL     1      29.155 -15.491  -5.281 -0.30 -0.00    +0.000 A 
DOCKED: ATOM      7  C   UNL     1      29.791 -16.679  -5.677 -0.29 -0.00    +0.000 A 
DOCKED: ATOM      8  C   UNL     1      30.583 -16.709  -6.828 -0.30 -0.00    +0.000 A 
DOCKED: ATOM      9  C   UNL     1      30.736 -15.556  -7.603 -0.22 -0.00    +0.000 A 
DOCKED: ATOM     10  C   UNL     1      30.090 -14.374  -7.232 -0.24 -0.00    +0.000 A 
DOCKED: ATOM     11  C   UNL     1      29.297 -14.341  -6.080 -0.26 -0.00    +0.000 A 
DOCKED: ENDBRANCH   4   6
DOCKED: ENDBRANCH   1   3
DOCKED: BRANCH   1  12
DOCKED: ATOM     12  C   UNL     1      27.012 -16.652  -1.877 -0.41 -0.00    +0.000 C 
DOCKED: BRANCH  12  13
DOCKED: ATOM     13  C   UNL     1      26.189 -17.487  -0.882 -0.60 -0.00    +0.000 C 
DOCKED: BRANCH  13  14
DOCKED: ATOM     14  C   UNL     1      24.828 -17.950  -1.444 -0.65 -0.00    +0.000 C 
DOCKED: BRANCH  14  15
DOCKED: ATOM     15  C   UNL     1      23.645 -17.311  -0.696 -0.72 -0.00    +0.000 C 
DOCKED: BRANCH  15  16
DOCKED: ATOM     16  C   UNL     1      22.716 -18.361  -0.070 -0.79 -0.00    +0.000 C 
DOCKED: BRANCH  16  17
DOCKED: ATOM     17  C   UNL     1      21.420 -18.474  -0.816 -0.82 -0.00    +0.000 C 
DOCKED: ATOM     18  N   UNL     1      21.060 -19.700  -1.459 -0.74 -0.00    +0.000 N 
DOCKED: ATOM     19  O   UNL     1      19.884 -19.808  -2.119 -2.30 -0.00    +0.000 OA
DOCKED: ATOM     20  O   UNL     1      20.632 -17.491  -0.852 -2.10 +0.00    +0.000 OA
DOCKED: ATOM     21  H   UNL     1      21.671 -20.470  -1.420 -0.28 -0.00    +0.000 HD
DOCKED: ENDBRANCH  16  17
DOCKED: ENDBRANCH  15  16
DOCKED: ENDBRANCH  14  15
DOCKED: ENDBRANCH  13  14
DOCKED: ENDBRANCH  12  13
DOCKED: ENDBRANCH   1  12
DOCKED: TORSDOF 8
DOCKED: TER
DOCKED: ENDMDL
________________________________________________________________________________


	BEGINNING GENETIC ALGORITHM DOCKING 99 of 100
Run: 99 Seed: 401388162 1643529609 [ Run 99 of 100 GA/GALS ]
Beginning LAMARCKIAN GENETIC ALGORITHM (LGA), with a maximum of 2500000 energy evaluations.

Final-Value: -13.472


	FINAL GENETIC ALGORITHM DOCKED STATE
	_______________________________________________


Detailed state:  trans 26.204 -15.164 -3.166 quatxyzw 0.557824 -0.142048 0.303279 0.759392 center 0.185 0.077 0.153 ntor 8 -164.9330 -177.7283 88.7756 130.2262 -56.5105 20.1734 167.3302 -74.0234
State:	 26.204 -15.164  -3.166   0.857 -0.218  0.466 81.179   -164.93 -177.73   88.78  130.23  -56.51   20.17  167.33  -74.02

DOCKED: MODEL       99
DOCKED: USER    Run = 99
DOCKED: USER    DPF = ligand_dock.biased.dpf
DOCKED: USER  
DOCKED: USER    Estimated Free Energy of Binding    =  -10.35 kcal/mol  [=(1)+(2)+(3)-(4)]
DOCKED: USER    Estimated Inhibition Constant, Ki   =   26.11 nM (nanomolar)  [Temperature = 298.15 K]
DOCKED: USER    
DOCKED: USER    (1) Final Intermolecular Energy     =  -12.73 kcal/mol
DOCKED: USER        vdW + Hbond + desolv Energy     =  -12.73 kcal/mol
DOCKED: USER        Electrostatic Energy            =   +0.00 kcal/mol
DOCKED: USER    (2) Final Total Internal Energy     =   -0.74 kcal/mol
DOCKED: USER    (3) Torsional Free Energy           =   +2.39 kcal/mol
DOCKED: USER    (4) Unbound System's Energy  [=(2)] =   -0.74 kcal/mol
DOCKED: USER    
DOCKED: USER    
DOCKED: USER    NEWDPF move ligand.pdbqt
DOCKED: USER    NEWDPF about 0.185000 0.077000 0.153000
DOCKED: USER    NEWDPF tran0 26.203732 -15.164028 -3.165555
DOCKED: USER    NEWDPF quaternion0 0.557824 -0.142048 0.303279 0.759392
DOCKED: USER    NEWDPF axisangle0 0.857355 -0.218323 0.466129 81.178670
DOCKED: USER    NEWDPF quat0 0.857355 -0.218323 0.466129 81.178670
DOCKED: USER    NEWDPF dihe0 -164.93 -177.73 88.78 130.23 -56.51 20.17 167.33 -74.02 
DOCKED: USER  keepresnum = 1 
DOCKED: USER  
DOCKED: REMARK  Name = 
DOCKED: REMARK  8 active torsions:
DOCKED: REMARK  status: ('A' for Active; 'I' for Inactive)
DOCKED: REMARK    1  A    between atoms: C_2  and  C_10
DOCKED: REMARK    2  A    between atoms: N_3  and  C_4
DOCKED: REMARK    3  A    between atoms: C_10  and  C_11
DOCKED: REMARK    4  A    between atoms: C_11  and  C_12
DOCKED: REMARK    5  A    between atoms: C_12  and  C_13
DOCKED: REMARK    6  A    between atoms: C_13  and  C_14
DOCKED: REMARK    7  A    between atoms: C_14  and  C_15
DOCKED: REMARK    8  A    between atoms: C_15  and  C_16
DOCKED: REMARK                            x       y       z     vdW  Elec       q    Type
DOCKED: REMARK                         _______ _______ _______ _____ _____    ______ ____
DOCKED: USER                              x       y       z     vdW  Elec       q    Type
DOCKED: USER                           _______ _______ _______ _____ _____    ______ ____
DOCKED: ROOT
DOCKED: ATOM      1  C   UNL     1      25.820 -15.258  -3.584 -0.57 -0.00    +0.000 C 
DOCKED: ENDROOT
DOCKED: BRANCH   1   3
DOCKED: ATOM      2  O   UNL     1      24.023 -13.769  -4.081 -1.07 -0.00    +0.000 OA
DOCKED: ATOM      3  C   UNL     1      25.260 -13.897  -3.873 -0.47 -0.00    +0.000 C 
DOCKED: ATOM      4  N   UNL     1      26.133 -12.756  -3.911 -0.30 -0.00    +0.000 N 
DOCKED: ATOM      5  H   UNL     1      27.051 -12.866  -3.574 -0.00 -0.00    +0.000 HD
DOCKED: BRANCH   4   6
DOCKED: ATOM      6  C   UNL     1      25.748 -11.465  -4.412 -0.26 -0.00    +0.000 A 
DOCKED: ATOM      7  C   UNL     1      24.784 -11.380  -5.430 -0.23 -0.00    +0.000 A 
DOCKED: ATOM      8  C   UNL     1      24.376 -10.136  -5.917 -0.40 -0.00    +0.000 A 
DOCKED: ATOM      9  C   UNL     1      24.914  -8.963  -5.382 -0.24 -0.00    +0.000 A 
DOCKED: ATOM     10  C   UNL     1      25.856  -9.034  -4.352 -0.17 -0.00    +0.000 A 
DOCKED: ATOM     11  C   UNL     1      26.268 -10.278  -3.863 -0.17 -0.00    +0.000 A 
DOCKED: ENDBRANCH   4   6
DOCKED: ENDBRANCH   1   3
DOCKED: BRANCH   1  12
DOCKED: ATOM     12  C   UNL     1      25.901 -15.490  -2.071 -0.48 -0.00    +0.000 C 
DOCKED: BRANCH  12  13
DOCKED: ATOM     13  C   UNL     1      24.729 -16.326  -1.530 -0.55 -0.00    +0.000 C 
DOCKED: BRANCH  13  14
DOCKED: ATOM     14  C   UNL     1      24.972 -17.848  -1.604 -0.60 -0.00    +0.000 C 
DOCKED: BRANCH  14  15
DOCKED: ATOM     15  C   UNL     1      23.659 -18.649  -1.543 -0.72 -0.00    +0.000 C 
DOCKED: BRANCH  15  16
DOCKED: ATOM     16  C   UNL     1      22.834 -18.322  -0.291 -0.82 -0.00    +0.000 C 
DOCKED: BRANCH  16  17
DOCKED: ATOM     17  C   UNL     1      21.378 -18.625  -0.488 -0.84 -0.00    +0.000 C 
DOCKED: ATOM     18  N   UNL     1      20.827 -19.860  -0.025 -0.71 -0.00    +0.000 N 
DOCKED: ATOM     19  O   UNL     1      19.511 -20.128  -0.189 -1.30 -0.00    +0.000 OA
DOCKED: ATOM     20  O   UNL     1      20.632 -17.771  -1.039 -2.21 -0.00    +0.000 OA
DOCKED: ATOM     21  H   UNL     1      21.409 -20.521   0.415 -0.60 -0.00    +0.000 HD
DOCKED: ENDBRANCH  16  17
DOCKED: ENDBRANCH  15  16
DOCKED: ENDBRANCH  14  15
DOCKED: ENDBRANCH  13  14
DOCKED: ENDBRANCH  12  13
DOCKED: ENDBRANCH   1  12
DOCKED: TORSDOF 8
DOCKED: TER
DOCKED: ENDMDL
________________________________________________________________________________


	BEGINNING GENETIC ALGORITHM DOCKING 100 of 100
Run: 100 Seed: 1794979463 1814749848 [ Run 100 of 100 GA/GALS ]
Beginning LAMARCKIAN GENETIC ALGORITHM (LGA), with a maximum of 2500000 energy evaluations.

Final-Value: -14.845


	FINAL GENETIC ALGORITHM DOCKED STATE
	_______________________________________________


Detailed state:  trans 27.803 -15.370 0.071 quatxyzw 0.247923 0.283658 -0.421337 -0.824953 center 0.185 0.077 0.153 ntor 8 -133.0255 70.4918 153.4137 33.6570 -169.0595 108.4389 -180.0000 -48.3183
State:	 27.803 -15.370   0.071   0.439  0.502 -0.745 -68.833   -133.03   70.49  153.41   33.66 -169.06  108.44 -180.00  -48.32

DOCKED: MODEL      100
DOCKED: USER    Run = 100
DOCKED: USER    DPF = ligand_dock.biased.dpf
DOCKED: USER  
DOCKED: USER    Estimated Free Energy of Binding    =  -11.81 kcal/mol  [=(1)+(2)+(3)-(4)]
DOCKED: USER    Estimated Inhibition Constant, Ki   =    2.20 nM (nanomolar)  [Temperature = 298.15 K]
DOCKED: USER    
DOCKED: USER    (1) Final Intermolecular Energy     =  -14.20 kcal/mol
DOCKED: USER        vdW + Hbond + desolv Energy     =  -14.20 kcal/mol
DOCKED: USER        Electrostatic Energy            =   +0.00 kcal/mol
DOCKED: USER    (2) Final Total Internal Energy     =   -0.65 kcal/mol
DOCKED: USER    (3) Torsional Free Energy           =   +2.39 kcal/mol
DOCKED: USER    (4) Unbound System's Energy  [=(2)] =   -0.65 kcal/mol
DOCKED: USER    
DOCKED: USER    
DOCKED: USER    NEWDPF move ligand.pdbqt
DOCKED: USER    NEWDPF about 0.185000 0.077000 0.153000
DOCKED: USER    NEWDPF tran0 27.802849 -15.370434 0.071093
DOCKED: USER    NEWDPF quaternion0 0.247923 0.283658 -0.421337 -0.824953
DOCKED: USER    NEWDPF axisangle0 0.438645 0.501871 -0.745464 -68.832531
DOCKED: USER    NEWDPF quat0 0.438645 0.501871 -0.745464 -68.832531
DOCKED: USER    NEWDPF dihe0 -133.03 70.49 153.41 33.66 -169.06 108.44 -180.00 -48.32 
DOCKED: USER  keepresnum = 1 
DOCKED: USER  
DOCKED: REMARK  Name = 
DOCKED: REMARK  8 active torsions:
DOCKED: REMARK  status: ('A' for Active; 'I' for Inactive)
DOCKED: REMARK    1  A    between atoms: C_2  and  C_10
DOCKED: REMARK    2  A    between atoms: N_3  and  C_4
DOCKED: REMARK    3  A    between atoms: C_10  and  C_11
DOCKED: REMARK    4  A    between atoms: C_11  and  C_12
DOCKED: REMARK    5  A    between atoms: C_12  and  C_13
DOCKED: REMARK    6  A    between atoms: C_13  and  C_14
DOCKED: REMARK    7  A    between atoms: C_14  and  C_15
DOCKED: REMARK    8  A    between atoms: C_15  and  C_16
DOCKED: REMARK                            x       y       z     vdW  Elec       q    Type
DOCKED: REMARK                         _______ _______ _______ _____ _____    ______ ____
DOCKED: USER                              x       y       z     vdW  Elec       q    Type
DOCKED: USER                           _______ _______ _______ _____ _____    ______ ____
DOCKED: ROOT
DOCKED: ATOM      1  C   UNL     1      27.767 -14.799   0.007 -0.27 -0.00    +0.000 C 
DOCKED: ENDROOT
DOCKED: BRANCH   1   3
DOCKED: ATOM      2  O   UNL     1      26.626 -13.532   1.676 -0.38 -0.00    +0.000 OA
DOCKED: ATOM      3  C   UNL     1      27.599 -14.289   1.407 -0.28 -0.00    +0.000 C 
DOCKED: ATOM      4  N   UNL     1      28.541 -14.663   2.424 -0.13 -0.00    +0.000 N 
DOCKED: ATOM      5  H   UNL     1      29.176 -15.387   2.222 -1.83 -0.00    +0.000 HD
DOCKED: BRANCH   4   6
DOCKED: ATOM      6  C   UNL     1      28.614 -14.045   3.721 -0.37 -0.00    +0.000 A 
DOCKED: ATOM      7  C   UNL     1      29.871 -13.826   4.308 -0.28 -0.00    +0.000 A 
DOCKED: ATOM      8  C   UNL     1      29.971 -13.205   5.556 -0.26 -0.00    +0.000 A 
DOCKED: ATOM      9  C   UNL     1      28.818 -12.782   6.222 -0.37 -0.00    +0.000 A 
DOCKED: ATOM     10  C   UNL     1      27.563 -12.973   5.637 -0.28 +0.00    +0.000 A 
DOCKED: ATOM     11  C   UNL     1      27.460 -13.596   4.388 -0.46 -0.00    +0.000 A 
DOCKED: ENDBRANCH   4   6
DOCKED: ENDBRANCH   1   3
DOCKED: BRANCH   1  12
DOCKED: ATOM     12  C   UNL     1      26.857 -16.010  -0.231 -0.39 -0.00    +0.000 C 
DOCKED: BRANCH  12  13
DOCKED: ATOM     13  C   UNL     1      25.932 -15.834  -1.447 -0.49 -0.00    +0.000 C 
DOCKED: BRANCH  13  14
DOCKED: ATOM     14  C   UNL     1      25.094 -17.089  -1.770 -0.64 -0.00    +0.000 C 
DOCKED: BRANCH  14  15
DOCKED: ATOM     15  C   UNL     1      23.765 -17.115  -0.993 -0.70 -0.00    +0.000 C 
DOCKED: BRANCH  15  16
DOCKED: ATOM     16  C   UNL     1      23.257 -18.544  -0.756 -0.83 -0.00    +0.000 C 
DOCKED: BRANCH  16  17
DOCKED: ATOM     17  C   UNL     1      21.772 -18.646  -0.950 -0.83 -0.00    +0.000 C 
DOCKED: ATOM     18  N   UNL     1      21.222 -19.654  -1.803 -0.58 -0.00    +0.000 N 
DOCKED: ATOM     19  O   UNL     1      19.883 -19.756  -1.966 -2.36 -0.00    +0.000 OA
DOCKED: ATOM     20  O   UNL     1      21.007 -17.857  -0.335 -1.93 +0.00    +0.000 OA
DOCKED: ATOM     21  H   UNL     1      21.821 -20.277  -2.274 -0.55 -0.00    +0.000 HD
DOCKED: ENDBRANCH  16  17
DOCKED: ENDBRANCH  15  16
DOCKED: ENDBRANCH  14  15
DOCKED: ENDBRANCH  13  14
DOCKED: ENDBRANCH  12  13
DOCKED: ENDBRANCH   1  12
DOCKED: TORSDOF 8
DOCKED: TER
DOCKED: ENDMDL
________________________________________________________________________________

DPF>                           # do this many hybrid GA-LS runs

DPF> analysis                             # perform a ranked cluster analysis


		CLUSTER ANALYSIS OF CONFORMATIONS
		_________________________________

Number of conformations = 100

RMSD cluster analysis will be performed using the ligand atoms only (21 / 21 total atoms).

Outputting structurally similar clusters, ranked in order of increasing energy.


________________________________________________________________________________

Number of distinct conformational clusters found = 7,  out of 100 runs,
Using an rmsd-tolerance of 2.0 A


	CLUSTERING HISTOGRAM
	____________________

________________________________________________________________________________
     |           |     |           |     |                                    
Clus | Lowest    | Run | Mean      | Num | Histogram                          
-ter | Binding   |     | Binding   | in  |                                    
Rank | Energy    |     | Energy    | Clus|    5    10   15   20   25   30   35
_____|___________|_____|___________|_____|____:____|____:____|____:____|____:___
   1 |    -12.27 |  94 |    -10.82 |  33 |#################################
   2 |    -11.17 |  19 |    -10.05 |  43 |###########################################
   3 |    -10.81 |  28 |    -10.00 |  16 |################
   4 |     -9.69 |  52 |     -9.03 |   4 |####
   5 |     -9.60 |  32 |     -9.37 |   2 |##
   6 |     -8.86 |  61 |     -8.86 |   1 |#
   7 |     -8.48 |   1 |     -8.48 |   1 |#
_____|___________|_____|___________|_____|______________________________________


Number of multi-member conformational clusters found = 5, out of 100 runs.

	RMSD TABLE
	__________

_____________________________________________________________________
     |      |      |           |         |                 |
Rank | Sub- | Run  | Binding   | Cluster | Reference       | Grep
     | Rank |      | Energy    | RMSD    | RMSD            | Pattern
_____|______|______|___________|_________|_________________|___________
   1      1     94      -12.27      0.00     28.51           RANKING
   1      2      3      -12.05      0.31     28.48           RANKING
   1      3      8      -11.94      0.50     28.57           RANKING
   1      4    100      -11.81      0.75     28.73           RANKING
   1      5     72      -11.80      0.62     28.64           RANKING
   1      6     54      -11.79      0.72     28.43           RANKING
   1      7     21      -11.76      0.60     28.35           RANKING
   1      8     85      -11.46      0.60     28.40           RANKING
   1      9     67      -11.31      0.90     28.63           RANKING
   1     10     86      -11.30      0.62     28.52           RANKING
   1     11     23      -11.30      0.62     28.61           RANKING
   1     12     59      -11.26      0.65     28.44           RANKING
   1     13     12      -11.21      0.83     28.67           RANKING
   1     14     25      -11.18      0.88     28.74           RANKING
   1     15     46      -11.10      0.78     28.57           RANKING
   1     16     10      -11.07      0.61     28.64           RANKING
   1     17     77      -11.04      0.71     28.55           RANKING
   1     18     49      -10.95      1.67     28.13           RANKING
   1     19     33      -10.94      0.86     28.74           RANKING
   1     20     34      -10.74      0.86     28.28           RANKING
   1     21      2      -10.72      0.85     28.39           RANKING
   1     22     90      -10.48      0.61     28.60           RANKING
   1     23     91      -10.26      1.26     28.30           RANKING
   1     24     70      -10.16      0.93     28.67           RANKING
   1     25     62      -10.15      1.30     28.44           RANKING
   1     26     76      -10.11      1.13     28.44           RANKING
   1     27      6      -10.06      1.28     28.61           RANKING
   1     28     43      -10.04      0.91     28.44           RANKING
   1     29     75      -10.01      1.38     28.08           RANKING
   1     30     31       -9.61      1.95     29.75           RANKING
   1     31     71       -9.56      1.64     28.68           RANKING
   1     32     89       -8.98      1.66     28.07           RANKING
   1     33     97       -8.75      1.92     28.36           RANKING
   2      1     19      -11.17      0.00     29.23           RANKING
   2      2     98      -10.98      0.78     29.71           RANKING
   2      3     50      -10.84      1.37     30.25           RANKING
   2      4     58      -10.74      0.82     29.28           RANKING
   2      5     20      -10.72      1.04     29.83           RANKING
   2      6     56      -10.61      1.35     30.15           RANKING
   2      7     60      -10.56      0.69     29.22           RANKING
   2      8     17      -10.56      0.93     29.69           RANKING
   2      9     51      -10.44      0.74     29.49           RANKING
   2     10     84      -10.41      1.18     29.45           RANKING
   2     11     44      -10.38      0.98     29.64           RANKING
   2     12     15      -10.37      1.47     30.06           RANKING
   2     13     24      -10.36      0.75     29.36           RANKING
   2     14     83      -10.36      1.79     30.58           RANKING
   2     15     13      -10.35      1.27     30.07           RANKING
   2     16     82      -10.28      1.42     28.66           RANKING
   2     17     14      -10.27      1.23     29.66           RANKING
   2     18     53      -10.25      1.13     28.89           RANKING
   2     19     45      -10.22      1.25     29.23           RANKING
   2     20     47      -10.16      1.05     29.55           RANKING
   2     21     73      -10.10      1.27     29.36           RANKING
   2     22     11      -10.10      1.31     29.14           RANKING
   2     23     16      -10.10      0.91     29.71           RANKING
   2     24     65      -10.06      1.28     29.42           RANKING
   2     25     69      -10.02      1.48     28.49           RANKING
   2     26     29       -9.99      1.30     28.96           RANKING
   2     27     40       -9.89      1.14     29.18           RANKING
   2     28     68       -9.82      1.57     29.08           RANKING
   2     29     87       -9.76      1.19     28.99           RANKING
   2     30     18       -9.71      1.63     28.84           RANKING
   2     31     37       -9.69      1.35     28.70           RANKING
   2     32     80       -9.69      1.94     28.78           RANKING
   2     33      7       -9.67      1.45     29.45           RANKING
   2     34     26       -9.61      1.59     29.34           RANKING
   2     35     78       -9.56      1.89     28.47           RANKING
   2     36     63       -9.55      1.49     29.93           RANKING
   2     37     95       -9.54      1.72     28.23           RANKING
   2     38     30       -9.45      1.64     29.34           RANKING
   2     39     66       -9.45      1.49     29.82           RANKING
   2     40     88       -9.38      1.44     29.91           RANKING
   2     41     35       -9.32      1.59     29.23           RANKING
   2     42     48       -9.02      1.62     29.25           RANKING
   2     43     39       -8.84      1.51     30.17           RANKING
   3      1     28      -10.81      0.00     27.56           RANKING
   3      2     96      -10.73      0.90     27.00           RANKING
   3      3     55      -10.46      1.30     27.07           RANKING
   3      4      9      -10.43      1.15     26.78           RANKING
   3      5     99      -10.35      1.50     26.81           RANKING
   3      6     36      -10.29      0.99     27.07           RANKING
   3      7     42      -10.26      1.12     27.39           RANKING
   3      8     22      -10.15      1.41     27.28           RANKING
   3      9     38       -9.78      0.90     27.13           RANKING
   3     10      5       -9.71      1.29     26.56           RANKING
   3     11     74       -9.71      1.89     28.34           RANKING
   3     12     64       -9.65      1.15     27.48           RANKING
   3     13     81       -9.63      0.95     27.61           RANKING
   3     14     92       -9.62      0.83     27.50           RANKING
   3     15     79       -9.24      1.00     27.29           RANKING
   3     16     57       -9.19      1.26     26.85           RANKING
   4      1     52       -9.69      0.00     27.58           RANKING
   4      2     27       -9.20      0.70     27.70           RANKING
   4      3     41       -8.76      1.33     27.35           RANKING
   4      4      4       -8.47      1.74     27.45           RANKING
   5      1     32       -9.60      0.00     30.73           RANKING
   5      2     93       -9.14      1.89     30.55           RANKING
   6      1     61       -8.86      0.00     28.66           RANKING
   7      1      1       -8.48      0.00     27.46           RANKING
_______________________________________________________________________



	INFORMATION ENTROPY ANALYSIS FOR THIS CLUSTERING
	________________________________________________


Information entropy for this clustering = 0.29  (rmstol = 2.00 Angstrom)

_______________________________________________________________________


	STATISTICAL MECHANICAL ANALYSIS
	_______________________________


Partition function, Q =   101.74            at Temperature, T = 298.15 K
Free energy,        A ~ -2738.69 kcal/mol   at Temperature, T = 298.15 K
Internal energy,    U =   -10.22 kcal/mol   at Temperature, T = 298.15 K
Entropy,            S =     9.15 kcal/mol/K at Temperature, T = 298.15 K

_______________________________________________________________________


	LOWEST ENERGY DOCKED CONFORMATION from EACH CLUSTER
	___________________________________________________



Keeping original residue number (specified in the input PDBQ file) for outputting.

MODEL       94
USER    Run = 94
USER    Cluster Rank = 1
USER    Number of conformations in this cluster = 33
USER  
USER    RMSD from reference structure       = 28.509 A
USER  
USER    Estimated Free Energy of Binding    =  -12.27 kcal/mol  [=(1)+(2)+(3)-(4)]
USER    Estimated Inhibition Constant, Ki   =    1.01 nM (nanomolar)  [Temperature = 298.15 K]
USER    
USER    (1) Final Intermolecular Energy     =  -14.66 kcal/mol
USER        vdW + Hbond + desolv Energy     =  -14.66 kcal/mol
USER        Electrostatic Energy            =   +0.00 kcal/mol
USER    (2) Final Total Internal Energy     =   -0.67 kcal/mol
USER    (3) Torsional Free Energy           =   +2.39 kcal/mol
USER    (4) Unbound System's Energy  [=(2)] =   -0.67 kcal/mol
USER    
USER    
USER  
USER    DPF = ligand_dock.biased.dpf
USER    NEWDPF move	ligand.pdbqt
USER    NEWDPF about	0.185000 0.077000 0.153000
USER    NEWDPF tran0	27.462516 -15.484187 0.258058
USER    NEWDPF axisangle0	0.515268 0.013222 -0.856927 -93.049966
USER    NEWDPF quaternion0	0.373917 0.009595 -0.621850 -0.688038
USER    NEWDPF dihe0	-125.97 -179.72 163.24 70.78 29.81 125.02 -139.64 69.72 
USER  
USER                              x       y       z    vdW   Elec        q     RMS 
ATOM      1  C   UNL     1      27.810 -15.027   0.220 -0.28 -0.00    +0.000    28.509
ATOM      2  O   UNL     1      26.589 -13.440   1.517 -0.38 -0.00    +0.000    28.509
ATOM      3  C   UNL     1      27.544 -14.264   1.483 -0.28 -0.00    +0.000    28.509
ATOM      4  N   UNL     1      28.372 -14.475   2.637 -0.30 -0.00    +0.000    28.509
ATOM      5  H   UNL     1      28.987 -15.244   2.629 -1.99 -0.00    +0.000    28.509
ATOM      6  C   UNL     1      28.361 -13.633   3.802 -0.36 -0.00    +0.000    28.509
ATOM      7  C   UNL     1      28.091 -12.262   3.658 -0.26 -0.00    +0.000    28.509
ATOM      8  C   UNL     1      28.049 -11.428   4.778 -0.32 +0.00    +0.000    28.509
ATOM      9  C   UNL     1      28.261 -11.956   6.054 -0.36 +0.00    +0.000    28.509
ATOM     10  C   UNL     1      28.507 -13.322   6.212 -0.36 -0.00    +0.000    28.509
ATOM     11  C   UNL     1      28.550 -14.161   5.093 -0.46 -0.00    +0.000    28.509
ATOM     12  C   UNL     1      26.492 -15.483  -0.415 -0.37 -0.00    +0.000    28.509
ATOM     13  C   UNL     1      26.355 -17.013  -0.479 -0.55 -0.00    +0.000    28.509
ATOM     14  C   UNL     1      25.184 -17.491  -1.364 -0.66 -0.00    +0.000    28.509
ATOM     15  C   UNL     1      23.817 -17.253  -0.697 -0.71 -0.00    +0.000    28.509
ATOM     16  C   UNL     1      23.082 -18.564  -0.390 -0.82 -0.00    +0.000    28.509
ATOM     17  C   UNL     1      21.675 -18.549  -0.911 -0.82 -0.00    +0.000    28.509
ATOM     18  N   UNL     1      21.143 -19.689  -1.592 -0.67 -0.00    +0.000    28.509
ATOM     19  O   UNL     1      19.870 -19.682  -2.048 -2.25 -0.00    +0.000    28.509
ATOM     20  O   UNL     1      20.950 -17.536  -0.721 -2.09 -0.00    +0.000    28.509
ATOM     21  H   UNL     1      21.707 -20.484  -1.729 -0.38 -0.00    +0.000    28.509
TER
ENDMDL
MODEL       19
USER    Run = 19
USER    Cluster Rank = 2
USER    Number of conformations in this cluster = 43
USER  
USER    RMSD from reference structure       = 29.234 A
USER  
USER    Estimated Free Energy of Binding    =  -11.17 kcal/mol  [=(1)+(2)+(3)-(4)]
USER    Estimated Inhibition Constant, Ki   =    6.54 nM (nanomolar)  [Temperature = 298.15 K]
USER    
USER    (1) Final Intermolecular Energy     =  -13.55 kcal/mol
USER        vdW + Hbond + desolv Energy     =  -13.55 kcal/mol
USER        Electrostatic Energy            =   +0.00 kcal/mol
USER    (2) Final Total Internal Energy     =   -0.84 kcal/mol
USER    (3) Torsional Free Energy           =   +2.39 kcal/mol
USER    (4) Unbound System's Energy  [=(2)] =   -0.84 kcal/mol
USER    
USER    
USER  
USER    DPF = ligand_dock.biased.dpf
USER    NEWDPF move	ligand.pdbqt
USER    NEWDPF about	0.185000 0.077000 0.153000
USER    NEWDPF tran0	25.495756 -16.116809 -2.573076
USER    NEWDPF axisangle0	-0.481109 0.612408 -0.627289 174.806566
USER    NEWDPF quaternion0	-0.480615 0.611779 -0.626644 0.045306
USER    NEWDPF dihe0	169.00 -55.85 131.42 27.75 158.89 -146.54 52.95 93.83 
USER  
USER                              x       y       z    vdW   Elec        q     RMS 
ATOM      1  C   UNL     1      25.253 -15.681  -2.861 -0.50 -0.00    +0.000    29.234
ATOM      2  O   UNL     1      25.563 -15.981  -5.207 -1.07 -0.00    +0.000    29.234
ATOM      3  C   UNL     1      26.062 -15.583  -4.119 -0.56 -0.00    +0.000    29.234
ATOM      4  N   UNL     1      27.391 -15.041  -4.076 -0.34 -0.00    +0.000    29.234
ATOM      5  H   UNL     1      27.677 -14.583  -3.253 +0.00 -0.00    +0.000    29.234
ATOM      6  C   UNL     1      28.331 -15.125  -5.161 -0.35 -0.00    +0.000    29.234
ATOM      7  C   UNL     1      28.389 -14.087  -6.105 -0.30 -0.00    +0.000    29.234
ATOM      8  C   UNL     1      29.311 -14.134  -7.154 -0.29 -0.00    +0.000    29.234
ATOM      9  C   UNL     1      30.195 -15.210  -7.262 -0.25 -0.00    +0.000    29.234
ATOM     10  C   UNL     1      30.164 -16.237  -6.315 -0.31 -0.00    +0.000    29.234
ATOM     11  C   UNL     1      29.241 -16.194  -5.264 -0.29 -0.00    +0.000    29.234
ATOM     12  C   UNL     1      26.174 -15.842  -1.646 -0.47 -0.00    +0.000    29.234
ATOM     13  C   UNL     1      26.427 -17.313  -1.275 -0.52 -0.00    +0.000    29.234
ATOM     14  C   UNL     1      25.273 -17.952  -0.474 -0.70 -0.00    +0.000    29.234
ATOM     15  C   UNL     1      23.925 -17.841  -1.208 -0.76 -0.00    +0.000    29.234
ATOM     16  C   UNL     1      22.730 -17.976  -0.255 -0.79 -0.00    +0.000    29.234
ATOM     17  C   UNL     1      21.468 -18.323  -0.989 -0.74 -0.00    +0.000    29.234
ATOM     18  N   UNL     1      21.296 -19.623  -1.558 -0.64 -0.00    +0.000    29.234
ATOM     19  O   UNL     1      20.152 -19.942  -2.207 -2.27 -0.00    +0.000    29.234
ATOM     20  O   UNL     1      20.544 -17.470  -1.080 -2.08 -0.00    +0.000    29.234
ATOM     21  H   UNL     1      22.014 -20.292  -1.476 -0.33 -0.00    +0.000    29.234
TER
ENDMDL
MODEL       28
USER    Run = 28
USER    Cluster Rank = 3
USER    Number of conformations in this cluster = 16
USER  
USER    RMSD from reference structure       = 27.557 A
USER  
USER    Estimated Free Energy of Binding    =  -10.81 kcal/mol  [=(1)+(2)+(3)-(4)]
USER    Estimated Inhibition Constant, Ki   =   12.00 nM (nanomolar)  [Temperature = 298.15 K]
USER    
USER    (1) Final Intermolecular Energy     =  -13.19 kcal/mol
USER        vdW + Hbond + desolv Energy     =  -13.19 kcal/mol
USER        Electrostatic Energy            =   +0.00 kcal/mol
USER    (2) Final Total Internal Energy     =   -0.79 kcal/mol
USER    (3) Torsional Free Energy           =   +2.39 kcal/mol
USER    (4) Unbound System's Energy  [=(2)] =   -0.79 kcal/mol
USER    
USER    
USER  
USER    DPF = ligand_dock.biased.dpf
USER    NEWDPF move	ligand.pdbqt
USER    NEWDPF about	0.185000 0.077000 0.153000
USER    NEWDPF tran0	26.153876 -16.230134 -3.383578
USER    NEWDPF axisangle0	0.689944 -0.550909 0.469549 144.623018
USER    NEWDPF quaternion0	0.657325 -0.524864 0.447350 0.303842
USER    NEWDPF dihe0	-150.22 174.75 174.11 57.92 8.35 -66.26 1.03 0.70 
USER  
USER                              x       y       z    vdW   Elec        q     RMS 
ATOM      1  C   UNL     1      25.647 -15.988  -3.509 -0.49 -0.00    +0.000    27.557
ATOM      2  O   UNL     1      26.670 -15.114  -5.479 -1.02 +0.00    +0.000    27.557
ATOM      3  C   UNL     1      26.000 -14.867  -4.439 -0.57 -0.00    +0.000    27.557
ATOM      4  N   UNL     1      25.576 -13.528  -4.141 -0.46 -0.00    +0.000    27.557
ATOM      5  H   UNL     1      24.913 -13.402  -3.424 -0.04 -0.00    +0.000    27.557
ATOM      6  C   UNL     1      26.060 -12.358  -4.823 -0.26 -0.00    +0.000    27.557
ATOM      7  C   UNL     1      27.410 -12.293  -5.204 -0.19 -0.00    +0.000    27.557
ATOM      8  C   UNL     1      27.899 -11.178  -5.890 -0.11 -0.00    +0.000    27.557
ATOM      9  C   UNL     1      27.042 -10.125  -6.217 -0.11 -0.00    +0.000    27.557
ATOM     10  C   UNL     1      25.691 -10.189  -5.864 -0.23 -0.00    +0.000    27.557
ATOM     11  C   UNL     1      25.198 -11.303  -5.176 -0.34 -0.00    +0.000    27.557
ATOM     12  C   UNL     1      26.608 -16.013  -2.315 -0.43 -0.00    +0.000    27.557
ATOM     13  C   UNL     1      26.214 -17.050  -1.249 -0.55 -0.00    +0.000    27.557
ATOM     14  C   UNL     1      24.946 -17.853  -1.611 -0.61 -0.00    +0.000    27.557
ATOM     15  C   UNL     1      23.676 -17.241  -0.992 -0.71 -0.00    +0.000    27.557
ATOM     16  C   UNL     1      22.848 -18.276  -0.218 -0.81 -0.00    +0.000    27.557
ATOM     17  C   UNL     1      21.480 -18.449  -0.809 -0.82 -0.00    +0.000    27.557
ATOM     18  N   UNL     1      21.120 -19.673  -1.455 -0.72 -0.00    +0.000    27.557
ATOM     19  O   UNL     1      19.882 -19.836  -1.975 -2.30 -0.00    +0.000    27.557
ATOM     20  O   UNL     1      20.634 -17.520  -0.709 -2.11 +0.00    +0.000    27.557
ATOM     21  H   UNL     1      21.778 -20.402  -1.523 -0.33 -0.00    +0.000    27.557
TER
ENDMDL
MODEL       52
USER    Run = 52
USER    Cluster Rank = 4
USER    Number of conformations in this cluster = 4
USER  
USER    RMSD from reference structure       = 27.580 A
USER  
USER    Estimated Free Energy of Binding    =   -9.69 kcal/mol  [=(1)+(2)+(3)-(4)]
USER    Estimated Inhibition Constant, Ki   =   78.37 nM (nanomolar)  [Temperature = 298.15 K]
USER    
USER    (1) Final Intermolecular Energy     =  -12.08 kcal/mol
USER        vdW + Hbond + desolv Energy     =  -12.08 kcal/mol
USER        Electrostatic Energy            =   +0.00 kcal/mol
USER    (2) Final Total Internal Energy     =   -0.88 kcal/mol
USER    (3) Torsional Free Energy           =   +2.39 kcal/mol
USER    (4) Unbound System's Energy  [=(2)] =   -0.88 kcal/mol
USER    
USER    
USER  
USER    DPF = ligand_dock.biased.dpf
USER    NEWDPF move	ligand.pdbqt
USER    NEWDPF about	0.185000 0.077000 0.153000
USER    NEWDPF tran0	28.011387 -16.004832 -1.059424
USER    NEWDPF axisangle0	-0.613901 0.092090 -0.783993 -43.014817
USER    NEWDPF quaternion0	-0.225069 0.033762 -0.287429 -0.930370
USER    NEWDPF dihe0	164.80 152.07 68.26 -4.10 -70.14 -168.25 148.47 -81.42 
USER  
USER                              x       y       z    vdW   Elec        q     RMS 
ATOM      1  C   UNL     1      27.821 -15.826  -1.572 -0.30 -0.00    +0.000    27.580
ATOM      2  O   UNL     1      26.159 -14.187  -2.067 -0.34 -0.00    +0.000    27.580
ATOM      3  C   UNL     1      27.039 -14.587  -1.256 -0.29 -0.00    +0.000    27.580
ATOM      4  N   UNL     1      27.295 -13.868  -0.040 -0.23 -0.00    +0.000    27.580
ATOM      5  H   UNL     1      27.856 -14.301   0.643 -0.02 -0.00    +0.000    27.580
ATOM      6  C   UNL     1      26.785 -12.554   0.243 -0.22 -0.00    +0.000    27.580
ATOM      7  C   UNL     1      27.132 -11.485  -0.599 -0.11 -0.00    +0.000    27.580
ATOM      8  C   UNL     1      26.629 -10.203  -0.361 -0.16 +0.00    +0.000    27.580
ATOM      9  C   UNL     1      25.762  -9.979   0.711 -0.34 +0.00    +0.000    27.580
ATOM     10  C   UNL     1      25.390 -11.039   1.542 -0.36 +0.00    +0.000    27.580
ATOM     11  C   UNL     1      25.893 -12.324   1.307 -0.32 +0.00    +0.000    27.580
ATOM     12  C   UNL     1      27.475 -16.942  -0.580 -0.44 -0.00    +0.000    27.580
ATOM     13  C   UNL     1      26.332 -17.847  -1.069 -0.53 -0.00    +0.000    27.580
ATOM     14  C   UNL     1      24.971 -17.528  -0.414 -0.65 -0.00    +0.000    27.580
ATOM     15  C   UNL     1      23.888 -18.552  -0.800 -0.80 -0.00    +0.000    27.580
ATOM     16  C   UNL     1      22.613 -18.395   0.040 -0.77 -0.00    +0.000    27.580
ATOM     17  C   UNL     1      21.376 -18.477  -0.805 -0.82 -0.00    +0.000    27.580
ATOM     18  N   UNL     1      21.020 -19.702  -1.451 -0.75 -0.00    +0.000    27.580
ATOM     19  O   UNL     1      19.897 -19.780  -2.201 -2.31 -0.00    +0.000    27.580
ATOM     20  O   UNL     1      20.632 -17.466  -0.922 -2.08 -0.00    +0.000    27.580
ATOM     21  H   UNL     1      21.596 -20.494  -1.349 -0.25 -0.00    +0.000    27.580
TER
ENDMDL
MODEL       32
USER    Run = 32
USER    Cluster Rank = 5
USER    Number of conformations in this cluster = 2
USER  
USER    RMSD from reference structure       = 30.731 A
USER  
USER    Estimated Free Energy of Binding    =   -9.60 kcal/mol  [=(1)+(2)+(3)-(4)]
USER    Estimated Inhibition Constant, Ki   =   92.50 nM (nanomolar)  [Temperature = 298.15 K]
USER    
USER    (1) Final Intermolecular Energy     =  -11.98 kcal/mol
USER        vdW + Hbond + desolv Energy     =  -11.98 kcal/mol
USER        Electrostatic Energy            =   +0.00 kcal/mol
USER    (2) Final Total Internal Energy     =   -0.71 kcal/mol
USER    (3) Torsional Free Energy           =   +2.39 kcal/mol
USER    (4) Unbound System's Energy  [=(2)] =   -0.71 kcal/mol
USER    
USER    
USER  
USER    DPF = ligand_dock.biased.dpf
USER    NEWDPF move	ligand.pdbqt
USER    NEWDPF about	0.185000 0.077000 0.153000
USER    NEWDPF tran0	27.699503 -16.193614 -1.117113
USER    NEWDPF axisangle0	0.057218 0.986462 -0.153687 -146.107917
USER    NEWDPF quaternion0	0.054733 0.943629 -0.147013 -0.291471
USER    NEWDPF dihe0	-164.95 -3.84 79.62 -101.35 -141.51 -11.50 -14.87 -28.29 
USER  
USER                              x       y       z    vdW   Elec        q     RMS 
ATOM      1  C   UNL     1      27.761 -15.823  -0.681 -0.33 -0.00    +0.000    30.731
ATOM      2  O   UNL     1      29.978 -15.667  -1.549 -0.12 -0.00    +0.000    30.731
ATOM      3  C   UNL     1      29.246 -15.694  -0.522 -0.20 -0.00    +0.000    30.731
ATOM      4  N   UNL     1      29.821 -15.603   0.791 -0.07 -0.00    +0.000    30.731
ATOM      5  H   UNL     1      29.215 -15.451   1.551 -1.23 -0.00    +0.000    30.731
ATOM      6  C   UNL     1      31.227 -15.722   1.065 -0.11 -0.00    +0.000    30.731
ATOM      7  C   UNL     1      31.801 -14.934   2.076 -0.12 -0.00    +0.000    30.731
ATOM      8  C   UNL     1      33.161 -15.049   2.378 -0.09 -0.00    +0.000    30.731
ATOM      9  C   UNL     1      33.957 -15.964   1.685 -0.05 -0.00    +0.000    30.731
ATOM     10  C   UNL     1      33.393 -16.771   0.693 -0.04 -0.00    +0.000    30.731
ATOM     11  C   UNL     1      32.032 -16.657   0.387 -0.10 -0.00    +0.000    30.731
ATOM     12  C   UNL     1      27.369 -17.295  -0.849 -0.47 -0.00    +0.000    30.731
ATOM     13  C   UNL     1      26.018 -17.634  -0.196 -0.60 -0.00    +0.000    30.731
ATOM     14  C   UNL     1      24.856 -16.746  -0.689 -0.56 -0.00    +0.000    30.731
ATOM     15  C   UNL     1      23.791 -17.554  -1.451 -0.71 -0.00    +0.000    30.731
ATOM     16  C   UNL     1      22.956 -18.442  -0.518 -0.83 -0.00    +0.000    30.731
ATOM     17  C   UNL     1      21.544 -18.588  -1.004 -0.81 -0.00    +0.000    30.731
ATOM     18  N   UNL     1      21.156 -19.733  -1.768 -0.60 -0.00    +0.000    30.731
ATOM     19  O   UNL     1      19.880 -19.873  -2.193 -2.26 -0.00    +0.000    30.731
ATOM     20  O   UNL     1      20.689 -17.709  -0.712 -2.22 +0.00    +0.000    30.731
ATOM     21  H   UNL     1      21.823 -20.424  -1.985 -0.46 -0.00    +0.000    30.731
TER
ENDMDL
MODEL       61
USER    Run = 61
USER    Cluster Rank = 6
USER    Number of conformations in this cluster = 1
USER  
USER    RMSD from reference structure       = 28.661 A
USER  
USER    Estimated Free Energy of Binding    =   -8.86 kcal/mol  [=(1)+(2)+(3)-(4)]
USER    Estimated Inhibition Constant, Ki   =  322.23 nM (nanomolar)  [Temperature = 298.15 K]
USER    
USER    (1) Final Intermolecular Energy     =  -11.24 kcal/mol
USER        vdW + Hbond + desolv Energy     =  -11.24 kcal/mol
USER        Electrostatic Energy            =   +0.00 kcal/mol
USER    (2) Final Total Internal Energy     =   -0.99 kcal/mol
USER    (3) Torsional Free Energy           =   +2.39 kcal/mol
USER    (4) Unbound System's Energy  [=(2)] =   -0.99 kcal/mol
USER    
USER    
USER  
USER    DPF = ligand_dock.biased.dpf
USER    NEWDPF move	ligand.pdbqt
USER    NEWDPF about	0.185000 0.077000 0.153000
USER    NEWDPF tran0	27.629528 -17.508471 -0.350703
USER    NEWDPF axisangle0	-0.267782 -0.670650 -0.691753 -89.822297
USER    NEWDPF quaternion0	-0.189056 -0.473485 -0.488384 -0.708202
USER    NEWDPF dihe0	21.77 160.89 156.32 26.69 -177.22 68.93 -1.89 154.19 
USER  
USER                              x       y       z    vdW   Elec        q     RMS 
ATOM      1  C   UNL     1      28.038 -17.554  -0.754 -0.35 -0.00    +0.000    28.661
ATOM      2  O   UNL     1      27.982 -15.171  -0.865 -0.23 -0.00    +0.000    28.661
ATOM      3  C   UNL     1      27.952 -16.258  -1.503 -0.33 -0.00    +0.000    28.661
ATOM      4  N   UNL     1      27.837 -16.265  -2.935 -0.28 -0.00    +0.000    28.661
ATOM      5  H   UNL     1      27.994 -17.114  -3.407 +0.01 -0.00    +0.000    28.661
ATOM      6  C   UNL     1      27.506 -15.108  -3.722 -0.31 -0.00    +0.000    28.661
ATOM      7  C   UNL     1      26.372 -14.350  -3.388 -0.37 -0.00    +0.000    28.661
ATOM      8  C   UNL     1      26.043 -13.207  -4.122 -0.35 -0.00    +0.000    28.661
ATOM      9  C   UNL     1      26.851 -12.801  -5.186 -0.20 -0.00    +0.000    28.661
ATOM     10  C   UNL     1      27.995 -13.534  -5.513 -0.25 -0.00    +0.000    28.661
ATOM     11  C   UNL     1      28.327 -14.679  -4.781 -0.28 -0.00    +0.000    28.661
ATOM     12  C   UNL     1      26.636 -18.126  -0.516 -0.57 -0.00    +0.000    28.661
ATOM     13  C   UNL     1      25.567 -17.035  -0.335 -0.51 -0.00    +0.000    28.661
ATOM     14  C   UNL     1      24.265 -17.313  -1.117 -0.71 -0.00    +0.000    28.661
ATOM     15  C   UNL     1      23.360 -18.326  -0.395 -0.81 -0.00    +0.000    28.661
ATOM     16  C   UNL     1      22.346 -18.981  -1.343 -0.75 -0.00    +0.000    28.661
ATOM     17  C   UNL     1      20.978 -19.055  -0.731 -0.89 -0.00    +0.000    28.661
ATOM     18  N   UNL     1      20.683 -20.036   0.267 -0.68 -0.00    +0.000    28.661
ATOM     19  O   UNL     1      19.454 -20.093   0.829 -0.80 -0.00    +0.000    28.661
ATOM     20  O   UNL     1      20.093 -18.228  -1.080 -1.97 -0.00    +0.000    28.661
ATOM     21  H   UNL     1      21.379 -20.673   0.546 -0.60 -0.00    +0.000    28.661
TER
ENDMDL
MODEL        1
USER    Run = 1
USER    Cluster Rank = 7
USER    Number of conformations in this cluster = 1
USER  
USER    RMSD from reference structure       = 27.464 A
USER  
USER    Estimated Free Energy of Binding    =   -8.48 kcal/mol  [=(1)+(2)+(3)-(4)]
USER    Estimated Inhibition Constant, Ki   =  610.47 nM (nanomolar)  [Temperature = 298.15 K]
USER    
USER    (1) Final Intermolecular Energy     =  -10.86 kcal/mol
USER        vdW + Hbond + desolv Energy     =  -10.86 kcal/mol
USER        Electrostatic Energy            =   +0.00 kcal/mol
USER    (2) Final Total Internal Energy     =   -0.80 kcal/mol
USER    (3) Torsional Free Energy           =   +2.39 kcal/mol
USER    (4) Unbound System's Energy  [=(2)] =   -0.80 kcal/mol
USER    
USER    
USER  
USER    DPF = ligand_dock.biased.dpf
USER    NEWDPF move	ligand.pdbqt
USER    NEWDPF about	0.185000 0.077000 0.153000
USER    NEWDPF tran0	24.924384 -17.216916 -1.422956
USER    NEWDPF axisangle0	0.292468 0.198323 -0.935484 64.615791
USER    NEWDPF quaternion0	0.156315 0.105998 -0.499987 0.845188
USER    NEWDPF dihe0	157.37 171.22 -176.71 43.74 46.08 59.39 160.65 5.19 
USER  
USER                              x       y       z    vdW   Elec        q     RMS 
ATOM      1  C   UNL     1      24.719 -17.424  -1.919 -0.64 -0.00    +0.000    27.464
ATOM      2  O   UNL     1      23.347 -19.361  -2.160 -0.73 -0.00    +0.000    27.464
ATOM      3  C   UNL     1      23.586 -18.313  -1.501 -0.75 -0.00    +0.000    27.464
ATOM      4  N   UNL     1      22.787 -17.965  -0.359 -0.75 -0.00    +0.000    27.464
ATOM      5  H   UNL     1      23.110 -17.244   0.228 -0.04 -0.00    +0.000    27.464
ATOM      6  C   UNL     1      21.545 -18.605  -0.021 -0.66 -0.00    +0.000    27.464
ATOM      7  C   UNL     1      20.631 -18.916  -1.042 -0.77 -0.00    +0.000    27.464
ATOM      8  C   UNL     1      19.427 -19.560  -0.742 -0.62 -0.00    +0.000    27.464
ATOM      9  C   UNL     1      19.131 -19.913   0.576 -0.70 -0.00    +0.000    27.464
ATOM     10  C   UNL     1      20.043 -19.630   1.597 -0.48 -0.00    +0.000    27.464
ATOM     11  C   UNL     1      21.248 -18.985   1.301 +0.41 -0.00    +0.000    27.464
ATOM     12  C   UNL     1      25.943 -17.666  -1.029 -0.60 -0.00    +0.000    27.464
ATOM     13  C   UNL     1      27.155 -16.807  -1.429 -0.44 -0.00    +0.000    27.464
ATOM     14  C   UNL     1      27.734 -15.979  -0.262 -0.34 -0.00    +0.000    27.464
ATOM     15  C   UNL     1      26.680 -15.054   0.372 -0.07 -0.00    +0.000    27.464
ATOM     16  C   UNL     1      27.270 -13.701   0.792 -0.29 -0.00    +0.000    27.464
ATOM     17  C   UNL     1      27.357 -13.570   2.285 -0.34 -0.00    +0.000    27.464
ATOM     18  N   UNL     1      28.128 -14.500   3.048 -0.37 -0.00    +0.000    27.464
ATOM     19  O   UNL     1      28.220 -14.374   4.392 -0.58 -0.00    +0.000    27.464
ATOM     20  O   UNL     1      26.769 -12.616   2.863 -0.38 +0.00    +0.000    27.464
ATOM     21  H   UNL     1      28.596 -15.237   2.594 -1.74 -0.00    +0.000    27.464
TER
ENDMDL


AVSFLD: # AVS field file
AVSFLD: #
AVSFLD: # Created by AutoDock
AVSFLD: #
AVSFLD: ndim=2           # number of dimensions in the field
AVSFLD: nspace=1         # number of physical coordinates
AVSFLD: veclen=7         # vector size
AVSFLD: dim1=21          # atoms
AVSFLD: dim2=7           # conformations
AVSFLD: data=Real       # data type (byte,integer,Real,double)
AVSFLD: field=uniform    # field coordinate layout
AVSFLD: label= x y z vdW Elec q RMS
AVSFLD: variable 1 file = ligand_dock.biased.dlg.pdb filetype = ascii offset = 5 stride = 12
AVSFLD: variable 2 file = ligand_dock.biased.dlg.pdb filetype = ascii offset = 6 stride = 12
AVSFLD: variable 3 file = ligand_dock.biased.dlg.pdb filetype = ascii offset = 7 stride = 12
AVSFLD: variable 4 file = ligand_dock.biased.dlg.pdb filetype = ascii offset = 8 stride = 12
AVSFLD: variable 5 file = ligand_dock.biased.dlg.pdb filetype = ascii offset = 9 stride = 12
AVSFLD: variable 6 file = ligand_dock.biased.dlg.pdb filetype = ascii offset = 10 stride = 12
AVSFLD: variable 7 file = ligand_dock.biased.dlg.pdb filetype = ascii offset = 11 stride = 12
AVSFLD: # end of file

>>> Closing the docking parameter file (DPF)...
This docking finished at:			11:16 00" a.m., 11/08/2024


________________________________________________________________________________

autodock4: Successful Completion on "ThinkStation-P620"

Real= 10m 41.33s,  CPU= 10m 41.08s,  System= 0.21s
________________________________________________________________________________

