          AutoDock 4.2 Release 4.2.6   
         (C) 1989-2012 The Scripps Research Institute
        AutoDock comes with ABSOLUTELY NO WARRANTY.
        AutoDock is free software, and you are welcome
        to redistribute it under certain conditions;
        for details type 'autodock4 -C'

                     main.cc  $Revision: 1.213 $

                   Compiled on Feb 20 2022 at 09:48:33


This file was created at:			5:31 15" p.m., 11/03/2024
                   on host:		"ThinkStation-P620"
Current Working Directory = "/home/antonio/Documenti/buccheri/IDROSSAMICO HDAC/HDAC 4/P/Ligand_3"

      ________________________________________________________________

                   SETTING UP DEFAULT PARAMETER LIBRARY
      ________________________________________________________________


Random number generator was seeded with values 26991, 1730651475.
Docking parameter file (DPF) used for this docking:		ligand_dock.biased.dpf
DPF> autodock_parameter_version 4.2       # used by autodock to validate parameter set

	Autodock parameter version 4.2.
DPF> outlev 1                             # diagnostic output level

Output Level = 1  ADT-COMPATIBLE OUTPUT DURING DOCKING.
DPF> intelec                              # calculate internal electrostatics

Electrostatic energies will be calculated for all non-bonds between moving atoms.
DPF> seed pid time                        # seeds for random generator

Random number generator was seeded with values 26991, 1730651475.
DPF> ligand_types A C OA HD N             # atoms types in ligand

DPF> fld receptor.maps.fld                # grid_data_file

Opening Grid Map Dimensions file:		receptor.maps.fld
Grid Point Spacing =				0.375 Angstroms

Even Number of User-specified Grid Points =	70 x-points
						70 y-points
						70 z-points

Coordinates of Central Grid Point of Maps =	(19.141, -8.645, -3.505)
Macromolecule file used to create Grid Maps =	receptor.pdbqt
Grid Parameter file used to create Grid Maps =	receptor.gpf
Minimum coordinates in grid = (6.016, -21.770, -16.630)
Maximum coordinates in grid = (32.266, 4.480, 9.620)

DPF> map receptor.A.map                   # atom-specific affinity map

DPF> map receptor.C.map                   # atom-specific affinity map

DPF> map receptor.OA.biased.map

DPF> map receptor.HD.map                  # atom-specific affinity map

DPF> map receptor.N.map                   # atom-specific affinity map

DPF> elecmap receptor.e.map               # electrostatics map

DPF> desolvmap receptor.d.map             # desolvation map

DPF> move ligand.pdbqt                    # small molecule

1,4-interactions will be _ignored_ in the non-bonded internal energy calculation.

Ligand PDBQT file = "ligand.pdbqt"

INPUT LIGAND PDBQT FILE:
________________________

INPUT-LIGAND-PDBQT: REMARK  Name = 
INPUT-LIGAND-PDBQT: REMARK  12 active torsions:
INPUT-LIGAND-PDBQT: REMARK  status: ('A' for Active; 'I' for Inactive)
INPUT-LIGAND-PDBQT: REMARK    1  A    between atoms: C_2  and  O_3
INPUT-LIGAND-PDBQT: REMARK    2  A    between atoms: O_3  and  C_4
INPUT-LIGAND-PDBQT: REMARK    3  A    between atoms: C_4  and  C_5
INPUT-LIGAND-PDBQT: REMARK    4  A    between atoms: C_10  and  C_11
INPUT-LIGAND-PDBQT: REMARK    5  A    between atoms: C_11  and  N_12
INPUT-LIGAND-PDBQT: REMARK    6  A    between atoms: N_12  and  C_13
INPUT-LIGAND-PDBQT: REMARK    7  A    between atoms: N_12  and  C_15
INPUT-LIGAND-PDBQT: REMARK    8  A    between atoms: C_13  and  C_14
INPUT-LIGAND-PDBQT: REMARK    9  A    between atoms: C_15  and  C_16
INPUT-LIGAND-PDBQT: REMARK   10  A    between atoms: N_21  and  C_22
INPUT-LIGAND-PDBQT: REMARK   11  A    between atoms: C_25  and  C_26
INPUT-LIGAND-PDBQT: REMARK   12  A    between atoms: N_27  and  O_28
INPUT-LIGAND-PDBQT: REMARK                            x       y       z     vdW  Elec       q    Type
INPUT-LIGAND-PDBQT: REMARK                         _______ _______ _______ _____ _____    ______ ____
INPUT-LIGAND-PDBQT: ROOT
INPUT-LIGAND-PDBQT: ATOM      1  C   UNL     1       1.701  -0.440   1.479  0.00  0.00    +0.000 C 
INPUT-LIGAND-PDBQT: ENDROOT
INPUT-LIGAND-PDBQT: BRANCH   1   2
INPUT-LIGAND-PDBQT: ATOM      2  C   UNL     1       0.298  -0.547   0.957  0.00  0.00    +0.000 A 
INPUT-LIGAND-PDBQT: ATOM      3  C   UNL     1      -0.175  -1.766   0.448  0.00  0.00    +0.000 A 
INPUT-LIGAND-PDBQT: ATOM      4  C   UNL     1      -1.468  -1.863  -0.072  0.00  0.00    +0.000 A 
INPUT-LIGAND-PDBQT: ATOM      5  C   UNL     1      -2.302  -0.736  -0.103  0.00  0.00    +0.000 A 
INPUT-LIGAND-PDBQT: ATOM      6  C   UNL     1      -3.602  -0.824  -0.625  0.00  0.00    +0.000 A 
INPUT-LIGAND-PDBQT: ATOM      7  C   UNL     1      -4.431   0.309  -0.658  0.00  0.00    +0.000 A 
INPUT-LIGAND-PDBQT: ATOM      8  C   UNL     1      -3.953   1.532  -0.162  0.00  0.00    +0.000 A 
INPUT-LIGAND-PDBQT: ATOM      9  C   UNL     1      -2.660   1.628   0.358  0.00  0.00    +0.000 A 
INPUT-LIGAND-PDBQT: ATOM     10  C   UNL     1      -1.827   0.501   0.393  0.00  0.00    +0.000 A 
INPUT-LIGAND-PDBQT: ATOM     11  C   UNL     1      -0.527   0.588   0.914  0.00  0.00    +0.000 A 
INPUT-LIGAND-PDBQT: BRANCH   7  12
INPUT-LIGAND-PDBQT: ATOM     12  C   UNL     1      -5.834   0.219  -1.199  0.00  0.00    +0.000 C 
INPUT-LIGAND-PDBQT: BRANCH  12  13
INPUT-LIGAND-PDBQT: ATOM     13  N   UNL     1      -6.813   0.394  -0.105  0.00  0.00    +0.000 N 
INPUT-LIGAND-PDBQT: ATOM     14  H   UNL     1      -6.430   1.067   0.558  0.00  0.00    +0.000 HD
INPUT-LIGAND-PDBQT: BRANCH  13  15
INPUT-LIGAND-PDBQT: ATOM     15  C   UNL     1      -6.999  -0.861   0.661  0.00  0.00    +0.000 C 
INPUT-LIGAND-PDBQT: ATOM     16  C   UNL     1      -7.732  -0.621   1.980  0.00  0.00    +0.000 C 
INPUT-LIGAND-PDBQT: ENDBRANCH  13  15
INPUT-LIGAND-PDBQT: BRANCH  13  17
INPUT-LIGAND-PDBQT: ATOM     17  C   UNL     1      -8.078   1.008  -0.581  0.00  0.00    +0.000 C 
INPUT-LIGAND-PDBQT: ATOM     18  C   UNL     1      -8.890   0.121  -1.536  0.00  0.00    +0.000 C 
INPUT-LIGAND-PDBQT: ENDBRANCH  13  17
INPUT-LIGAND-PDBQT: ENDBRANCH  12  13
INPUT-LIGAND-PDBQT: ENDBRANCH   7  12
INPUT-LIGAND-PDBQT: ENDBRANCH   1   2
INPUT-LIGAND-PDBQT: BRANCH   1  19
INPUT-LIGAND-PDBQT: ATOM     19  O   UNL     1       2.569  -0.060   0.416  0.00  0.00    +0.000 OA
INPUT-LIGAND-PDBQT: BRANCH  19  21
INPUT-LIGAND-PDBQT: ATOM     20  O   UNL     1       4.464  -0.029   1.732  0.00  0.00    +0.000 OA
INPUT-LIGAND-PDBQT: ATOM     21  C   UNL     1       3.943   0.122   0.592  0.00  0.00    +0.000 C 
INPUT-LIGAND-PDBQT: ATOM     22  N   UNL     1       4.742   0.524  -0.528  0.00  0.00    +0.000 N 
INPUT-LIGAND-PDBQT: ATOM     23  H   UNL     1       4.276   0.783  -1.356  0.00  0.00    +0.000 HD
INPUT-LIGAND-PDBQT: BRANCH  22  24
INPUT-LIGAND-PDBQT: ATOM     24  C   UNL     1       6.179   0.574  -0.524  0.00  0.00    +0.000 A 
INPUT-LIGAND-PDBQT: ATOM     25  C   UNL     1       6.835   1.545  -1.293  0.00  0.00    +0.000 A 
INPUT-LIGAND-PDBQT: ATOM     26  C   UNL     1       8.231   1.602  -1.324  0.00  0.00    +0.000 A 
INPUT-LIGAND-PDBQT: ATOM     27  C   UNL     1       9.001   0.682  -0.592  0.00  0.00    +0.000 A 
INPUT-LIGAND-PDBQT: ATOM     28  C   UNL     1       8.342  -0.314   0.151  0.00  0.00    +0.000 A 
INPUT-LIGAND-PDBQT: ATOM     29  C   UNL     1       6.945  -0.370   0.182  0.00  0.00    +0.000 A 
INPUT-LIGAND-PDBQT: BRANCH  27  30
INPUT-LIGAND-PDBQT: ATOM     30  C   UNL     1      10.482   0.752  -0.638  0.00  0.00    +0.000 C 
INPUT-LIGAND-PDBQT: ATOM     31  N   UNL     1      11.289   0.196   0.407  0.00  0.00    +0.000 N 
INPUT-LIGAND-PDBQT: ATOM     32  O   UNL     1      11.047   1.325  -1.609  0.00  0.00    +0.000 OA
INPUT-LIGAND-PDBQT: ATOM     33  H   UNL     1      10.861  -0.178   1.211  0.00  0.00    +0.000 HD
INPUT-LIGAND-PDBQT: BRANCH  31  34
INPUT-LIGAND-PDBQT: ATOM     34  O   UNL     1      12.639   0.182   0.294  0.00  0.00    +0.000 OA
INPUT-LIGAND-PDBQT: ATOM     35  H   UNL     1      12.897   0.584  -0.550  0.00  0.00    +0.000 HD
INPUT-LIGAND-PDBQT: ENDBRANCH  31  34
INPUT-LIGAND-PDBQT: ENDBRANCH  27  30
INPUT-LIGAND-PDBQT: ENDBRANCH  22  24
INPUT-LIGAND-PDBQT: ENDBRANCH  19  21
INPUT-LIGAND-PDBQT: ENDBRANCH   1  19
INPUT-LIGAND-PDBQT: TORSDOF 10
________________________________________________________________________________

Total charge on ligand                               =	+0.000 e
REMARK  Name = 
REMARK  12 active torsions:
REMARK  status: ('A' for Active; 'I' for Inactive)
REMARK    1  A    between atoms: C_2  and  O_3
REMARK    2  A    between atoms: O_3  and  C_4
REMARK    3  A    between atoms: C_4  and  C_5
REMARK    4  A    between atoms: C_10  and  C_11
REMARK    5  A    between atoms: C_11  and  N_12
REMARK    6  A    between atoms: N_12  and  C_13
REMARK    7  A    between atoms: N_12  and  C_15
REMARK    8  A    between atoms: C_13  and  C_14
REMARK    9  A    between atoms: C_15  and  C_16
REMARK   10  A    between atoms: N_21  and  C_22
REMARK   11  A    between atoms: C_25  and  C_26
REMARK   12  A    between atoms: N_27  and  O_28
REMARK                            x       y       z     vdW  Elec       q    Type
REMARK                         _______ _______ _______ _____ _____    ______ ____


Number of Rotatable Bonds in Small Molecule =	10 torsions
Number of atoms in ligand:  35

Number of non-hydrogen atoms in ligand:  31

Number of vibrational degrees of freedom of ligand:  99


Number of torsional degrees of freedom = 10
Estimated loss of torsional free energy upon binding = +2.9830 kcal/mol


DPF> about 1.858 0.218 -0.021            # small molecule center

Small molecule center of rotation =	(+1.858, +0.218, -0.021)

DPF> tran0 random                         # initial coordinates/A or random

Initial translation =			(30.228, -14.390, 5.685) Angstroms
DPF> quaternion0 random                   # initial orientation

Each run will begin with a new, random initial orientation.
Initial quaternion,  (x,y,z,w) =	( -0.813, 0.132, 0.550, 0.137 ),
DPF> dihe0 random                         # initial dihedrals (relative) or random

DPF> torsdof 10                            # torsional degrees of freedom

Number of torsional degrees of freedom = 10
Free energy coefficient for torsional degrees of freedom = 0.2983, the factory default value.

Estimated loss of torsional free energy upon binding = +2.9830 kcal/mol

DPF> rmstol 2.0                           # cluster_tolerance/A

Maximum RMS tolerance for conformational cluster analysis = 2.00 Angstroms
DPF> extnrg 1000.0                        # external grid energy

External grid energy (beyond grid map walls) = 1000.00

DPF> e0max 0.0 10000                      # max initial energy; max number of retries

Using user-specified maximum number of retries for simanneal initialization, 10000 retries.
If the simanneal initial energy is greater than e0max, 0.000,
then a new, random initial state will be created.

DPF> ga_pop_size 150                      # number of individuals in population

A population of 150 individuals will be used
DPF> ga_num_evals 2500000                 # maximum number of energy evaluations

There will be at most 2500000 function evaluations used.
DPF> ga_num_generations 27000             # maximum number of generations

The GA will run for at most 27000 generations.
DPF> ga_elitism 1                         # number of top individuals to survive to next generation

The 1 best will be preserved each GA generation.
DPF> ga_mutation_rate 0.02                # rate of gene mutation

The mutation rate is 0.020000.
DPF> ga_crossover_rate 0.8                # rate of crossover

The crossover rate is 0.800000.
DPF> ga_window_size 10                    # 

The GA's selection window is 10 generations.
DPF> ga_cauchy_alpha 0.0                  # Alpha parameter of Cauchy distribution

The alpha parameter (for the Cauchy distribution) is being set to 0.000000.
DPF> ga_cauchy_beta 1.0                   # Beta parameter Cauchy distribution

The beta parameter (for the Cauchy distribution) is being set to 1.000000.
DPF> set_ga                               # set the above parameters for GA or LGA

DPF> sw_max_its 300                       # iterations of Solis & Wets local search

Solis & Wets algorithms will perform at most 300 iterations.
DPF> sw_max_succ 4                        # consecutive successes before changing rho

Solis & Wets algorithms expand rho every 4 in a row successes.
DPF> sw_max_fail 4                        # consecutive failures before changing rho

Solis & Wets algorithms contract rho every 4 in a row failures.
DPF> sw_rho 1.0                           # size of local search space to sample

rho is set to 1.000000.
DPF> sw_lb_rho 0.01                       # lower bound on rho

rho will never get smaller than 0.010000.
DPF> ls_search_freq 0.06                  # probability of performing local search on individual

Local search will be performed with frequency 0.060000.
DPF> set_psw1                             # set the above pseudo-Solis & Wets parameters

Creating a new Local Search object using the pseudo-Solis-Wets algorithm (pSW1) with the current settings.

DPF> unbound_model bound                  # state of unbound ligand

DPF> ga_run 100

centering ligand on specified point: 1.858 0.218 -0.021
Furthest true ligand atom from "about" center is 11.058 Angstroms (maxrad).
Number of requested GA dockings = 100 runs
Unbound model to be used is 'same as bound' [AutoDock 4.2 default].

	BEGINNING GENETIC ALGORITHM DOCKING 1 of 100
Run: 1 Seed: 1812866300 120191621 [ Run 1 of 100 GA/GALS ]
Beginning LAMARCKIAN GENETIC ALGORITHM (LGA), with a maximum of 2500000 energy evaluations.

Final-Value: -15.395


	FINAL GENETIC ALGORITHM DOCKED STATE
	_______________________________________________


Detailed state:  trans 20.280 -10.129 1.394 quatxyzw -0.404373 -0.194770 0.012790 0.893523 center 1.858 0.218 -0.021 ntor 10 -173.5348 -173.6723 12.9577 -106.4597 175.0217 -20.7453 -34.2622 -117.9332 180.0000 98.3744
State:	 20.280 -10.129   1.394  -0.901 -0.434  0.028 53.361   -173.53 -173.67   12.96 -106.46  175.02  -20.75  -34.26 -117.93  180.00   98.37

DOCKED: MODEL        1
DOCKED: USER    Run = 1
DOCKED: USER    DPF = ligand_dock.biased.dpf
DOCKED: USER  
DOCKED: USER    Estimated Free Energy of Binding    =  -10.08 kcal/mol  [=(1)+(2)+(3)-(4)]
DOCKED: USER    Estimated Inhibition Constant, Ki   =   40.61 nM (nanomolar)  [Temperature = 298.15 K]
DOCKED: USER    
DOCKED: USER    (1) Final Intermolecular Energy     =  -13.07 kcal/mol
DOCKED: USER        vdW + Hbond + desolv Energy     =  -13.07 kcal/mol
DOCKED: USER        Electrostatic Energy            =   +0.00 kcal/mol
DOCKED: USER    (2) Final Total Internal Energy     =   -2.33 kcal/mol
DOCKED: USER    (3) Torsional Free Energy           =   +2.98 kcal/mol
DOCKED: USER    (4) Unbound System's Energy  [=(2)] =   -2.33 kcal/mol
DOCKED: USER    
DOCKED: USER    
DOCKED: USER    NEWDPF move ligand.pdbqt
DOCKED: USER    NEWDPF about 1.858000 0.218000 -0.021000
DOCKED: USER    NEWDPF tran0 20.280416 -10.129233 1.393675
DOCKED: USER    NEWDPF quaternion0 -0.404373 -0.194770 0.012790 0.893523
DOCKED: USER    NEWDPF axisangle0 -0.900573 -0.433771 0.028483 53.361267
DOCKED: USER    NEWDPF quat0 -0.900573 -0.433771 0.028483 53.361267
DOCKED: USER    NEWDPF dihe0 -173.53 -173.67 12.96 -106.46 175.02 -20.75 -34.26 -117.93 180.00 98.37 
DOCKED: USER  keepresnum = 1 
DOCKED: USER  
DOCKED: REMARK  Name = 
DOCKED: REMARK  12 active torsions:
DOCKED: REMARK  status: ('A' for Active; 'I' for Inactive)
DOCKED: REMARK    1  A    between atoms: C_2  and  O_3
DOCKED: REMARK    2  A    between atoms: O_3  and  C_4
DOCKED: REMARK    3  A    between atoms: C_4  and  C_5
DOCKED: REMARK    4  A    between atoms: C_10  and  C_11
DOCKED: REMARK    5  A    between atoms: C_11  and  N_12
DOCKED: REMARK    6  A    between atoms: N_12  and  C_13
DOCKED: REMARK    7  A    between atoms: N_12  and  C_15
DOCKED: REMARK    8  A    between atoms: C_13  and  C_14
DOCKED: REMARK    9  A    between atoms: C_15  and  C_16
DOCKED: REMARK   10  A    between atoms: N_21  and  C_22
DOCKED: REMARK   11  A    between atoms: C_25  and  C_26
DOCKED: REMARK   12  A    between atoms: N_27  and  O_28
DOCKED: REMARK                            x       y       z     vdW  Elec       q    Type
DOCKED: REMARK                         _______ _______ _______ _____ _____    ______ ____
DOCKED: USER                              x       y       z     vdW  Elec       q    Type
DOCKED: USER                           _______ _______ _______ _____ _____    ______ ____
DOCKED: ROOT
DOCKED: ATOM      1  C   UNL     1      20.523 -11.684   1.873 -0.78 -0.00    +0.000 C 
DOCKED: ENDROOT
DOCKED: BRANCH   1   2
DOCKED: ATOM      2  C   UNL     1      19.032 -11.565   1.988 -0.57 -0.00    +0.000 A 
DOCKED: ATOM      3  C   UNL     1      18.457 -10.940   3.105 -0.45 -0.00    +0.000 A 
DOCKED: ATOM      4  C   UNL     1      17.068 -10.858   3.234 -0.41 +0.00    +0.000 A 
DOCKED: ATOM      5  C   UNL     1      16.234 -11.414   2.253 -0.39 +0.00    +0.000 A 
DOCKED: ATOM      6  C   UNL     1      14.838 -11.337   2.376 -0.43 +0.00    +0.000 A 
DOCKED: ATOM      7  C   UNL     1      14.008 -11.900   1.393 -0.40 +0.00    +0.000 A 
DOCKED: ATOM      8  C   UNL     1      14.583 -12.538   0.283 -0.42 +0.00    +0.000 A 
DOCKED: ATOM      9  C   UNL     1      15.971 -12.619   0.154 -0.48 +0.00    +0.000 A 
DOCKED: ATOM     10  C   UNL     1      16.806 -12.061   1.132 -0.42 +0.00    +0.000 A 
DOCKED: ATOM     11  C   UNL     1      18.202 -12.137   1.011 -0.51 -0.00    +0.000 A 
DOCKED: BRANCH   7  12
DOCKED: ATOM     12  C   UNL     1      12.509 -11.805   1.507 -0.39 +0.00    +0.000 C 
DOCKED: BRANCH  12  13
DOCKED: ATOM     13  N   UNL     1      12.023 -10.584   0.831 -0.26 +0.00    +0.000 N 
DOCKED: ATOM     14  H   UNL     1      12.300  -9.779   1.392 +0.00 +0.00    +0.000 HD
DOCKED: BRANCH  13  15
DOCKED: ATOM     15  C   UNL     1      10.543 -10.545   0.780 -0.27 +0.00    +0.000 C 
DOCKED: ATOM     16  C   UNL     1       9.921 -11.850   1.273 -0.43 +0.00    +0.000 C 
DOCKED: ENDBRANCH  13  15
DOCKED: BRANCH  13  17
DOCKED: ATOM     17  C   UNL     1      12.682 -10.374  -0.483 -0.27 +0.00    +0.000 C 
DOCKED: ATOM     18  C   UNL     1      13.708  -9.232  -0.500 -0.20 -0.00    +0.000 C 
DOCKED: ENDBRANCH  13  17
DOCKED: ENDBRANCH  12  13
DOCKED: ENDBRANCH   7  12
DOCKED: ENDBRANCH   1   2
DOCKED: BRANCH   1  19
DOCKED: ATOM     19  O   UNL     1      21.035 -10.538   1.200 -0.75 -0.00    +0.000 OA
DOCKED: BRANCH  19  21
DOCKED: ATOM     20  O   UNL     1      22.111 -10.290  -0.826 -0.66 -0.00    +0.000 OA
DOCKED: ATOM     21  C   UNL     1      21.026 -10.414  -0.191 -0.71 -0.00    +0.000 C 
DOCKED: ATOM     22  N   UNL     1      19.770 -10.386  -0.881 -0.46 -0.00    +0.000 N 
DOCKED: ATOM     23  H   UNL     1      18.950 -10.327  -0.340 -0.01 -0.00    +0.000 HD
DOCKED: BRANCH  22  24
DOCKED: ATOM     24  C   UNL     1      19.628 -10.440  -2.311 -0.40 -0.00    +0.000 A 
DOCKED: ATOM     25  C   UNL     1      18.344 -10.444  -2.874 -0.27 -0.00    +0.000 A 
DOCKED: ATOM     26  C   UNL     1      18.177 -10.517  -4.260 -0.26 -0.00    +0.000 A 
DOCKED: ATOM     27  C   UNL     1      19.292 -10.596  -5.111 -0.33 -0.00    +0.000 A 
DOCKED: ATOM     28  C   UNL     1      20.579 -10.628  -4.543 -0.42 -0.00    +0.000 A 
DOCKED: ATOM     29  C   UNL     1      20.745 -10.554  -3.157 -0.46 -0.00    +0.000 A 
DOCKED: BRANCH  27  30
DOCKED: ATOM     30  C   UNL     1      19.099 -10.678  -6.580 -0.34 -0.00    +0.000 C 
DOCKED: ATOM     31  N   UNL     1      17.914 -11.249  -7.147 -0.36 -0.00    +0.000 N 
DOCKED: ATOM     32  O   UNL     1      20.001 -10.249  -7.350 -0.27 -0.00    +0.000 OA
DOCKED: ATOM     33  H   UNL     1      17.241 -11.664  -6.561 -0.03 -0.00    +0.000 HD
DOCKED: BRANCH  31  34
DOCKED: ATOM     34  O   UNL     1      17.715 -11.220  -8.487 -0.24 -0.00    +0.000 OA
DOCKED: ATOM     35  H   UNL     1      18.541 -10.971  -8.931 -0.02 -0.00    +0.000 HD
DOCKED: ENDBRANCH  31  34
DOCKED: ENDBRANCH  27  30
DOCKED: ENDBRANCH  22  24
DOCKED: ENDBRANCH  19  21
DOCKED: ENDBRANCH   1  19
DOCKED: TORSDOF 10
DOCKED: TER
DOCKED: ENDMDL
________________________________________________________________________________


	BEGINNING GENETIC ALGORITHM DOCKING 2 of 100
Run: 2 Seed: 1980784143 603719808 [ Run 2 of 100 GA/GALS ]
Beginning LAMARCKIAN GENETIC ALGORITHM (LGA), with a maximum of 2500000 energy evaluations.

Final-Value: -16.392


	FINAL GENETIC ALGORITHM DOCKED STATE
	_______________________________________________


Detailed state:  trans 21.810 -8.529 -4.878 quatxyzw 0.705957 -0.476257 -0.500940 -0.154476 center 1.858 0.218 -0.021 ntor 10 -180.0000 66.0903 53.0206 -57.1531 -103.6344 43.3091 -142.2760 179.4561 -9.7832 -111.1916
State:	 21.810  -8.529  -4.878   0.715 -0.482 -0.507 -162.227   -180.00   66.09   53.02  -57.15 -103.63   43.31 -142.28  179.46   -9.78 -111.19

DOCKED: MODEL        2
DOCKED: USER    Run = 2
DOCKED: USER    DPF = ligand_dock.biased.dpf
DOCKED: USER  
DOCKED: USER    Estimated Free Energy of Binding    =  -11.35 kcal/mol  [=(1)+(2)+(3)-(4)]
DOCKED: USER    Estimated Inhibition Constant, Ki   =    4.82 nM (nanomolar)  [Temperature = 298.15 K]
DOCKED: USER    
DOCKED: USER    (1) Final Intermolecular Energy     =  -14.33 kcal/mol
DOCKED: USER        vdW + Hbond + desolv Energy     =  -14.33 kcal/mol
DOCKED: USER        Electrostatic Energy            =   +0.00 kcal/mol
DOCKED: USER    (2) Final Total Internal Energy     =   -2.06 kcal/mol
DOCKED: USER    (3) Torsional Free Energy           =   +2.98 kcal/mol
DOCKED: USER    (4) Unbound System's Energy  [=(2)] =   -2.06 kcal/mol
DOCKED: USER    
DOCKED: USER    
DOCKED: USER    NEWDPF move ligand.pdbqt
DOCKED: USER    NEWDPF about 1.858000 0.218000 -0.021000
DOCKED: USER    NEWDPF tran0 21.810438 -8.529055 -4.878255
DOCKED: USER    NEWDPF quaternion0 0.705957 -0.476257 -0.500940 -0.154476
DOCKED: USER    NEWDPF axisangle0 0.714534 -0.482043 -0.507026 -162.227223
DOCKED: USER    NEWDPF quat0 0.714534 -0.482043 -0.507026 -162.227223
DOCKED: USER    NEWDPF dihe0 -180.00 66.09 53.02 -57.15 -103.63 43.31 -142.28 179.46 -9.78 -111.19 
DOCKED: USER  keepresnum = 1 
DOCKED: USER  
DOCKED: REMARK  Name = 
DOCKED: REMARK  12 active torsions:
DOCKED: REMARK  status: ('A' for Active; 'I' for Inactive)
DOCKED: REMARK    1  A    between atoms: C_2  and  O_3
DOCKED: REMARK    2  A    between atoms: O_3  and  C_4
DOCKED: REMARK    3  A    between atoms: C_4  and  C_5
DOCKED: REMARK    4  A    between atoms: C_10  and  C_11
DOCKED: REMARK    5  A    between atoms: C_11  and  N_12
DOCKED: REMARK    6  A    between atoms: N_12  and  C_13
DOCKED: REMARK    7  A    between atoms: N_12  and  C_15
DOCKED: REMARK    8  A    between atoms: C_13  and  C_14
DOCKED: REMARK    9  A    between atoms: C_15  and  C_16
DOCKED: REMARK   10  A    between atoms: N_21  and  C_22
DOCKED: REMARK   11  A    between atoms: C_25  and  C_26
DOCKED: REMARK   12  A    between atoms: N_27  and  O_28
DOCKED: REMARK                            x       y       z     vdW  Elec       q    Type
DOCKED: REMARK                         _______ _______ _______ _____ _____    ______ ____
DOCKED: USER                              x       y       z     vdW  Elec       q    Type
DOCKED: USER                           _______ _______ _______ _____ _____    ______ ____
DOCKED: ROOT
DOCKED: ATOM      1  C   UNL     1      20.862  -7.683  -5.923 -0.15 -0.00    +0.000 C 
DOCKED: ENDROOT
DOCKED: BRANCH   1   2
DOCKED: ATOM      2  C   UNL     1      21.301  -6.604  -4.977 -0.17 -0.00    +0.000 A 
DOCKED: ATOM      3  C   UNL     1      22.470  -5.871  -5.234 -0.15 -0.00    +0.000 A 
DOCKED: ATOM      4  C   UNL     1      22.903  -4.890  -4.339 -0.15 -0.00    +0.000 A 
DOCKED: ATOM      5  C   UNL     1      22.179  -4.638  -3.164 -0.23 -0.00    +0.000 A 
DOCKED: ATOM      6  C   UNL     1      22.608  -3.656  -2.258 -0.25 -0.00    +0.000 A 
DOCKED: ATOM      7  C   UNL     1      21.882  -3.411  -1.082 -0.30 +0.00    +0.000 A 
DOCKED: ATOM      8  C   UNL     1      20.720  -4.153  -0.817 -0.40 +0.00    +0.000 A 
DOCKED: ATOM      9  C   UNL     1      20.288  -5.134  -1.713 -0.19 -0.00    +0.000 A 
DOCKED: ATOM     10  C   UNL     1      21.009  -5.384  -2.889 -0.31 -0.00    +0.000 A 
DOCKED: ATOM     11  C   UNL     1      20.582  -6.367  -3.795 -0.24 -0.00    +0.000 A 
DOCKED: BRANCH   7  12
DOCKED: ATOM     12  C   UNL     1      22.324  -2.345  -0.113 -0.32 -0.00    +0.000 C 
DOCKED: BRANCH  12  13
DOCKED: ATOM     13  N   UNL     1      21.168  -1.857   0.669 -0.37 -0.00    +0.000 N 
DOCKED: ATOM     14  H   UNL     1      20.320  -2.067   0.144 -0.00 -0.00    +0.000 HD
DOCKED: BRANCH  13  15
DOCKED: ATOM     15  C   UNL     1      21.196  -0.382   0.813 -0.27 -0.00    +0.000 C 
DOCKED: ATOM     16  C   UNL     1      22.552   0.204   0.424 -0.22 -0.00    +0.000 C 
DOCKED: ENDBRANCH  13  15
DOCKED: BRANCH  13  17
DOCKED: ATOM     17  C   UNL     1      21.013  -2.590   1.951 -0.51 -0.00    +0.000 C 
DOCKED: ATOM     18  C   UNL     1      20.788  -1.686   3.171 -0.70 -0.00    +0.000 C 
DOCKED: ENDBRANCH  13  17
DOCKED: ENDBRANCH  12  13
DOCKED: ENDBRANCH   7  12
DOCKED: ENDBRANCH   1   2
DOCKED: BRANCH   1  19
DOCKED: ATOM     19  O   UNL     1      21.613  -8.865  -5.667 -0.27 -0.00    +0.000 OA
DOCKED: BRANCH  19  21
DOCKED: ATOM     20  O   UNL     1      22.129 -10.675  -4.331 -0.52 -0.00    +0.000 OA
DOCKED: ATOM     21  C   UNL     1      21.462  -9.616  -4.498 -0.40 -0.00    +0.000 C 
DOCKED: ATOM     22  N   UNL     1      20.511  -9.190  -3.514 -0.35 -0.00    +0.000 N 
DOCKED: ATOM     23  H   UNL     1      19.903  -8.452  -3.751 -0.01 -0.00    +0.000 HD
DOCKED: BRANCH  22  24
DOCKED: ATOM     24  C   UNL     1      20.386  -9.766  -2.202 -0.45 -0.00    +0.000 A 
DOCKED: ATOM     25  C   UNL     1      21.395  -9.546  -1.255 -0.55 -0.00    +0.000 A 
DOCKED: ATOM     26  C   UNL     1      21.309 -10.113   0.019 -0.62 -0.00    +0.000 A 
DOCKED: ATOM     27  C   UNL     1      20.213 -10.920   0.370 -0.59 -0.00    +0.000 A 
DOCKED: ATOM     28  C   UNL     1      19.219 -11.169  -0.592 -0.45 -0.00    +0.000 A 
DOCKED: ATOM     29  C   UNL     1      19.305 -10.601  -1.867 -0.39 -0.00    +0.000 A 
DOCKED: BRANCH  27  30
DOCKED: ATOM     30  C   UNL     1      20.137 -11.518   1.726 -0.76 -0.00    +0.000 C 
DOCKED: ATOM     31  N   UNL     1      20.247 -10.713   2.905 -0.68 -0.00    +0.000 N 
DOCKED: ATOM     32  O   UNL     1      19.987 -12.764   1.847 -1.51 -0.00    +0.000 OA
DOCKED: ATOM     33  H   UNL     1      20.449  -9.752   2.826 -0.56 -0.00    +0.000 HD
DOCKED: BRANCH  31  34
DOCKED: ATOM     34  O   UNL     1      20.073 -11.266   4.129 -0.79 -0.00    +0.000 OA
DOCKED: ATOM     35  H   UNL     1      20.656 -12.035   4.222 -0.50 -0.00    +0.000 HD
DOCKED: ENDBRANCH  31  34
DOCKED: ENDBRANCH  27  30
DOCKED: ENDBRANCH  22  24
DOCKED: ENDBRANCH  19  21
DOCKED: ENDBRANCH   1  19
DOCKED: TORSDOF 10
DOCKED: TER
DOCKED: ENDMDL
________________________________________________________________________________


	BEGINNING GENETIC ALGORITHM DOCKING 3 of 100
Run: 3 Seed: 1825527621 1665732559 [ Run 3 of 100 GA/GALS ]
Beginning LAMARCKIAN GENETIC ALGORITHM (LGA), with a maximum of 2500000 energy evaluations.

Final-Value: -15.049


	FINAL GENETIC ALGORITHM DOCKED STATE
	_______________________________________________


Detailed state:  trans 20.840 -8.652 -4.910 quatxyzw -0.647119 0.551789 0.523690 0.050135 center 1.858 0.218 -0.021 ntor 10 180.0000 -180.0000 25.7407 -67.6284 78.2012 -180.0000 -23.7987 -97.7971 180.0000 -147.0376
State:	 20.840  -8.652  -4.910  -0.648  0.552  0.524 174.253    180.00 -180.00   25.74  -67.63   78.20 -180.00  -23.80  -97.80  180.00 -147.04

DOCKED: MODEL        3
DOCKED: USER    Run = 3
DOCKED: USER    DPF = ligand_dock.biased.dpf
DOCKED: USER  
DOCKED: USER    Estimated Free Energy of Binding    =   -9.75 kcal/mol  [=(1)+(2)+(3)-(4)]
DOCKED: USER    Estimated Inhibition Constant, Ki   =   70.91 nM (nanomolar)  [Temperature = 298.15 K]
DOCKED: USER    
DOCKED: USER    (1) Final Intermolecular Energy     =  -12.74 kcal/mol
DOCKED: USER        vdW + Hbond + desolv Energy     =  -12.74 kcal/mol
DOCKED: USER        Electrostatic Energy            =   +0.00 kcal/mol
DOCKED: USER    (2) Final Total Internal Energy     =   -2.31 kcal/mol
DOCKED: USER    (3) Torsional Free Energy           =   +2.98 kcal/mol
DOCKED: USER    (4) Unbound System's Energy  [=(2)] =   -2.31 kcal/mol
DOCKED: USER    
DOCKED: USER    
DOCKED: USER    NEWDPF move ligand.pdbqt
DOCKED: USER    NEWDPF about 1.858000 0.218000 -0.021000
DOCKED: USER    NEWDPF tran0 20.840394 -8.651731 -4.909976
DOCKED: USER    NEWDPF quaternion0 -0.647119 0.551789 0.523690 0.050135
DOCKED: USER    NEWDPF axisangle0 -0.647934 0.552484 0.524350 174.252537
DOCKED: USER    NEWDPF quat0 -0.647934 0.552484 0.524350 174.252537
DOCKED: USER    NEWDPF dihe0 180.00 -180.00 25.74 -67.63 78.20 -180.00 -23.80 -97.80 180.00 -147.04 
DOCKED: USER  keepresnum = 1 
DOCKED: USER  
DOCKED: REMARK  Name = 
DOCKED: REMARK  12 active torsions:
DOCKED: REMARK  status: ('A' for Active; 'I' for Inactive)
DOCKED: REMARK    1  A    between atoms: C_2  and  O_3
DOCKED: REMARK    2  A    between atoms: O_3  and  C_4
DOCKED: REMARK    3  A    between atoms: C_4  and  C_5
DOCKED: REMARK    4  A    between atoms: C_10  and  C_11
DOCKED: REMARK    5  A    between atoms: C_11  and  N_12
DOCKED: REMARK    6  A    between atoms: N_12  and  C_13
DOCKED: REMARK    7  A    between atoms: N_12  and  C_15
DOCKED: REMARK    8  A    between atoms: C_13  and  C_14
DOCKED: REMARK    9  A    between atoms: C_15  and  C_16
DOCKED: REMARK   10  A    between atoms: N_21  and  C_22
DOCKED: REMARK   11  A    between atoms: C_25  and  C_26
DOCKED: REMARK   12  A    between atoms: N_27  and  O_28
DOCKED: REMARK                            x       y       z     vdW  Elec       q    Type
DOCKED: REMARK                         _______ _______ _______ _____ _____    ______ ____
DOCKED: USER                              x       y       z     vdW  Elec       q    Type
DOCKED: USER                           _______ _______ _______ _____ _____    ______ ____
DOCKED: ROOT
DOCKED: ATOM      1  C   UNL     1      20.201  -7.508  -5.905 -0.13 -0.00    +0.000 C 
DOCKED: ENDROOT
DOCKED: BRANCH   1   2
DOCKED: ATOM      2  C   UNL     1      20.875  -6.659  -4.867 -0.17 -0.00    +0.000 A 
DOCKED: ATOM      3  C   UNL     1      20.256  -6.432  -3.629 -0.21 -0.00    +0.000 A 
DOCKED: ATOM      4  C   UNL     1      20.862  -5.613  -2.673 -0.33 -0.00    +0.000 A 
DOCKED: ATOM      5  C   UNL     1      22.092  -4.998  -2.948 -0.28 -0.00    +0.000 A 
DOCKED: ATOM      6  C   UNL     1      22.707  -4.173  -1.994 -0.31 +0.00    +0.000 A 
DOCKED: ATOM      7  C   UNL     1      23.936  -3.556  -2.277 -0.26 -0.00    +0.000 A 
DOCKED: ATOM      8  C   UNL     1      24.549  -3.772  -3.521 -0.16 -0.00    +0.000 A 
DOCKED: ATOM      9  C   UNL     1      23.942  -4.590  -4.477 -0.10 -0.00    +0.000 A 
DOCKED: ATOM     10  C   UNL     1      22.715  -5.209  -4.201 -0.14 -0.00    +0.000 A 
DOCKED: ATOM     11  C   UNL     1      22.099  -6.033  -5.154 -0.15 -0.00    +0.000 A 
DOCKED: BRANCH   7  12
DOCKED: ATOM     12  C   UNL     1      24.613  -2.685  -1.251 -0.27 -0.00    +0.000 C 
DOCKED: BRANCH  12  13
DOCKED: ATOM     13  N   UNL     1      23.836  -1.443  -1.048 -0.21 -0.00    +0.000 N 
DOCKED: ATOM     14  H   UNL     1      23.395  -1.197  -1.933 +0.00 -0.00    +0.000 HD
DOCKED: BRANCH  13  15
DOCKED: ATOM     15  C   UNL     1      24.719  -0.302  -0.710 -0.21 -0.00    +0.000 C 
DOCKED: ATOM     16  C   UNL     1      26.127  -0.761  -0.332 -0.27 -0.00    +0.000 C 
DOCKED: ENDBRANCH  13  15
DOCKED: BRANCH  13  17
DOCKED: ATOM     17  C   UNL     1      22.709  -1.638  -0.102 -0.30 -0.00    +0.000 C 
DOCKED: ATOM     18  C   UNL     1      21.319  -1.511  -0.742 -0.21 -0.00    +0.000 C 
DOCKED: ENDBRANCH  13  17
DOCKED: ENDBRANCH  12  13
DOCKED: ENDBRANCH   7  12
DOCKED: ENDBRANCH   1   2
DOCKED: BRANCH   1  19
DOCKED: ATOM     19  O   UNL     1      20.592  -8.865  -5.726 -0.19 -0.00    +0.000 OA
DOCKED: BRANCH  19  21
DOCKED: ATOM     20  O   UNL     1      22.064  -9.526  -4.077 -0.40 -0.00    +0.000 OA
DOCKED: ATOM     21  C   UNL     1      20.870  -9.412  -4.471 -0.37 -0.00    +0.000 C 
DOCKED: ATOM     22  N   UNL     1      19.785  -9.879  -3.659 -0.32 -0.00    +0.000 N 
DOCKED: ATOM     23  H   UNL     1      18.889  -9.918  -4.066 -0.00 -0.00    +0.000 HD
DOCKED: BRANCH  22  24
DOCKED: ATOM     24  C   UNL     1      19.918 -10.296  -2.289 -0.42 -0.00    +0.000 A 
DOCKED: ATOM     25  C   UNL     1      18.831 -10.906  -1.648 -0.38 -0.00    +0.000 A 
DOCKED: ATOM     26  C   UNL     1      18.925 -11.301  -0.311 -0.46 -0.00    +0.000 A 
DOCKED: ATOM     27  C   UNL     1      20.109 -11.087   0.416 -0.59 -0.00    +0.000 A 
DOCKED: ATOM     28  C   UNL     1      21.187 -10.443  -0.218 -0.63 -0.00    +0.000 A 
DOCKED: ATOM     29  C   UNL     1      21.092 -10.049  -1.556 -0.56 -0.00    +0.000 A 
DOCKED: BRANCH  27  30
DOCKED: ATOM     30  C   UNL     1      20.193 -11.507   1.836 -0.77 -0.00    +0.000 C 
DOCKED: ATOM     31  N   UNL     1      20.545 -10.581   2.870 -0.64 -0.00    +0.000 N 
DOCKED: ATOM     32  O   UNL     1      19.965 -12.709   2.143 -1.49 -0.00    +0.000 OA
DOCKED: ATOM     33  H   UNL     1      20.809  -9.661   2.636 -0.56 -0.00    +0.000 HD
DOCKED: BRANCH  31  34
DOCKED: ATOM     34  O   UNL     1      20.517 -10.963   4.170 -0.75 -0.00    +0.000 OA
DOCKED: ATOM     35  H   UNL     1      20.645 -11.923   4.227 -0.48 -0.00    +0.000 HD
DOCKED: ENDBRANCH  31  34
DOCKED: ENDBRANCH  27  30
DOCKED: ENDBRANCH  22  24
DOCKED: ENDBRANCH  19  21
DOCKED: ENDBRANCH   1  19
DOCKED: TORSDOF 10
DOCKED: TER
DOCKED: ENDMDL
________________________________________________________________________________


	BEGINNING GENETIC ALGORITHM DOCKING 4 of 100
Run: 4 Seed: 690085128 453650433 [ Run 4 of 100 GA/GALS ]
Beginning LAMARCKIAN GENETIC ALGORITHM (LGA), with a maximum of 2500000 energy evaluations.

Final-Value: -13.990


	FINAL GENETIC ALGORITHM DOCKED STATE
	_______________________________________________


Detailed state:  trans 22.422 -9.193 -5.286 quatxyzw -0.322480 -0.747381 -0.033032 -0.579946 center 1.858 0.218 -0.021 ntor 10 -100.7861 47.8857 -7.4577 180.0000 175.0467 179.4715 91.3453 -132.6704 -54.3863 53.6981
State:	 22.422  -9.193  -5.286  -0.396 -0.917 -0.041 -109.106   -100.79   47.89   -7.46  180.00  175.05  179.47   91.35 -132.67  -54.39   53.70

DOCKED: MODEL        4
DOCKED: USER    Run = 4
DOCKED: USER    DPF = ligand_dock.biased.dpf
DOCKED: USER  
DOCKED: USER    Estimated Free Energy of Binding    =   -8.90 kcal/mol  [=(1)+(2)+(3)-(4)]
DOCKED: USER    Estimated Inhibition Constant, Ki   =  300.44 nM (nanomolar)  [Temperature = 298.15 K]
DOCKED: USER    
DOCKED: USER    (1) Final Intermolecular Energy     =  -11.88 kcal/mol
DOCKED: USER        vdW + Hbond + desolv Energy     =  -11.88 kcal/mol
DOCKED: USER        Electrostatic Energy            =   +0.00 kcal/mol
DOCKED: USER    (2) Final Total Internal Energy     =   -2.11 kcal/mol
DOCKED: USER    (3) Torsional Free Energy           =   +2.98 kcal/mol
DOCKED: USER    (4) Unbound System's Energy  [=(2)] =   -2.11 kcal/mol
DOCKED: USER    
DOCKED: USER    
DOCKED: USER    NEWDPF move ligand.pdbqt
DOCKED: USER    NEWDPF about 1.858000 0.218000 -0.021000
DOCKED: USER    NEWDPF tran0 22.421737 -9.193359 -5.286115
DOCKED: USER    NEWDPF quaternion0 -0.322480 -0.747381 -0.033032 -0.579946
DOCKED: USER    NEWDPF axisangle0 -0.395848 -0.917420 -0.040547 -109.106469
DOCKED: USER    NEWDPF quat0 -0.395848 -0.917420 -0.040547 -109.106469
DOCKED: USER    NEWDPF dihe0 -100.79 47.89 -7.46 180.00 175.05 179.47 91.35 -132.67 -54.39 53.70 
DOCKED: USER  keepresnum = 1 
DOCKED: USER  
DOCKED: REMARK  Name = 
DOCKED: REMARK  12 active torsions:
DOCKED: REMARK  status: ('A' for Active; 'I' for Inactive)
DOCKED: REMARK    1  A    between atoms: C_2  and  O_3
DOCKED: REMARK    2  A    between atoms: O_3  and  C_4
DOCKED: REMARK    3  A    between atoms: C_4  and  C_5
DOCKED: REMARK    4  A    between atoms: C_10  and  C_11
DOCKED: REMARK    5  A    between atoms: C_11  and  N_12
DOCKED: REMARK    6  A    between atoms: N_12  and  C_13
DOCKED: REMARK    7  A    between atoms: N_12  and  C_15
DOCKED: REMARK    8  A    between atoms: C_13  and  C_14
DOCKED: REMARK    9  A    between atoms: C_15  and  C_16
DOCKED: REMARK   10  A    between atoms: N_21  and  C_22
DOCKED: REMARK   11  A    between atoms: C_25  and  C_26
DOCKED: REMARK   12  A    between atoms: N_27  and  O_28
DOCKED: REMARK                            x       y       z     vdW  Elec       q    Type
DOCKED: REMARK                         _______ _______ _______ _____ _____    ______ ____
DOCKED: USER                              x       y       z     vdW  Elec       q    Type
DOCKED: USER                           _______ _______ _______ _____ _____    ______ ____
DOCKED: ROOT
DOCKED: ATOM      1  C   UNL     1      20.830  -9.148  -5.700 -0.25 -0.00    +0.000 C 
DOCKED: ENDROOT
DOCKED: BRANCH   1   2
DOCKED: ATOM      2  C   UNL     1      21.383 -10.076  -6.741 -0.26 -0.00    +0.000 A 
DOCKED: ATOM      3  C   UNL     1      22.260 -11.107  -6.374 -0.41 -0.00    +0.000 A 
DOCKED: ATOM      4  C   UNL     1      22.806 -11.952  -7.343 -0.32 -0.00    +0.000 A 
DOCKED: ATOM      5  C   UNL     1      22.493 -11.767  -8.697 -0.27 -0.00    +0.000 A 
DOCKED: ATOM      6  C   UNL     1      23.038 -12.611  -9.678 -0.32 -0.00    +0.000 A 
DOCKED: ATOM      7  C   UNL     1      22.725 -12.417 -11.033 -0.21 -0.00    +0.000 A 
DOCKED: ATOM      8  C   UNL     1      21.859 -11.376 -11.403 -0.13 -0.00    +0.000 A 
DOCKED: ATOM      9  C   UNL     1      21.313 -10.532 -10.433 -0.13 -0.00    +0.000 A 
DOCKED: ATOM     10  C   UNL     1      21.622 -10.719  -9.078 -0.20 -0.00    +0.000 A 
DOCKED: ATOM     11  C   UNL     1      21.078  -9.876  -8.097 -0.18 -0.00    +0.000 A 
DOCKED: BRANCH   7  12
DOCKED: ATOM     12  C   UNL     1      23.291 -13.329 -12.090 -0.19 -0.00    +0.000 C 
DOCKED: BRANCH  12  13
DOCKED: ATOM     13  N   UNL     1      24.746 -13.110 -12.225 -0.13 -0.00    +0.000 N 
DOCKED: ATOM     14  H   UNL     1      24.995 -13.227 -13.207 +0.00 -0.00    +0.000 HD
DOCKED: BRANCH  13  15
DOCKED: ATOM     15  C   UNL     1      25.520 -14.140 -11.492 -0.21 -0.00    +0.000 C 
DOCKED: ATOM     16  C   UNL     1      25.328 -15.532 -12.091 -0.29 -0.00    +0.000 C 
DOCKED: ENDBRANCH  13  15
DOCKED: BRANCH  13  17
DOCKED: ATOM     17  C   UNL     1      25.133 -11.714 -11.899 -0.12 -0.00    +0.000 C 
DOCKED: ATOM     18  C   UNL     1      26.019 -11.579 -10.653 -0.21 -0.00    +0.000 C 
DOCKED: ENDBRANCH  13  17
DOCKED: ENDBRANCH  12  13
DOCKED: ENDBRANCH   7  12
DOCKED: ENDBRANCH   1   2
DOCKED: BRANCH   1  19
DOCKED: ATOM     19  O   UNL     1      21.823  -8.912  -4.706 -0.37 -0.00    +0.000 OA
DOCKED: BRANCH  19  21
DOCKED: ATOM     20  O   UNL     1      21.945  -8.243  -2.502 -0.42 -0.00    +0.000 OA
DOCKED: ATOM     21  C   UNL     1      21.590  -9.114  -3.344 -0.39 -0.00    +0.000 C 
DOCKED: ATOM     22  N   UNL     1      20.984 -10.340  -2.914 -0.50 -0.00    +0.000 N 
DOCKED: ATOM     23  H   UNL     1      20.868 -11.055  -3.582 -0.03 -0.00    +0.000 HD
DOCKED: BRANCH  22  24
DOCKED: ATOM     24  C   UNL     1      20.533 -10.597  -1.573 -0.47 -0.00    +0.000 A 
DOCKED: ATOM     25  C   UNL     1      21.435 -10.468  -0.509 -0.63 -0.00    +0.000 A 
DOCKED: ATOM     26  C   UNL     1      21.029 -10.733   0.802 -0.54 -0.00    +0.000 A 
DOCKED: ATOM     27  C   UNL     1      19.712 -11.141   1.074 -0.59 -0.00    +0.000 A 
DOCKED: ATOM     28  C   UNL     1      18.817 -11.304   0.001 -0.46 -0.00    +0.000 A 
DOCKED: ATOM     29  C   UNL     1      19.224 -11.038  -1.310 -0.39 -0.00    +0.000 A 
DOCKED: BRANCH  27  30
DOCKED: ATOM     30  C   UNL     1      19.296 -11.422   2.470 -0.68 -0.00    +0.000 C 
DOCKED: ATOM     31  N   UNL     1      20.238 -11.861   3.456 -0.68 -0.00    +0.000 N 
DOCKED: ATOM     32  O   UNL     1      18.085 -11.287   2.797 -0.57 +0.00    +0.000 OA
DOCKED: ATOM     33  H   UNL     1      21.168 -12.053   3.195 -0.59 -0.00    +0.000 HD
DOCKED: BRANCH  31  34
DOCKED: ATOM     34  O   UNL     1      19.855 -12.014   4.747 -0.71 -0.00    +0.000 OA
DOCKED: ATOM     35  H   UNL     1      18.953 -11.676   4.859 -0.03 -0.00    +0.000 HD
DOCKED: ENDBRANCH  31  34
DOCKED: ENDBRANCH  27  30
DOCKED: ENDBRANCH  22  24
DOCKED: ENDBRANCH  19  21
DOCKED: ENDBRANCH   1  19
DOCKED: TORSDOF 10
DOCKED: TER
DOCKED: ENDMDL
________________________________________________________________________________


	BEGINNING GENETIC ALGORITHM DOCKING 5 of 100
Run: 5 Seed: 1305183074 1769653827 [ Run 5 of 100 GA/GALS ]
Beginning LAMARCKIAN GENETIC ALGORITHM (LGA), with a maximum of 2500000 energy evaluations.

Final-Value: -14.302


	FINAL GENETIC ALGORITHM DOCKED STATE
	_______________________________________________


Detailed state:  trans 21.866 -7.876 -4.420 quatxyzw 0.905480 0.381230 0.182997 -0.035796 center 1.858 0.218 -0.021 ntor 10 26.3498 -157.5288 6.8421 -174.4343 -176.2127 -179.9554 -120.2105 -119.1182 161.1935 179.3331
State:	 21.866  -7.876  -4.420   0.906  0.381  0.183 -175.897     26.35 -157.53    6.84 -174.43 -176.21 -179.96 -120.21 -119.12  161.19  179.33

DOCKED: MODEL        5
DOCKED: USER    Run = 5
DOCKED: USER    DPF = ligand_dock.biased.dpf
DOCKED: USER  
DOCKED: USER    Estimated Free Energy of Binding    =   -8.24 kcal/mol  [=(1)+(2)+(3)-(4)]
DOCKED: USER    Estimated Inhibition Constant, Ki   =  910.41 nM (nanomolar)  [Temperature = 298.15 K]
DOCKED: USER    
DOCKED: USER    (1) Final Intermolecular Energy     =  -11.22 kcal/mol
DOCKED: USER        vdW + Hbond + desolv Energy     =  -11.22 kcal/mol
DOCKED: USER        Electrostatic Energy            =   +0.00 kcal/mol
DOCKED: USER    (2) Final Total Internal Energy     =   -3.08 kcal/mol
DOCKED: USER    (3) Torsional Free Energy           =   +2.98 kcal/mol
DOCKED: USER    (4) Unbound System's Energy  [=(2)] =   -3.08 kcal/mol
DOCKED: USER    
DOCKED: USER    
DOCKED: USER    NEWDPF move ligand.pdbqt
DOCKED: USER    NEWDPF about 1.858000 0.218000 -0.021000
DOCKED: USER    NEWDPF tran0 21.865656 -7.875520 -4.420066
DOCKED: USER    NEWDPF quaternion0 0.905480 0.381230 0.182997 -0.035796
DOCKED: USER    NEWDPF axisangle0 0.906061 0.381475 0.183114 -175.897220
DOCKED: USER    NEWDPF quat0 0.906061 0.381475 0.183114 -175.897220
DOCKED: USER    NEWDPF dihe0 26.35 -157.53 6.84 -174.43 -176.21 -179.96 -120.21 -119.12 161.19 179.33 
DOCKED: USER  keepresnum = 1 
DOCKED: USER  
DOCKED: REMARK  Name = 
DOCKED: REMARK  12 active torsions:
DOCKED: REMARK  status: ('A' for Active; 'I' for Inactive)
DOCKED: REMARK    1  A    between atoms: C_2  and  O_3
DOCKED: REMARK    2  A    between atoms: O_3  and  C_4
DOCKED: REMARK    3  A    between atoms: C_4  and  C_5
DOCKED: REMARK    4  A    between atoms: C_10  and  C_11
DOCKED: REMARK    5  A    between atoms: C_11  and  N_12
DOCKED: REMARK    6  A    between atoms: N_12  and  C_13
DOCKED: REMARK    7  A    between atoms: N_12  and  C_15
DOCKED: REMARK    8  A    between atoms: C_13  and  C_14
DOCKED: REMARK    9  A    between atoms: C_15  and  C_16
DOCKED: REMARK   10  A    between atoms: N_21  and  C_22
DOCKED: REMARK   11  A    between atoms: C_25  and  C_26
DOCKED: REMARK   12  A    between atoms: N_27  and  O_28
DOCKED: REMARK                            x       y       z     vdW  Elec       q    Type
DOCKED: REMARK                         _______ _______ _______ _____ _____    ______ ____
DOCKED: USER                              x       y       z     vdW  Elec       q    Type
DOCKED: USER                           _______ _______ _______ _____ _____    ______ ____
DOCKED: ROOT
DOCKED: ATOM      1  C   UNL     1      21.857  -7.409  -5.998 -0.17 -0.00    +0.000 C 
DOCKED: ENDROOT
DOCKED: BRANCH   1   2
DOCKED: ATOM      2  C   UNL     1      20.696  -8.359  -5.961 -0.15 -0.00    +0.000 A 
DOCKED: ATOM      3  C   UNL     1      20.855  -9.685  -6.393 -0.22 -0.00    +0.000 A 
DOCKED: ATOM      4  C   UNL     1      19.769 -10.564  -6.395 -0.29 -0.00    +0.000 A 
DOCKED: ATOM      5  C   UNL     1      18.505 -10.125  -5.976 -0.23 -0.00    +0.000 A 
DOCKED: ATOM      6  C   UNL     1      17.409 -11.001  -5.975 -0.30 -0.00    +0.000 A 
DOCKED: ATOM      7  C   UNL     1      16.144 -10.554  -5.560 -0.21 -0.00    +0.000 A 
DOCKED: ATOM      8  C   UNL     1      15.982  -9.225  -5.140 -0.14 -0.00    +0.000 A 
DOCKED: ATOM      9  C   UNL     1      17.068  -8.346  -5.139 -0.13 -0.00    +0.000 A 
DOCKED: ATOM     10  C   UNL     1      18.333  -8.785  -5.554 -0.14 -0.00    +0.000 A 
DOCKED: ATOM     11  C   UNL     1      19.430  -7.910  -5.556 -0.13 -0.00    +0.000 A 
DOCKED: BRANCH   7  12
DOCKED: ATOM     12  C   UNL     1      14.966 -11.493  -5.538 -0.30 -0.00    +0.000 C 
DOCKED: BRANCH  12  13
DOCKED: ATOM     13  N   UNL     1      14.579 -11.856  -6.918 -0.26 -0.00    +0.000 N 
DOCKED: ATOM     14  H   UNL     1      13.561 -11.861  -6.971 -0.00 -0.00    +0.000 HD
DOCKED: BRANCH  13  15
DOCKED: ATOM     15  C   UNL     1      15.005 -13.235  -7.255 -0.32 +0.00    +0.000 C 
DOCKED: ATOM     16  C   UNL     1      14.893 -13.517  -8.753 -0.40 +0.00    +0.000 C 
DOCKED: ENDBRANCH  13  15
DOCKED: BRANCH  13  17
DOCKED: ATOM     17  C   UNL     1      15.005 -10.831  -7.904 -0.18 -0.00    +0.000 C 
DOCKED: ATOM     18  C   UNL     1      13.959  -9.739  -8.171 -0.06 -0.00    +0.000 C 
DOCKED: ENDBRANCH  13  17
DOCKED: ENDBRANCH  12  13
DOCKED: ENDBRANCH   7  12
DOCKED: ENDBRANCH   1   2
DOCKED: BRANCH   1  19
DOCKED: ATOM     19  O   UNL     1      22.291  -7.146  -4.667 -0.24 -0.00    +0.000 OA
DOCKED: BRANCH  19  21
DOCKED: ATOM     20  O   UNL     1      21.160  -6.966  -2.664 -0.46 -0.00    +0.000 OA
DOCKED: ATOM     21  C   UNL     1      21.673  -7.708  -3.547 -0.31 -0.00    +0.000 C 
DOCKED: ATOM     22  N   UNL     1      21.669  -9.133  -3.395 -0.41 -0.00    +0.000 N 
DOCKED: ATOM     23  H   UNL     1      22.214  -9.664  -4.021 -0.03 -0.00    +0.000 HD
DOCKED: BRANCH  22  24
DOCKED: ATOM     24  C   UNL     1      20.922  -9.841  -2.390 -0.50 -0.00    +0.000 A 
DOCKED: ATOM     25  C   UNL     1      19.631 -10.299  -2.689 -0.39 -0.00    +0.000 A 
DOCKED: ATOM     26  C   UNL     1      18.876 -10.970  -1.724 -0.37 -0.00    +0.000 A 
DOCKED: ATOM     27  C   UNL     1      19.393 -11.190  -0.436 -0.47 -0.00    +0.000 A 
DOCKED: ATOM     28  C   UNL     1      20.674 -10.698  -0.126 -0.60 -0.00    +0.000 A 
DOCKED: ATOM     29  C   UNL     1      21.430 -10.027  -1.093 -0.57 -0.00    +0.000 A 
DOCKED: BRANCH  27  30
DOCKED: ATOM     30  C   UNL     1      18.577 -11.900   0.580 -0.58 -0.00    +0.000 C 
DOCKED: ATOM     31  N   UNL     1      17.157 -12.023   0.444 -0.45 +0.00    +0.000 N 
DOCKED: ATOM     32  O   UNL     1      19.141 -12.395   1.594 -1.33 -0.00    +0.000 OA
DOCKED: ATOM     33  H   UNL     1      16.693 -11.569  -0.297 -0.00 +0.00    +0.000 HD
DOCKED: BRANCH  31  34
DOCKED: ATOM     34  O   UNL     1      16.447 -12.762   1.330 -0.98 +0.00    +0.000 OA
DOCKED: ATOM     35  H   UNL     1      17.029 -13.049   2.051 +0.12 +0.00    +0.000 HD
DOCKED: ENDBRANCH  31  34
DOCKED: ENDBRANCH  27  30
DOCKED: ENDBRANCH  22  24
DOCKED: ENDBRANCH  19  21
DOCKED: ENDBRANCH   1  19
DOCKED: TORSDOF 10
DOCKED: TER
DOCKED: ENDMDL
________________________________________________________________________________


	BEGINNING GENETIC ALGORITHM DOCKING 6 of 100
Run: 6 Seed: 591396263 682229682 [ Run 6 of 100 GA/GALS ]
Beginning LAMARCKIAN GENETIC ALGORITHM (LGA), with a maximum of 2500000 energy evaluations.

Final-Value: -16.090


	FINAL GENETIC ALGORITHM DOCKED STATE
	_______________________________________________


Detailed state:  trans 19.739 -12.076 0.438 quatxyzw -0.323383 -0.202110 -0.844313 -0.376444 center 1.858 0.218 -0.021 ntor 10 34.1224 -134.6347 84.2531 -37.2553 175.4224 -39.8334 -127.3472 168.3407 95.4607 91.9972
State:	 19.739 -12.076   0.438  -0.349 -0.218 -0.911 -135.773     34.12 -134.63   84.25  -37.26  175.42  -39.83 -127.35  168.34   95.46   92.00

DOCKED: MODEL        6
DOCKED: USER    Run = 6
DOCKED: USER    DPF = ligand_dock.biased.dpf
DOCKED: USER  
DOCKED: USER    Estimated Free Energy of Binding    =  -11.32 kcal/mol  [=(1)+(2)+(3)-(4)]
DOCKED: USER    Estimated Inhibition Constant, Ki   =    5.05 nM (nanomolar)  [Temperature = 298.15 K]
DOCKED: USER    
DOCKED: USER    (1) Final Intermolecular Energy     =  -14.30 kcal/mol
DOCKED: USER        vdW + Hbond + desolv Energy     =  -14.30 kcal/mol
DOCKED: USER        Electrostatic Energy            =   +0.00 kcal/mol
DOCKED: USER    (2) Final Total Internal Energy     =   -1.79 kcal/mol
DOCKED: USER    (3) Torsional Free Energy           =   +2.98 kcal/mol
DOCKED: USER    (4) Unbound System's Energy  [=(2)] =   -1.79 kcal/mol
DOCKED: USER    
DOCKED: USER    
DOCKED: USER    NEWDPF move ligand.pdbqt
DOCKED: USER    NEWDPF about 1.858000 0.218000 -0.021000
DOCKED: USER    NEWDPF tran0 19.738796 -12.076150 0.437696
DOCKED: USER    NEWDPF quaternion0 -0.323383 -0.202110 -0.844313 -0.376444
DOCKED: USER    NEWDPF axisangle0 -0.349060 -0.218158 -0.911353 -135.772788
DOCKED: USER    NEWDPF quat0 -0.349060 -0.218158 -0.911353 -135.772788
DOCKED: USER    NEWDPF dihe0 34.12 -134.63 84.25 -37.26 175.42 -39.83 -127.35 168.34 95.46 92.00 
DOCKED: USER  keepresnum = 1 
DOCKED: USER  
DOCKED: REMARK  Name = 
DOCKED: REMARK  12 active torsions:
DOCKED: REMARK  status: ('A' for Active; 'I' for Inactive)
DOCKED: REMARK    1  A    between atoms: C_2  and  O_3
DOCKED: REMARK    2  A    between atoms: O_3  and  C_4
DOCKED: REMARK    3  A    between atoms: C_4  and  C_5
DOCKED: REMARK    4  A    between atoms: C_10  and  C_11
DOCKED: REMARK    5  A    between atoms: C_11  and  N_12
DOCKED: REMARK    6  A    between atoms: N_12  and  C_13
DOCKED: REMARK    7  A    between atoms: N_12  and  C_15
DOCKED: REMARK    8  A    between atoms: C_13  and  C_14
DOCKED: REMARK    9  A    between atoms: C_15  and  C_16
DOCKED: REMARK   10  A    between atoms: N_21  and  C_22
DOCKED: REMARK   11  A    between atoms: C_25  and  C_26
DOCKED: REMARK   12  A    between atoms: N_27  and  O_28
DOCKED: REMARK                            x       y       z     vdW  Elec       q    Type
DOCKED: REMARK                         _______ _______ _______ _____ _____    ______ ____
DOCKED: USER                              x       y       z     vdW  Elec       q    Type
DOCKED: USER                           _______ _______ _______ _____ _____    ______ ____
DOCKED: ROOT
DOCKED: ATOM      1  C   UNL     1      19.905 -10.702   1.327 -0.66 -0.00    +0.000 C 
DOCKED: ENDROOT
DOCKED: BRANCH   1   2
DOCKED: ATOM      2  C   UNL     1      20.329 -10.231  -0.033 -0.56 -0.00    +0.000 A 
DOCKED: ATOM      3  C   UNL     1      21.025  -9.021  -0.176 -0.32 -0.00    +0.000 A 
DOCKED: ATOM      4  C   UNL     1      21.392  -8.559  -1.442 -0.46 -0.00    +0.000 A 
DOCKED: ATOM      5  C   UNL     1      21.054  -9.296  -2.587 -0.46 -0.00    +0.000 A 
DOCKED: ATOM      6  C   UNL     1      21.417  -8.840  -3.863 -0.35 -0.00    +0.000 A 
DOCKED: ATOM      7  C   UNL     1      21.071  -9.579  -5.006 -0.31 -0.00    +0.000 A 
DOCKED: ATOM      8  C   UNL     1      20.363 -10.783  -4.864 -0.41 -0.00    +0.000 A 
DOCKED: ATOM      9  C   UNL     1      19.997 -11.244  -3.597 -0.38 -0.00    +0.000 A 
DOCKED: ATOM     10  C   UNL     1      20.338 -10.509  -2.452 -0.46 -0.00    +0.000 A 
DOCKED: ATOM     11  C   UNL     1      19.975 -10.965  -1.176 -0.37 -0.00    +0.000 A 
DOCKED: BRANCH   7  12
DOCKED: ATOM     12  C   UNL     1      21.473  -9.106  -6.378 -0.24 -0.00    +0.000 C 
DOCKED: BRANCH  12  13
DOCKED: ATOM     13  N   UNL     1      22.931  -9.269  -6.566 -0.26 -0.00    +0.000 N 
DOCKED: ATOM     14  H   UNL     1      23.323  -9.634  -5.698 -0.02 -0.00    +0.000 HD
DOCKED: BRANCH  13  15
DOCKED: ATOM     15  C   UNL     1      23.598  -7.964  -6.787 -0.15 -0.00    +0.000 C 
DOCKED: ATOM     16  C   UNL     1      24.959  -8.127  -7.461 -0.21 -0.00    +0.000 C 
DOCKED: ENDBRANCH  13  15
DOCKED: BRANCH  13  17
DOCKED: ATOM     17  C   UNL     1      23.251 -10.296  -7.589 -0.32 -0.00    +0.000 C 
DOCKED: ATOM     18  C   UNL     1      22.887 -11.731  -7.178 -0.49 -0.00    +0.000 C 
DOCKED: ENDBRANCH  13  17
DOCKED: ENDBRANCH  12  13
DOCKED: ENDBRANCH   7  12
DOCKED: ENDBRANCH   1   2
DOCKED: BRANCH   1  19
DOCKED: ATOM     19  O   UNL     1      19.337 -12.003   1.217 -1.28 -0.00    +0.000 OA
DOCKED: BRANCH  19  21
DOCKED: ATOM     20  O   UNL     1      17.568 -13.363   0.627 -0.75 +0.00    +0.000 OA
DOCKED: ATOM     21  C   UNL     1      17.981 -12.215   0.953 -0.56 -0.00    +0.000 C 
DOCKED: ATOM     22  N   UNL     1      17.077 -11.105   1.016 -0.37 +0.00    +0.000 N 
DOCKED: ATOM     23  H   UNL     1      17.462 -10.204   1.118 -0.01 -0.00    +0.000 HD
DOCKED: BRANCH  22  24
DOCKED: ATOM     24  C   UNL     1      15.646 -11.218   0.941 -0.34 +0.00    +0.000 A 
DOCKED: ATOM     25  C   UNL     1      14.916 -11.489   2.107 -0.43 +0.00    +0.000 A 
DOCKED: ATOM     26  C   UNL     1      13.526 -11.625   2.058 -0.38 +0.00    +0.000 A 
DOCKED: ATOM     27  C   UNL     1      12.837 -11.502   0.839 -0.38 +0.00    +0.000 A 
DOCKED: ATOM     28  C   UNL     1      13.574 -11.265  -0.335 -0.32 +0.00    +0.000 A 
DOCKED: ATOM     29  C   UNL     1      14.965 -11.128  -0.286 -0.30 +0.00    +0.000 A 
DOCKED: BRANCH  27  30
DOCKED: ATOM     30  C   UNL     1      11.362 -11.653   0.802 -0.42 +0.00    +0.000 C 
DOCKED: ATOM     31  N   UNL     1      10.669 -12.453   1.768 -0.45 +0.00    +0.000 N 
DOCKED: ATOM     32  O   UNL     1      10.701 -11.079  -0.105 -0.31 +0.00    +0.000 OA
DOCKED: ATOM     33  H   UNL     1      11.178 -12.975   2.429 -0.42 +0.00    +0.000 HD
DOCKED: BRANCH  31  34
DOCKED: ATOM     34  O   UNL     1       9.315 -12.495   1.775 -0.50 +0.00    +0.000 OA
DOCKED: ATOM     35  H   UNL     1       9.008 -13.154   1.133 -0.63 -0.00    +0.000 HD
DOCKED: ENDBRANCH  31  34
DOCKED: ENDBRANCH  27  30
DOCKED: ENDBRANCH  22  24
DOCKED: ENDBRANCH  19  21
DOCKED: ENDBRANCH   1  19
DOCKED: TORSDOF 10
DOCKED: TER
DOCKED: ENDMDL
________________________________________________________________________________


	BEGINNING GENETIC ALGORITHM DOCKING 7 of 100
Run: 7 Seed: 934013009 518537357 [ Run 7 of 100 GA/GALS ]
Beginning LAMARCKIAN GENETIC ALGORITHM (LGA), with a maximum of 2500000 energy evaluations.

Final-Value: -14.964


	FINAL GENETIC ALGORITHM DOCKED STATE
	_______________________________________________


Detailed state:  trans 21.235 -6.600 -3.739 quatxyzw 0.719366 -0.562693 -0.400495 0.074121 center 1.858 0.218 -0.021 ntor 10 153.0887 -124.2160 55.6472 -38.2103 179.7074 117.6299 64.6076 7.0903 -42.4669 -141.1284
State:	 21.235  -6.600  -3.739   0.721 -0.564 -0.402 171.499    153.09 -124.22   55.65  -38.21  179.71  117.63   64.61    7.09  -42.47 -141.13

DOCKED: MODEL        7
DOCKED: USER    Run = 7
DOCKED: USER    DPF = ligand_dock.biased.dpf
DOCKED: USER  
DOCKED: USER    Estimated Free Energy of Binding    =  -10.31 kcal/mol  [=(1)+(2)+(3)-(4)]
DOCKED: USER    Estimated Inhibition Constant, Ki   =   27.56 nM (nanomolar)  [Temperature = 298.15 K]
DOCKED: USER    
DOCKED: USER    (1) Final Intermolecular Energy     =  -13.30 kcal/mol
DOCKED: USER        vdW + Hbond + desolv Energy     =  -13.30 kcal/mol
DOCKED: USER        Electrostatic Energy            =   +0.00 kcal/mol
DOCKED: USER    (2) Final Total Internal Energy     =   -1.67 kcal/mol
DOCKED: USER    (3) Torsional Free Energy           =   +2.98 kcal/mol
DOCKED: USER    (4) Unbound System's Energy  [=(2)] =   -1.67 kcal/mol
DOCKED: USER    
DOCKED: USER    
DOCKED: USER    NEWDPF move ligand.pdbqt
DOCKED: USER    NEWDPF about 1.858000 0.218000 -0.021000
DOCKED: USER    NEWDPF tran0 21.234743 -6.600148 -3.739063
DOCKED: USER    NEWDPF quaternion0 0.719366 -0.562693 -0.400495 0.074121
DOCKED: USER    NEWDPF axisangle0 0.721350 -0.564245 -0.401599 171.498585
DOCKED: USER    NEWDPF quat0 0.721350 -0.564245 -0.401599 171.498585
DOCKED: USER    NEWDPF dihe0 153.09 -124.22 55.65 -38.21 179.71 117.63 64.61 7.09 -42.47 -141.13 
DOCKED: USER  keepresnum = 1 
DOCKED: USER  
DOCKED: REMARK  Name = 
DOCKED: REMARK  12 active torsions:
DOCKED: REMARK  status: ('A' for Active; 'I' for Inactive)
DOCKED: REMARK    1  A    between atoms: C_2  and  O_3
DOCKED: REMARK    2  A    between atoms: O_3  and  C_4
DOCKED: REMARK    3  A    between atoms: C_4  and  C_5
DOCKED: REMARK    4  A    between atoms: C_10  and  C_11
DOCKED: REMARK    5  A    between atoms: C_11  and  N_12
DOCKED: REMARK    6  A    between atoms: N_12  and  C_13
DOCKED: REMARK    7  A    between atoms: N_12  and  C_15
DOCKED: REMARK    8  A    between atoms: C_13  and  C_14
DOCKED: REMARK    9  A    between atoms: C_15  and  C_16
DOCKED: REMARK   10  A    between atoms: N_21  and  C_22
DOCKED: REMARK   11  A    between atoms: C_25  and  C_26
DOCKED: REMARK   12  A    between atoms: N_27  and  O_28
DOCKED: REMARK                            x       y       z     vdW  Elec       q    Type
DOCKED: REMARK                         _______ _______ _______ _____ _____    ______ ____
DOCKED: USER                              x       y       z     vdW  Elec       q    Type
DOCKED: USER                           _______ _______ _______ _____ _____    ______ ____
DOCKED: ROOT
DOCKED: ATOM      1  C   UNL     1      21.060  -5.412  -4.864 -0.15 -0.00    +0.000 C 
DOCKED: ENDROOT
DOCKED: BRANCH   1   2
DOCKED: ATOM      2  C   UNL     1      21.346  -4.613  -3.627 -0.18 -0.00    +0.000 A 
DOCKED: ATOM      3  C   UNL     1      22.529  -4.829  -2.904 -0.26 -0.00    +0.000 A 
DOCKED: ATOM      4  C   UNL     1      22.784  -4.113  -1.732 -0.27 +0.00    +0.000 A 
DOCKED: ATOM      5  C   UNL     1      21.851  -3.179  -1.258 -0.30 +0.00    +0.000 A 
DOCKED: ATOM      6  C   UNL     1      22.098  -2.457  -0.081 -0.30 +0.00    +0.000 A 
DOCKED: ATOM      7  C   UNL     1      21.158  -1.527   0.391 -0.30 -0.00    +0.000 A 
DOCKED: ATOM      8  C   UNL     1      19.968  -1.321  -0.324 -0.16 -0.00    +0.000 A 
DOCKED: ATOM      9  C   UNL     1      19.714  -2.037  -1.496 -0.15 -0.00    +0.000 A 
DOCKED: ATOM     10  C   UNL     1      20.648  -2.967  -1.972 -0.20 -0.00    +0.000 A 
DOCKED: ATOM     11  C   UNL     1      20.401  -3.691  -3.149 -0.16 -0.00    +0.000 A 
DOCKED: BRANCH   7  12
DOCKED: ATOM     12  C   UNL     1      21.424  -0.733   1.644 -0.38 -0.00    +0.000 C 
DOCKED: BRANCH  12  13
DOCKED: ATOM     13  N   UNL     1      20.254  -0.798   2.545 -0.45 -0.00    +0.000 N 
DOCKED: ATOM     14  H   UNL     1      19.521  -1.328   2.075 -0.00 -0.00    +0.000 HD
DOCKED: BRANCH  13  15
DOCKED: ATOM     15  C   UNL     1      19.681   0.547   2.787 -0.28 -0.00    +0.000 C 
DOCKED: ATOM     16  C   UNL     1      20.769   1.604   2.977 -0.37 -0.00    +0.000 C 
DOCKED: ENDBRANCH  13  15
DOCKED: BRANCH  13  17
DOCKED: ATOM     17  C   UNL     1      20.544  -1.566   3.782 -0.73 -0.00    +0.000 C 
DOCKED: ATOM     18  C   UNL     1      21.015  -3.007   3.535 -0.50 -0.00    +0.000 C 
DOCKED: ENDBRANCH  13  17
DOCKED: ENDBRANCH  12  13
DOCKED: ENDBRANCH   7  12
DOCKED: ENDBRANCH   1   2
DOCKED: BRANCH   1  19
DOCKED: ATOM     19  O   UNL     1      21.294  -6.791  -4.596 -0.23 -0.00    +0.000 OA
DOCKED: BRANCH  19  21
DOCKED: ATOM     20  O   UNL     1      20.315  -6.742  -2.507 -0.26 -0.00    +0.000 OA
DOCKED: ATOM     21  C   UNL     1      20.953  -7.392  -3.381 -0.37 -0.00    +0.000 C 
DOCKED: ATOM     22  N   UNL     1      21.376  -8.737  -3.126 -0.42 -0.00    +0.000 N 
DOCKED: ATOM     23  H   UNL     1      22.003  -9.151  -3.763 -0.04 -0.00    +0.000 HD
DOCKED: BRANCH  22  24
DOCKED: ATOM     24  C   UNL     1      20.946  -9.524  -2.002 -0.51 -0.00    +0.000 A 
DOCKED: ATOM     25  C   UNL     1      21.591  -9.369  -0.767 -0.43 -0.00    +0.000 A 
DOCKED: ATOM     26  C   UNL     1      21.208 -10.137   0.336 -0.57 -0.00    +0.000 A 
DOCKED: ATOM     27  C   UNL     1      20.175 -11.083   0.224 -0.57 -0.00    +0.000 A 
DOCKED: ATOM     28  C   UNL     1      19.552 -11.263  -1.025 -0.35 -0.00    +0.000 A 
DOCKED: ATOM     29  C   UNL     1      19.937 -10.494  -2.128 -0.43 -0.00    +0.000 A 
DOCKED: BRANCH  27  30
DOCKED: ATOM     30  C   UNL     1      19.781 -11.894   1.402 -0.73 -0.00    +0.000 C 
DOCKED: ATOM     31  N   UNL     1      20.684 -12.115   2.492 -0.69 -0.00    +0.000 N 
DOCKED: ATOM     32  O   UNL     1      18.633 -12.414   1.443 -0.95 -0.00    +0.000 OA
DOCKED: ATOM     33  H   UNL     1      21.611 -11.788   2.435 -0.29 -0.00    +0.000 HD
DOCKED: BRANCH  31  34
DOCKED: ATOM     34  O   UNL     1      20.269 -12.773   3.601 -0.85 -0.00    +0.000 OA
DOCKED: ATOM     35  H   UNL     1      19.913 -13.639   3.349 -0.48 -0.00    +0.000 HD
DOCKED: ENDBRANCH  31  34
DOCKED: ENDBRANCH  27  30
DOCKED: ENDBRANCH  22  24
DOCKED: ENDBRANCH  19  21
DOCKED: ENDBRANCH   1  19
DOCKED: TORSDOF 10
DOCKED: TER
DOCKED: ENDMDL
________________________________________________________________________________


	BEGINNING GENETIC ALGORITHM DOCKING 8 of 100
Run: 8 Seed: 951227081 1200474596 [ Run 8 of 100 GA/GALS ]
Beginning LAMARCKIAN GENETIC ALGORITHM (LGA), with a maximum of 2500000 energy evaluations.

Final-Value: -14.086


	FINAL GENETIC ALGORITHM DOCKED STATE
	_______________________________________________


Detailed state:  trans 20.060 -7.753 -6.034 quatxyzw 0.190289 0.641214 0.738751 -0.082954 center 1.858 0.218 -0.021 ntor 10 -147.9470 -167.7551 -29.6046 168.0598 13.6780 162.5873 39.7716 138.2236 90.2968 -96.8360
State:	 20.060  -7.753  -6.034   0.191  0.643  0.741 -170.483   -147.95 -167.76  -29.60  168.06   13.68  162.59   39.77  138.22   90.30  -96.84

DOCKED: MODEL        8
DOCKED: USER    Run = 8
DOCKED: USER    DPF = ligand_dock.biased.dpf
DOCKED: USER  
DOCKED: USER    Estimated Free Energy of Binding    =   -8.95 kcal/mol  [=(1)+(2)+(3)-(4)]
DOCKED: USER    Estimated Inhibition Constant, Ki   =  275.97 nM (nanomolar)  [Temperature = 298.15 K]
DOCKED: USER    
DOCKED: USER    (1) Final Intermolecular Energy     =  -11.93 kcal/mol
DOCKED: USER        vdW + Hbond + desolv Energy     =  -11.93 kcal/mol
DOCKED: USER        Electrostatic Energy            =   +0.00 kcal/mol
DOCKED: USER    (2) Final Total Internal Energy     =   -2.15 kcal/mol
DOCKED: USER    (3) Torsional Free Energy           =   +2.98 kcal/mol
DOCKED: USER    (4) Unbound System's Energy  [=(2)] =   -2.15 kcal/mol
DOCKED: USER    
DOCKED: USER    
DOCKED: USER    NEWDPF move ligand.pdbqt
DOCKED: USER    NEWDPF about 1.858000 0.218000 -0.021000
DOCKED: USER    NEWDPF tran0 20.060002 -7.753053 -6.034082
DOCKED: USER    NEWDPF quaternion0 0.190289 0.641214 0.738751 -0.082954
DOCKED: USER    NEWDPF axisangle0 0.190947 0.643432 0.741306 -170.483270
DOCKED: USER    NEWDPF quat0 0.190947 0.643432 0.741306 -170.483270
DOCKED: USER    NEWDPF dihe0 -147.95 -167.76 -29.60 168.06 13.68 162.59 39.77 138.22 90.30 -96.84 
DOCKED: USER  keepresnum = 1 
DOCKED: USER  
DOCKED: REMARK  Name = 
DOCKED: REMARK  12 active torsions:
DOCKED: REMARK  status: ('A' for Active; 'I' for Inactive)
DOCKED: REMARK    1  A    between atoms: C_2  and  O_3
DOCKED: REMARK    2  A    between atoms: O_3  and  C_4
DOCKED: REMARK    3  A    between atoms: C_4  and  C_5
DOCKED: REMARK    4  A    between atoms: C_10  and  C_11
DOCKED: REMARK    5  A    between atoms: C_11  and  N_12
DOCKED: REMARK    6  A    between atoms: N_12  and  C_13
DOCKED: REMARK    7  A    between atoms: N_12  and  C_15
DOCKED: REMARK    8  A    between atoms: C_13  and  C_14
DOCKED: REMARK    9  A    between atoms: C_15  and  C_16
DOCKED: REMARK   10  A    between atoms: N_21  and  C_22
DOCKED: REMARK   11  A    between atoms: C_25  and  C_26
DOCKED: REMARK   12  A    between atoms: N_27  and  O_28
DOCKED: REMARK                            x       y       z     vdW  Elec       q    Type
DOCKED: REMARK                         _______ _______ _______ _____ _____    ______ ____
DOCKED: USER                              x       y       z     vdW  Elec       q    Type
DOCKED: USER                           _______ _______ _______ _____ _____    ______ ____
DOCKED: ROOT
DOCKED: ATOM      1  C   UNL     1      20.705  -6.329  -6.548 -0.07 -0.00    +0.000 C 
DOCKED: ENDROOT
DOCKED: BRANCH   1   2
DOCKED: ATOM      2  C   UNL     1      21.772  -7.304  -6.953 -0.09 -0.00    +0.000 A 
DOCKED: ATOM      3  C   UNL     1      23.021  -6.841  -7.393 -0.09 -0.00    +0.000 A 
DOCKED: ATOM      4  C   UNL     1      24.006  -7.742  -7.805 -0.12 -0.00    +0.000 A 
DOCKED: ATOM      5  C   UNL     1      23.748  -9.121  -7.796 -0.19 -0.00    +0.000 A 
DOCKED: ATOM      6  C   UNL     1      24.732 -10.033  -8.209 -0.26 -0.00    +0.000 A 
DOCKED: ATOM      7  C   UNL     1      24.467 -11.412  -8.202 -0.39 -0.00    +0.000 A 
DOCKED: ATOM      8  C   UNL     1      23.212 -11.875  -7.775 -0.43 -0.00    +0.000 A 
DOCKED: ATOM      9  C   UNL     1      22.228 -10.973  -7.363 -0.32 -0.00    +0.000 A 
DOCKED: ATOM     10  C   UNL     1      22.486  -9.595  -7.368 -0.22 -0.00    +0.000 A 
DOCKED: ATOM     11  C   UNL     1      21.503  -8.682  -6.956 -0.14 -0.00    +0.000 A 
DOCKED: BRANCH   7  12
DOCKED: ATOM     12  C   UNL     1      25.523 -12.400  -8.626 -0.24 -0.00    +0.000 C 
DOCKED: BRANCH  12  13
DOCKED: ATOM     13  N   UNL     1      25.488 -12.582 -10.093 -0.28 -0.00    +0.000 N 
DOCKED: ATOM     14  H   UNL     1      25.903 -13.488 -10.309 -0.59 -0.00    +0.000 HD
DOCKED: BRANCH  13  15
DOCKED: ATOM     15  C   UNL     1      26.334 -11.580 -10.783 -0.17 -0.00    +0.000 C 
DOCKED: ATOM     16  C   UNL     1      27.342 -10.933  -9.834 -0.27 -0.00    +0.000 C 
DOCKED: ENDBRANCH  13  15
DOCKED: BRANCH  13  17
DOCKED: ATOM     17  C   UNL     1      24.100 -12.666 -10.612 -0.28 -0.00    +0.000 C 
DOCKED: ATOM     18  C   UNL     1      23.623 -14.095 -10.911 -0.40 -0.00    +0.000 C 
DOCKED: ENDBRANCH  13  17
DOCKED: ENDBRANCH  12  13
DOCKED: ENDBRANCH   7  12
DOCKED: ENDBRANCH   1   2
DOCKED: BRANCH   1  19
DOCKED: ATOM     19  O   UNL     1      19.546  -7.047  -6.136 -0.09 -0.00    +0.000 OA
DOCKED: BRANCH  19  21
DOCKED: ATOM     20  O   UNL     1      18.298  -7.455  -4.239 -0.13 -0.00    +0.000 OA
DOCKED: ATOM     21  C   UNL     1      19.398  -7.566  -4.847 -0.18 -0.00    +0.000 C 
DOCKED: ATOM     22  N   UNL     1      20.524  -8.186  -4.212 -0.26 -0.00    +0.000 N 
DOCKED: ATOM     23  H   UNL     1      21.400  -8.111  -4.655 -0.01 -0.00    +0.000 HD
DOCKED: BRANCH  22  24
DOCKED: ATOM     24  C   UNL     1      20.459  -8.910  -2.972 -0.36 -0.00    +0.000 A 
DOCKED: ATOM     25  C   UNL     1      21.006  -8.340  -1.814 -0.43 -0.00    +0.000 A 
DOCKED: ATOM     26  C   UNL     1      20.976  -9.031  -0.600 -0.48 -0.00    +0.000 A 
DOCKED: ATOM     27  C   UNL     1      20.405 -10.313  -0.520 -0.56 -0.00    +0.000 A 
DOCKED: ATOM     28  C   UNL     1      19.888 -10.898  -1.690 -0.38 -0.00    +0.000 A 
DOCKED: ATOM     29  C   UNL     1      19.918 -10.206  -2.905 -0.40 -0.00    +0.000 A 
DOCKED: BRANCH  27  30
DOCKED: ATOM     30  C   UNL     1      20.384 -11.036   0.774 -0.70 -0.00    +0.000 C 
DOCKED: ATOM     31  N   UNL     1      19.648 -12.254   0.938 -0.61 -0.00    +0.000 N 
DOCKED: ATOM     32  O   UNL     1      21.016 -10.565   1.759 -0.72 -0.00    +0.000 OA
DOCKED: ATOM     33  H   UNL     1      19.082 -12.587   0.204 -0.25 -0.00    +0.000 HD
DOCKED: BRANCH  31  34
DOCKED: ATOM     34  O   UNL     1      19.726 -12.949   2.098 -1.26 -0.00    +0.000 OA
DOCKED: ATOM     35  H   UNL     1      20.594 -12.805   2.503 -0.56 -0.00    +0.000 HD
DOCKED: ENDBRANCH  31  34
DOCKED: ENDBRANCH  27  30
DOCKED: ENDBRANCH  22  24
DOCKED: ENDBRANCH  19  21
DOCKED: ENDBRANCH   1  19
DOCKED: TORSDOF 10
DOCKED: TER
DOCKED: ENDMDL
________________________________________________________________________________


	BEGINNING GENETIC ALGORITHM DOCKING 9 of 100
Run: 9 Seed: 91399061 1692674679 [ Run 9 of 100 GA/GALS ]
Beginning LAMARCKIAN GENETIC ALGORITHM (LGA), with a maximum of 2500000 energy evaluations.

Final-Value: -14.761


	FINAL GENETIC ALGORITHM DOCKED STATE
	_______________________________________________


Detailed state:  trans 20.969 -9.556 0.065 quatxyzw 0.411303 0.439934 -0.126740 -0.788179 center 1.858 0.218 -0.021 ntor 10 -56.5225 132.6494 3.4935 -163.9341 122.6942 -11.4702 43.2525 -159.7496 139.6832 87.4230
State:	 20.969  -9.556   0.065   0.668  0.715 -0.206 -75.969    -56.52  132.65    3.49 -163.93  122.69  -11.47   43.25 -159.75  139.68   87.42

DOCKED: MODEL        9
DOCKED: USER    Run = 9
DOCKED: USER    DPF = ligand_dock.biased.dpf
DOCKED: USER  
DOCKED: USER    Estimated Free Energy of Binding    =   -9.62 kcal/mol  [=(1)+(2)+(3)-(4)]
DOCKED: USER    Estimated Inhibition Constant, Ki   =   88.89 nM (nanomolar)  [Temperature = 298.15 K]
DOCKED: USER    
DOCKED: USER    (1) Final Intermolecular Energy     =  -12.60 kcal/mol
DOCKED: USER        vdW + Hbond + desolv Energy     =  -12.60 kcal/mol
DOCKED: USER        Electrostatic Energy            =   +0.00 kcal/mol
DOCKED: USER    (2) Final Total Internal Energy     =   -2.16 kcal/mol
DOCKED: USER    (3) Torsional Free Energy           =   +2.98 kcal/mol
DOCKED: USER    (4) Unbound System's Energy  [=(2)] =   -2.16 kcal/mol
DOCKED: USER    
DOCKED: USER    
DOCKED: USER    NEWDPF move ligand.pdbqt
DOCKED: USER    NEWDPF about 1.858000 0.218000 -0.021000
DOCKED: USER    NEWDPF tran0 20.968918 -9.556110 0.064924
DOCKED: USER    NEWDPF quaternion0 0.411303 0.439934 -0.126740 -0.788179
DOCKED: USER    NEWDPF axisangle0 0.668300 0.714820 -0.205931 -75.968741
DOCKED: USER    NEWDPF quat0 0.668300 0.714820 -0.205931 -75.968741
DOCKED: USER    NEWDPF dihe0 -56.52 132.65 3.49 -163.93 122.69 -11.47 43.25 -159.75 139.68 87.42 
DOCKED: USER  keepresnum = 1 
DOCKED: USER  
DOCKED: REMARK  Name = 
DOCKED: REMARK  12 active torsions:
DOCKED: REMARK  status: ('A' for Active; 'I' for Inactive)
DOCKED: REMARK    1  A    between atoms: C_2  and  O_3
DOCKED: REMARK    2  A    between atoms: O_3  and  C_4
DOCKED: REMARK    3  A    between atoms: C_4  and  C_5
DOCKED: REMARK    4  A    between atoms: C_10  and  C_11
DOCKED: REMARK    5  A    between atoms: C_11  and  N_12
DOCKED: REMARK    6  A    between atoms: N_12  and  C_13
DOCKED: REMARK    7  A    between atoms: N_12  and  C_15
DOCKED: REMARK    8  A    between atoms: C_13  and  C_14
DOCKED: REMARK    9  A    between atoms: C_15  and  C_16
DOCKED: REMARK   10  A    between atoms: N_21  and  C_22
DOCKED: REMARK   11  A    between atoms: C_25  and  C_26
DOCKED: REMARK   12  A    between atoms: N_27  and  O_28
DOCKED: REMARK                            x       y       z     vdW  Elec       q    Type
DOCKED: REMARK                         _______ _______ _______ _____ _____    ______ ____
DOCKED: USER                              x       y       z     vdW  Elec       q    Type
DOCKED: USER                           _______ _______ _______ _____ _____    ______ ____
DOCKED: ROOT
DOCKED: ATOM      1  C   UNL     1      21.392 -11.136   0.249 -0.45 -0.00    +0.000 C 
DOCKED: ENDROOT
DOCKED: BRANCH   1   2
DOCKED: ATOM      2  C   UNL     1      20.209 -11.034   1.167 -0.63 -0.00    +0.000 A 
DOCKED: ATOM      3  C   UNL     1      20.352 -11.312   2.535 -0.67 -0.00    +0.000 A 
DOCKED: ATOM      4  C   UNL     1      19.248 -11.253   3.389 -0.55 -0.00    +0.000 A 
DOCKED: ATOM      5  C   UNL     1      17.981 -10.929   2.882 -0.45 -0.00    +0.000 A 
DOCKED: ATOM      6  C   UNL     1      16.866 -10.870   3.733 -0.30 +0.00    +0.000 A 
DOCKED: ATOM      7  C   UNL     1      15.598 -10.550   3.219 -0.43 +0.00    +0.000 A 
DOCKED: ATOM      8  C   UNL     1      15.453 -10.285   1.848 -0.31 +0.00    +0.000 A 
DOCKED: ATOM      9  C   UNL     1      16.558 -10.344   0.995 -0.29 +0.00    +0.000 A 
DOCKED: ATOM     10  C   UNL     1      17.825 -10.664   1.501 -0.40 -0.00    +0.000 A 
DOCKED: ATOM     11  C   UNL     1      18.941 -10.724   0.652 -0.45 -0.00    +0.000 A 
DOCKED: BRANCH   7  12
DOCKED: ATOM     12  C   UNL     1      14.400 -10.465   4.127 -0.34 +0.00    +0.000 C 
DOCKED: BRANCH  12  13
DOCKED: ATOM     13  N   UNL     1      14.110  -9.053   4.456 -0.36 +0.00    +0.000 N 
DOCKED: ATOM     14  H   UNL     1      14.030  -8.973   5.469 -0.02 +0.00    +0.000 HD
DOCKED: BRANCH  13  15
DOCKED: ATOM     15  C   UNL     1      12.795  -8.631   3.917 -0.26 +0.00    +0.000 C 
DOCKED: ATOM     16  C   UNL     1      11.766  -8.417   5.026 -0.30 +0.00    +0.000 C 
DOCKED: ENDBRANCH  13  15
DOCKED: BRANCH  13  17
DOCKED: ATOM     17  C   UNL     1      15.233  -8.153   4.092 -0.39 +0.00    +0.000 C 
DOCKED: ATOM     18  C   UNL     1      15.211  -6.795   4.808 -0.47 +0.00    +0.000 C 
DOCKED: ENDBRANCH  13  17
DOCKED: ENDBRANCH  12  13
DOCKED: ENDBRANCH   7  12
DOCKED: ENDBRANCH   1   2
DOCKED: BRANCH   1  19
DOCKED: ATOM     19  O   UNL     1      21.483  -9.948  -0.532 -0.75 -0.00    +0.000 OA
DOCKED: BRANCH  19  21
DOCKED: ATOM     20  O   UNL     1      21.283  -8.930  -2.593 -0.52 -0.00    +0.000 OA
DOCKED: ATOM     21  C   UNL     1      20.894  -9.826  -1.793 -0.60 -0.00    +0.000 C 
DOCKED: ATOM     22  N   UNL     1      19.817 -10.703  -2.146 -0.43 -0.00    +0.000 N 
DOCKED: ATOM     23  H   UNL     1      19.442 -11.279  -1.441 -0.02 -0.00    +0.000 HD
DOCKED: BRANCH  22  24
DOCKED: ATOM     24  C   UNL     1      19.248 -10.800  -3.463 -0.36 -0.00    +0.000 A 
DOCKED: ATOM     25  C   UNL     1      18.003 -10.209  -3.718 -0.25 -0.00    +0.000 A 
DOCKED: ATOM     26  C   UNL     1      17.417 -10.306  -4.983 -0.23 -0.00    +0.000 A 
DOCKED: ATOM     27  C   UNL     1      18.061 -11.005  -6.018 -0.32 -0.00    +0.000 A 
DOCKED: ATOM     28  C   UNL     1      19.293 -11.628  -5.751 -0.31 -0.00    +0.000 A 
DOCKED: ATOM     29  C   UNL     1      19.879 -11.529  -4.485 -0.45 -0.00    +0.000 A 
DOCKED: BRANCH  27  30
DOCKED: ATOM     30  C   UNL     1      17.425 -11.104  -7.355 -0.35 -0.00    +0.000 C 
DOCKED: ATOM     31  N   UNL     1      16.384 -12.052  -7.619 -0.38 -0.00    +0.000 N 
DOCKED: ATOM     32  O   UNL     1      17.815 -10.348  -8.286 -0.23 -0.00    +0.000 OA
DOCKED: ATOM     33  H   UNL     1      16.129 -12.705  -6.927 -0.04 +0.00    +0.000 HD
DOCKED: BRANCH  31  34
DOCKED: ATOM     34  O   UNL     1      15.749 -12.055  -8.816 -0.26 +0.00    +0.000 OA
DOCKED: ATOM     35  H   UNL     1      16.153 -11.392  -9.397 -0.01 -0.00    +0.000 HD
DOCKED: ENDBRANCH  31  34
DOCKED: ENDBRANCH  27  30
DOCKED: ENDBRANCH  22  24
DOCKED: ENDBRANCH  19  21
DOCKED: ENDBRANCH   1  19
DOCKED: TORSDOF 10
DOCKED: TER
DOCKED: ENDMDL
________________________________________________________________________________


	BEGINNING GENETIC ALGORITHM DOCKING 10 of 100
Run: 10 Seed: 1314594976 1050861000 [ Run 10 of 100 GA/GALS ]
Beginning LAMARCKIAN GENETIC ALGORITHM (LGA), with a maximum of 2500000 energy evaluations.

Final-Value: -16.415


	FINAL GENETIC ALGORITHM DOCKED STATE
	_______________________________________________


Detailed state:  trans 13.079 -7.073 4.753 quatxyzw 0.137697 -0.316521 -0.885136 -0.312071 center 1.858 0.218 -0.021 ntor 10 162.9920 104.1570 -38.0506 -28.9028 11.3294 -41.8343 -88.0635 66.4689 -180.0000 -147.6951
State:	 13.079  -7.073   4.753   0.145 -0.333 -0.932 -143.632    162.99  104.16  -38.05  -28.90   11.33  -41.83  -88.06   66.47 -180.00 -147.70

DOCKED: MODEL       10
DOCKED: USER    Run = 10
DOCKED: USER    DPF = ligand_dock.biased.dpf
DOCKED: USER  
DOCKED: USER    Estimated Free Energy of Binding    =  -11.21 kcal/mol  [=(1)+(2)+(3)-(4)]
DOCKED: USER    Estimated Inhibition Constant, Ki   =    6.11 nM (nanomolar)  [Temperature = 298.15 K]
DOCKED: USER    
DOCKED: USER    (1) Final Intermolecular Energy     =  -14.19 kcal/mol
DOCKED: USER        vdW + Hbond + desolv Energy     =  -14.19 kcal/mol
DOCKED: USER        Electrostatic Energy            =   +0.00 kcal/mol
DOCKED: USER    (2) Final Total Internal Energy     =   -2.23 kcal/mol
DOCKED: USER    (3) Torsional Free Energy           =   +2.98 kcal/mol
DOCKED: USER    (4) Unbound System's Energy  [=(2)] =   -2.23 kcal/mol
DOCKED: USER    
DOCKED: USER    
DOCKED: USER    NEWDPF move ligand.pdbqt
DOCKED: USER    NEWDPF about 1.858000 0.218000 -0.021000
DOCKED: USER    NEWDPF tran0 13.079435 -7.073336 4.753246
DOCKED: USER    NEWDPF quaternion0 0.137697 -0.316521 -0.885136 -0.312071
DOCKED: USER    NEWDPF axisangle0 0.144936 -0.333159 -0.931664 -143.631793
DOCKED: USER    NEWDPF quat0 0.144936 -0.333159 -0.931664 -143.631793
DOCKED: USER    NEWDPF dihe0 162.99 104.16 -38.05 -28.90 11.33 -41.83 -88.06 66.47 -180.00 -147.70 
DOCKED: USER  keepresnum = 1 
DOCKED: USER  
DOCKED: REMARK  Name = 
DOCKED: REMARK  12 active torsions:
DOCKED: REMARK  status: ('A' for Active; 'I' for Inactive)
DOCKED: REMARK    1  A    between atoms: C_2  and  O_3
DOCKED: REMARK    2  A    between atoms: O_3  and  C_4
DOCKED: REMARK    3  A    between atoms: C_4  and  C_5
DOCKED: REMARK    4  A    between atoms: C_10  and  C_11
DOCKED: REMARK    5  A    between atoms: C_11  and  N_12
DOCKED: REMARK    6  A    between atoms: N_12  and  C_13
DOCKED: REMARK    7  A    between atoms: N_12  and  C_15
DOCKED: REMARK    8  A    between atoms: C_13  and  C_14
DOCKED: REMARK    9  A    between atoms: C_15  and  C_16
DOCKED: REMARK   10  A    between atoms: N_21  and  C_22
DOCKED: REMARK   11  A    between atoms: C_25  and  C_26
DOCKED: REMARK   12  A    between atoms: N_27  and  O_28
DOCKED: REMARK                            x       y       z     vdW  Elec       q    Type
DOCKED: REMARK                         _______ _______ _______ _____ _____    ______ ____
DOCKED: USER                              x       y       z     vdW  Elec       q    Type
DOCKED: USER                           _______ _______ _______ _____ _____    ______ ____
DOCKED: ROOT
DOCKED: ATOM      1  C   UNL     1      12.232  -5.863   5.478 -0.26 +0.00    +0.000 C 
DOCKED: ENDROOT
DOCKED: BRANCH   1   2
DOCKED: ATOM      2  C   UNL     1      13.489  -5.149   5.076 -0.31 +0.00    +0.000 A 
DOCKED: ATOM      3  C   UNL     1      14.651  -5.275   5.851 -0.35 +0.00    +0.000 A 
DOCKED: ATOM      4  C   UNL     1      15.815  -4.584   5.502 -0.41 +0.00    +0.000 A 
DOCKED: ATOM      5  C   UNL     1      15.826  -3.745   4.379 -0.44 -0.00    +0.000 A 
DOCKED: ATOM      6  C   UNL     1      16.990  -3.046   4.022 -0.44 -0.00    +0.000 A 
DOCKED: ATOM      7  C   UNL     1      16.994  -2.204   2.898 -0.41 -0.00    +0.000 A 
DOCKED: ATOM      8  C   UNL     1      15.827  -2.066   2.131 -0.29 -0.00    +0.000 A 
DOCKED: ATOM      9  C   UNL     1      14.665  -2.758   2.480 -0.27 -0.00    +0.000 A 
DOCKED: ATOM     10  C   UNL     1      14.653  -3.600   3.601 -0.30 -0.00    +0.000 A 
DOCKED: ATOM     11  C   UNL     1      13.490  -4.298   3.959 -0.23 +0.00    +0.000 A 
DOCKED: BRANCH   7  12
DOCKED: ATOM     12  C   UNL     1      18.244  -1.465   2.497 -0.44 -0.00    +0.000 C 
DOCKED: BRANCH  12  13
DOCKED: ATOM     13  N   UNL     1      19.255  -2.415   1.987 -0.44 -0.00    +0.000 N 
DOCKED: ATOM     14  H   UNL     1      18.824  -3.337   1.932 -0.04 +0.00    +0.000 HD
DOCKED: BRANCH  13  15
DOCKED: ATOM     15  C   UNL     1      20.388  -2.560   2.932 -0.66 -0.00    +0.000 C 
DOCKED: ATOM     16  C   UNL     1      20.641  -1.275   3.720 -0.65 -0.00    +0.000 C 
DOCKED: ENDBRANCH  13  15
DOCKED: BRANCH  13  17
DOCKED: ATOM     17  C   UNL     1      19.662  -2.103   0.594 -0.36 -0.00    +0.000 C 
DOCKED: ATOM     18  C   UNL     1      20.863  -2.917   0.089 -0.44 +0.00    +0.000 C 
DOCKED: ENDBRANCH  13  17
DOCKED: ENDBRANCH  12  13
DOCKED: ENDBRANCH   7  12
DOCKED: ENDBRANCH   1   2
DOCKED: BRANCH   1  19
DOCKED: ATOM     19  O   UNL     1      12.212  -7.153   4.874 -0.26 +0.00    +0.000 OA
DOCKED: BRANCH  19  21
DOCKED: ATOM     20  O   UNL     1      14.081  -8.304   5.582 -0.51 +0.00    +0.000 OA
DOCKED: ATOM     21  C   UNL     1      13.374  -7.887   4.624 -0.32 +0.00    +0.000 C 
DOCKED: ATOM     22  N   UNL     1      13.772  -8.121   3.267 -0.21 +0.00    +0.000 N 
DOCKED: ATOM     23  H   UNL     1      13.282  -7.648   2.556 +0.01 +0.00    +0.000 HD
DOCKED: BRANCH  22  24
DOCKED: ATOM     24  C   UNL     1      14.838  -9.002   2.874 -0.29 +0.00    +0.000 A 
DOCKED: ATOM     25  C   UNL     1      14.576 -10.036   1.964 -0.27 +0.00    +0.000 A 
DOCKED: ATOM     26  C   UNL     1      15.589 -10.919   1.582 -0.34 +0.00    +0.000 A 
DOCKED: ATOM     27  C   UNL     1      16.885 -10.793   2.110 -0.40 +0.00    +0.000 A 
DOCKED: ATOM     28  C   UNL     1      17.138  -9.777   3.050 -0.34 +0.00    +0.000 A 
DOCKED: ATOM     29  C   UNL     1      16.124  -8.893   3.431 -0.31 +0.00    +0.000 A 
DOCKED: BRANCH  27  30
DOCKED: ATOM     30  C   UNL     1      17.949 -11.741   1.698 -0.48 +0.00    +0.000 C 
DOCKED: ATOM     31  N   UNL     1      19.325 -11.505   2.021 -0.59 -0.00    +0.000 N 
DOCKED: ATOM     32  O   UNL     1      17.643 -12.770   1.038 -0.90 +0.00    +0.000 OA
DOCKED: ATOM     33  H   UNL     1      19.589 -10.665   2.461 -0.04 -0.00    +0.000 HD
DOCKED: BRANCH  31  34
DOCKED: ATOM     34  O   UNL     1      20.266 -12.434   1.724 -1.67 -0.00    +0.000 OA
DOCKED: ATOM     35  H   UNL     1      19.904 -13.321   1.877 -0.54 -0.00    +0.000 HD
DOCKED: ENDBRANCH  31  34
DOCKED: ENDBRANCH  27  30
DOCKED: ENDBRANCH  22  24
DOCKED: ENDBRANCH  19  21
DOCKED: ENDBRANCH   1  19
DOCKED: TORSDOF 10
DOCKED: TER
DOCKED: ENDMDL
________________________________________________________________________________


	BEGINNING GENETIC ALGORITHM DOCKING 11 of 100
Run: 11 Seed: 55841420 1682367961 [ Run 11 of 100 GA/GALS ]
Beginning LAMARCKIAN GENETIC ALGORITHM (LGA), with a maximum of 2500000 energy evaluations.

Final-Value: -16.215


	FINAL GENETIC ALGORITHM DOCKED STATE
	_______________________________________________


Detailed state:  trans 19.215 -10.462 2.769 quatxyzw -0.639030 0.199263 -0.654579 0.351370 center 1.858 0.218 -0.021 ntor 10 -108.4638 -177.4132 158.9541 177.2462 127.8130 -174.7604 41.6947 -94.6692 -170.1115 -153.4572
State:	 19.215 -10.462   2.769  -0.683  0.213 -0.699 138.858   -108.46 -177.41  158.95  177.25  127.81 -174.76   41.69  -94.67 -170.11 -153.46

DOCKED: MODEL       11
DOCKED: USER    Run = 11
DOCKED: USER    DPF = ligand_dock.biased.dpf
DOCKED: USER  
DOCKED: USER    Estimated Free Energy of Binding    =  -11.26 kcal/mol  [=(1)+(2)+(3)-(4)]
DOCKED: USER    Estimated Inhibition Constant, Ki   =    5.53 nM (nanomolar)  [Temperature = 298.15 K]
DOCKED: USER    
DOCKED: USER    (1) Final Intermolecular Energy     =  -14.25 kcal/mol
DOCKED: USER        vdW + Hbond + desolv Energy     =  -14.25 kcal/mol
DOCKED: USER        Electrostatic Energy            =   +0.00 kcal/mol
DOCKED: USER    (2) Final Total Internal Energy     =   -1.97 kcal/mol
DOCKED: USER    (3) Torsional Free Energy           =   +2.98 kcal/mol
DOCKED: USER    (4) Unbound System's Energy  [=(2)] =   -1.97 kcal/mol
DOCKED: USER    
DOCKED: USER    
DOCKED: USER    NEWDPF move ligand.pdbqt
DOCKED: USER    NEWDPF about 1.858000 0.218000 -0.021000
DOCKED: USER    NEWDPF tran0 19.215481 -10.462295 2.769223
DOCKED: USER    NEWDPF quaternion0 -0.639030 0.199263 -0.654579 0.351370
DOCKED: USER    NEWDPF axisangle0 -0.682552 0.212834 -0.699160 138.857714
DOCKED: USER    NEWDPF quat0 -0.682552 0.212834 -0.699160 138.857714
DOCKED: USER    NEWDPF dihe0 -108.46 -177.41 158.95 177.25 127.81 -174.76 41.69 -94.67 -170.11 -153.46 
DOCKED: USER  keepresnum = 1 
DOCKED: USER  
DOCKED: REMARK  Name = 
DOCKED: REMARK  12 active torsions:
DOCKED: REMARK  status: ('A' for Active; 'I' for Inactive)
DOCKED: REMARK    1  A    between atoms: C_2  and  O_3
DOCKED: REMARK    2  A    between atoms: O_3  and  C_4
DOCKED: REMARK    3  A    between atoms: C_4  and  C_5
DOCKED: REMARK    4  A    between atoms: C_10  and  C_11
DOCKED: REMARK    5  A    between atoms: C_11  and  N_12
DOCKED: REMARK    6  A    between atoms: N_12  and  C_13
DOCKED: REMARK    7  A    between atoms: N_12  and  C_15
DOCKED: REMARK    8  A    between atoms: C_13  and  C_14
DOCKED: REMARK    9  A    between atoms: C_15  and  C_16
DOCKED: REMARK   10  A    between atoms: N_21  and  C_22
DOCKED: REMARK   11  A    between atoms: C_25  and  C_26
DOCKED: REMARK   12  A    between atoms: N_27  and  O_28
DOCKED: REMARK                            x       y       z     vdW  Elec       q    Type
DOCKED: REMARK                         _______ _______ _______ _____ _____    ______ ____
DOCKED: USER                              x       y       z     vdW  Elec       q    Type
DOCKED: USER                           _______ _______ _______ _____ _____    ______ ____
DOCKED: ROOT
DOCKED: ATOM      1  C   UNL     1      20.721 -11.116   2.648 -0.54 -0.00    +0.000 C 
DOCKED: ENDROOT
DOCKED: BRANCH   1   2
DOCKED: ATOM      2  C   UNL     1      20.344 -10.962   1.203 -0.63 -0.00    +0.000 A 
DOCKED: ATOM      3  C   UNL     1      19.347 -11.774   0.643 -0.56 -0.00    +0.000 A 
DOCKED: ATOM      4  C   UNL     1      19.017 -11.659  -0.710 -0.38 -0.00    +0.000 A 
DOCKED: ATOM      5  C   UNL     1      19.691 -10.739  -1.525 -0.42 -0.00    +0.000 A 
DOCKED: ATOM      6  C   UNL     1      19.367 -10.618  -2.885 -0.38 -0.00    +0.000 A 
DOCKED: ATOM      7  C   UNL     1      20.049  -9.698  -3.698 -0.34 -0.00    +0.000 A 
DOCKED: ATOM      8  C   UNL     1      21.057  -8.895  -3.140 -0.40 -0.00    +0.000 A 
DOCKED: ATOM      9  C   UNL     1      21.386  -9.010  -1.788 -0.48 -0.00    +0.000 A 
DOCKED: ATOM     10  C   UNL     1      20.710  -9.927  -0.971 -0.57 -0.00    +0.000 A 
DOCKED: ATOM     11  C   UNL     1      21.033 -10.049   0.389 -0.58 -0.00    +0.000 A 
DOCKED: BRANCH   7  12
DOCKED: ATOM     12  C   UNL     1      19.695  -9.548  -5.154 -0.26 -0.00    +0.000 C 
DOCKED: BRANCH  12  13
DOCKED: ATOM     13  N   UNL     1      19.970 -10.809  -5.876 -0.34 -0.00    +0.000 N 
DOCKED: ATOM     14  H   UNL     1      20.251 -10.574  -6.828 -0.02 -0.00    +0.000 HD
DOCKED: BRANCH  13  15
DOCKED: ATOM     15  C   UNL     1      18.746 -11.633  -6.012 -0.31 -0.00    +0.000 C 
DOCKED: ATOM     16  C   UNL     1      17.629 -10.881  -6.735 -0.34 -0.00    +0.000 C 
DOCKED: ENDBRANCH  13  15
DOCKED: BRANCH  13  17
DOCKED: ATOM     17  C   UNL     1      21.132 -11.536  -5.307 -0.53 -0.00    +0.000 C 
DOCKED: ATOM     18  C   UNL     1      22.369 -11.559  -6.216 -0.49 -0.00    +0.000 C 
DOCKED: ENDBRANCH  13  17
DOCKED: ENDBRANCH  12  13
DOCKED: ENDBRANCH   7  12
DOCKED: ENDBRANCH   1   2
DOCKED: BRANCH   1  19
DOCKED: ATOM     19  O   UNL     1      19.764 -10.439   3.457 -0.74 -0.00    +0.000 OA
DOCKED: BRANCH  19  21
DOCKED: ATOM     20  O   UNL     1      18.111  -9.138   2.509 -0.33 -0.00    +0.000 OA
DOCKED: ATOM     21  C   UNL     1      18.444 -10.229   3.049 -0.38 -0.00    +0.000 C 
DOCKED: ATOM     22  N   UNL     1      17.469 -11.251   3.291 -0.38 +0.00    +0.000 N 
DOCKED: ATOM     23  H   UNL     1      17.734 -12.016   3.852 +0.13 +0.00    +0.000 HD
DOCKED: BRANCH  22  24
DOCKED: ATOM     24  C   UNL     1      16.129 -11.235   2.769 -0.43 +0.00    +0.000 A 
DOCKED: ATOM     25  C   UNL     1      15.061 -10.943   3.627 -0.45 +0.00    +0.000 A 
DOCKED: ATOM     26  C   UNL     1      13.747 -10.942   3.151 -0.15 +0.00    +0.000 A 
DOCKED: ATOM     27  C   UNL     1      13.474 -11.242   1.805 -0.36 +0.00    +0.000 A 
DOCKED: ATOM     28  C   UNL     1      14.544 -11.570   0.953 -0.38 +0.00    +0.000 A 
DOCKED: ATOM     29  C   UNL     1      15.858 -11.571   1.431 -0.39 +0.00    +0.000 A 
DOCKED: BRANCH  27  30
DOCKED: ATOM     30  C   UNL     1      12.074 -11.242   1.315 -0.40 +0.00    +0.000 C 
DOCKED: ATOM     31  N   UNL     1      11.170 -12.306   1.635 -0.45 +0.00    +0.000 N 
DOCKED: ATOM     32  O   UNL     1      11.671 -10.293   0.588 -0.24 +0.00    +0.000 OA
DOCKED: ATOM     33  H   UNL     1      11.494 -13.093   2.129 -0.60 +0.00    +0.000 HD
DOCKED: BRANCH  31  34
DOCKED: ATOM     34  O   UNL     1       9.869 -12.233   1.261 -0.50 +0.00    +0.000 OA
DOCKED: ATOM     35  H   UNL     1       9.487 -13.124   1.246 -0.63 -0.00    +0.000 HD
DOCKED: ENDBRANCH  31  34
DOCKED: ENDBRANCH  27  30
DOCKED: ENDBRANCH  22  24
DOCKED: ENDBRANCH  19  21
DOCKED: ENDBRANCH   1  19
DOCKED: TORSDOF 10
DOCKED: TER
DOCKED: ENDMDL
________________________________________________________________________________


	BEGINNING GENETIC ALGORITHM DOCKING 12 of 100
Run: 12 Seed: 599165112 351542891 [ Run 12 of 100 GA/GALS ]
Beginning LAMARCKIAN GENETIC ALGORITHM (LGA), with a maximum of 2500000 energy evaluations.

Final-Value: -15.511


	FINAL GENETIC ALGORITHM DOCKED STATE
	_______________________________________________


Detailed state:  trans 16.191 -9.338 3.494 quatxyzw -0.202249 0.669465 -0.459398 0.547600 center 1.858 0.218 -0.021 ntor 10 168.6952 -163.5173 35.1453 -45.9123 107.2907 -54.1961 -165.8368 -17.0466 154.9642 -82.1497
State:	 16.191  -9.338   3.494  -0.242  0.800 -0.549 113.595    168.70 -163.52   35.15  -45.91  107.29  -54.20 -165.84  -17.05  154.96  -82.15

DOCKED: MODEL       12
DOCKED: USER    Run = 12
DOCKED: USER    DPF = ligand_dock.biased.dpf
DOCKED: USER  
DOCKED: USER    Estimated Free Energy of Binding    =  -10.59 kcal/mol  [=(1)+(2)+(3)-(4)]
DOCKED: USER    Estimated Inhibition Constant, Ki   =   17.25 nM (nanomolar)  [Temperature = 298.15 K]
DOCKED: USER    
DOCKED: USER    (1) Final Intermolecular Energy     =  -13.57 kcal/mol
DOCKED: USER        vdW + Hbond + desolv Energy     =  -13.57 kcal/mol
DOCKED: USER        Electrostatic Energy            =   +0.00 kcal/mol
DOCKED: USER    (2) Final Total Internal Energy     =   -1.94 kcal/mol
DOCKED: USER    (3) Torsional Free Energy           =   +2.98 kcal/mol
DOCKED: USER    (4) Unbound System's Energy  [=(2)] =   -1.94 kcal/mol
DOCKED: USER    
DOCKED: USER    
DOCKED: USER    NEWDPF move ligand.pdbqt
DOCKED: USER    NEWDPF about 1.858000 0.218000 -0.021000
DOCKED: USER    NEWDPF tran0 16.190783 -9.337506 3.493870
DOCKED: USER    NEWDPF quaternion0 -0.202249 0.669465 -0.459398 0.547600
DOCKED: USER    NEWDPF axisangle0 -0.241710 0.800087 -0.549033 113.595015
DOCKED: USER    NEWDPF quat0 -0.241710 0.800087 -0.549033 113.595015
DOCKED: USER    NEWDPF dihe0 168.70 -163.52 35.15 -45.91 107.29 -54.20 -165.84 -17.05 154.96 -82.15 
DOCKED: USER  keepresnum = 1 
DOCKED: USER  
DOCKED: REMARK  Name = 
DOCKED: REMARK  12 active torsions:
DOCKED: REMARK  status: ('A' for Active; 'I' for Inactive)
DOCKED: REMARK    1  A    between atoms: C_2  and  O_3
DOCKED: REMARK    2  A    between atoms: O_3  and  C_4
DOCKED: REMARK    3  A    between atoms: C_4  and  C_5
DOCKED: REMARK    4  A    between atoms: C_10  and  C_11
DOCKED: REMARK    5  A    between atoms: C_11  and  N_12
DOCKED: REMARK    6  A    between atoms: N_12  and  C_13
DOCKED: REMARK    7  A    between atoms: N_12  and  C_15
DOCKED: REMARK    8  A    between atoms: C_13  and  C_14
DOCKED: REMARK    9  A    between atoms: C_15  and  C_16
DOCKED: REMARK   10  A    between atoms: N_21  and  C_22
DOCKED: REMARK   11  A    between atoms: C_25  and  C_26
DOCKED: REMARK   12  A    between atoms: N_27  and  O_28
DOCKED: REMARK                            x       y       z     vdW  Elec       q    Type
DOCKED: REMARK                         _______ _______ _______ _____ _____    ______ ____
DOCKED: USER                              x       y       z     vdW  Elec       q    Type
DOCKED: USER                           _______ _______ _______ _____ _____    ______ ____
DOCKED: ROOT
DOCKED: ATOM      1  C   UNL     1      15.929 -10.955   3.641 -0.54 +0.00    +0.000 C 
DOCKED: ENDROOT
DOCKED: BRANCH   1   2
DOCKED: ATOM      2  C   UNL     1      16.744 -10.898   2.383 -0.42 +0.00    +0.000 A 
DOCKED: ATOM      3  C   UNL     1      16.130 -11.079   1.134 -0.35 +0.00    +0.000 A 
DOCKED: ATOM      4  C   UNL     1      16.889 -11.062  -0.038 -0.33 -0.00    +0.000 A 
DOCKED: ATOM      5  C   UNL     1      18.278 -10.877   0.023 -0.38 -0.00    +0.000 A 
DOCKED: ATOM      6  C   UNL     1      19.048 -10.860  -1.150 -0.41 -0.00    +0.000 A 
DOCKED: ATOM      7  C   UNL     1      20.439 -10.679  -1.082 -0.49 -0.00    +0.000 A 
DOCKED: ATOM      8  C   UNL     1      21.056 -10.512   0.167 -0.63 -0.00    +0.000 A 
DOCKED: ATOM      9  C   UNL     1      20.296 -10.529   1.340 -0.59 -0.00    +0.000 A 
DOCKED: ATOM     10  C   UNL     1      18.907 -10.710   1.279 -0.48 -0.00    +0.000 A 
DOCKED: ATOM     11  C   UNL     1      18.136 -10.728   2.451 -0.49 -0.00    +0.000 A 
DOCKED: BRANCH   7  12
DOCKED: ATOM     12  C   UNL     1      21.271 -10.640  -2.337 -0.50 -0.00    +0.000 C 
DOCKED: BRANCH  12  13
DOCKED: ATOM     13  N   UNL     1      20.784  -9.574  -3.238 -0.42 -0.00    +0.000 N 
DOCKED: ATOM     14  H   UNL     1      19.892  -9.238  -2.877 -0.01 -0.00    +0.000 HD
DOCKED: BRANCH  13  15
DOCKED: ATOM     15  C   UNL     1      20.494 -10.100  -4.593 -0.40 -0.00    +0.000 C 
DOCKED: ATOM     16  C   UNL     1      21.305 -11.357  -4.902 -0.54 -0.00    +0.000 C 
DOCKED: ENDBRANCH  13  15
DOCKED: BRANCH  13  17
DOCKED: ATOM     17  C   UNL     1      21.671  -8.384  -3.225 -0.35 -0.00    +0.000 C 
DOCKED: ATOM     18  C   UNL     1      21.208  -7.262  -2.285 -0.46 -0.00    +0.000 C 
DOCKED: ENDBRANCH  13  17
DOCKED: ENDBRANCH  12  13
DOCKED: ENDBRANCH   7  12
DOCKED: ENDBRANCH   1   2
DOCKED: BRANCH   1  19
DOCKED: ATOM     19  O   UNL     1      15.940  -9.676   4.266 -0.34 +0.00    +0.000 OA
DOCKED: BRANCH  19  21
DOCKED: ATOM     20  O   UNL     1      14.086  -8.866   3.158 -0.27 +0.00    +0.000 OA
DOCKED: ATOM     21  C   UNL     1      14.904  -8.752   4.113 -0.40 +0.00    +0.000 C 
DOCKED: ATOM     22  N   UNL     1      14.810  -7.651   5.027 -0.40 +0.00    +0.000 N 
DOCKED: ATOM     23  H   UNL     1      15.554  -7.511   5.656 -0.02 +0.00    +0.000 HD
DOCKED: BRANCH  22  24
DOCKED: ATOM     24  C   UNL     1      13.701  -6.738   5.087 -0.33 +0.00    +0.000 A 
DOCKED: ATOM     25  C   UNL     1      12.393  -7.244   5.083 -0.25 +0.00    +0.000 A 
DOCKED: ATOM     26  C   UNL     1      11.297  -6.377   5.119 -0.21 +0.00    +0.000 A 
DOCKED: ATOM     27  C   UNL     1      11.487  -4.985   5.151 -0.24 +0.00    +0.000 A 
DOCKED: ATOM     28  C   UNL     1      12.798  -4.478   5.118 -0.27 +0.00    +0.000 A 
DOCKED: ATOM     29  C   UNL     1      13.895  -5.346   5.083 -0.34 +0.00    +0.000 A 
DOCKED: BRANCH  27  30
DOCKED: ATOM     30  C   UNL     1      10.314  -4.078   5.184 -0.39 +0.00    +0.000 C 
DOCKED: ATOM     31  N   UNL     1       9.781  -3.501   3.986 -0.28 +0.00    +0.000 N 
DOCKED: ATOM     32  O   UNL     1       9.779  -3.794   6.290 -1.10 +0.00    +0.000 OA
DOCKED: ATOM     33  H   UNL     1      10.239  -3.646   3.126 -0.02 +0.00    +0.000 HD
DOCKED: BRANCH  31  34
DOCKED: ATOM     34  O   UNL     1       8.649  -2.758   4.030 -0.36 +0.00    +0.000 OA
DOCKED: ATOM     35  H   UNL     1       8.623  -2.256   4.859 -0.58 +0.00    +0.000 HD
DOCKED: ENDBRANCH  31  34
DOCKED: ENDBRANCH  27  30
DOCKED: ENDBRANCH  22  24
DOCKED: ENDBRANCH  19  21
DOCKED: ENDBRANCH   1  19
DOCKED: TORSDOF 10
DOCKED: TER
DOCKED: ENDMDL
________________________________________________________________________________


	BEGINNING GENETIC ALGORITHM DOCKING 13 of 100
Run: 13 Seed: 54067064 777667880 [ Run 13 of 100 GA/GALS ]
Beginning LAMARCKIAN GENETIC ALGORITHM (LGA), with a maximum of 2500000 energy evaluations.

Final-Value: -15.325


	FINAL GENETIC ALGORITHM DOCKED STATE
	_______________________________________________


Detailed state:  trans 19.794 -7.438 -4.914 quatxyzw -0.538756 0.766263 -0.012168 -0.349908 center 1.858 0.218 -0.021 ntor 10 80.2825 148.6460 42.6440 -62.0456 -125.6055 -123.4486 -2.3022 142.4557 -123.8897 144.6245
State:	 19.794  -7.438  -4.914  -0.575  0.818 -0.013 -139.037     80.28  148.65   42.64  -62.05 -125.61 -123.45   -2.30  142.46 -123.89  144.62

DOCKED: MODEL       13
DOCKED: USER    Run = 13
DOCKED: USER    DPF = ligand_dock.biased.dpf
DOCKED: USER  
DOCKED: USER    Estimated Free Energy of Binding    =  -10.52 kcal/mol  [=(1)+(2)+(3)-(4)]
DOCKED: USER    Estimated Inhibition Constant, Ki   =   19.59 nM (nanomolar)  [Temperature = 298.15 K]
DOCKED: USER    
DOCKED: USER    (1) Final Intermolecular Energy     =  -13.50 kcal/mol
DOCKED: USER        vdW + Hbond + desolv Energy     =  -13.50 kcal/mol
DOCKED: USER        Electrostatic Energy            =   +0.00 kcal/mol
DOCKED: USER    (2) Final Total Internal Energy     =   -1.83 kcal/mol
DOCKED: USER    (3) Torsional Free Energy           =   +2.98 kcal/mol
DOCKED: USER    (4) Unbound System's Energy  [=(2)] =   -1.83 kcal/mol
DOCKED: USER    
DOCKED: USER    
DOCKED: USER    NEWDPF move ligand.pdbqt
DOCKED: USER    NEWDPF about 1.858000 0.218000 -0.021000
DOCKED: USER    NEWDPF tran0 19.794216 -7.437587 -4.913886
DOCKED: USER    NEWDPF quaternion0 -0.538756 0.766263 -0.012168 -0.349908
DOCKED: USER    NEWDPF axisangle0 -0.575112 0.817972 -0.012989 -139.036592
DOCKED: USER    NEWDPF quat0 -0.575112 0.817972 -0.012989 -139.036592
DOCKED: USER    NEWDPF dihe0 80.28 148.65 42.64 -62.05 -125.61 -123.45 -2.30 142.46 -123.89 144.62 
DOCKED: USER  keepresnum = 1 
DOCKED: USER  
DOCKED: REMARK  Name = 
DOCKED: REMARK  12 active torsions:
DOCKED: REMARK  status: ('A' for Active; 'I' for Inactive)
DOCKED: REMARK    1  A    between atoms: C_2  and  O_3
DOCKED: REMARK    2  A    between atoms: O_3  and  C_4
DOCKED: REMARK    3  A    between atoms: C_4  and  C_5
DOCKED: REMARK    4  A    between atoms: C_10  and  C_11
DOCKED: REMARK    5  A    between atoms: C_11  and  N_12
DOCKED: REMARK    6  A    between atoms: N_12  and  C_13
DOCKED: REMARK    7  A    between atoms: N_12  and  C_15
DOCKED: REMARK    8  A    between atoms: C_13  and  C_14
DOCKED: REMARK    9  A    between atoms: C_15  and  C_16
DOCKED: REMARK   10  A    between atoms: N_21  and  C_22
DOCKED: REMARK   11  A    between atoms: C_25  and  C_26
DOCKED: REMARK   12  A    between atoms: N_27  and  O_28
DOCKED: REMARK                            x       y       z     vdW  Elec       q    Type
DOCKED: REMARK                         _______ _______ _______ _____ _____    ______ ____
DOCKED: USER                              x       y       z     vdW  Elec       q    Type
DOCKED: USER                           _______ _______ _______ _____ _____    ______ ____
DOCKED: ROOT
DOCKED: ATOM      1  C   UNL     1      21.183  -7.045  -5.704 -0.16 -0.00    +0.000 C 
DOCKED: ENDROOT
DOCKED: BRANCH   1   2
DOCKED: ATOM      2  C   UNL     1      21.229  -6.106  -4.533 -0.19 -0.00    +0.000 A 
DOCKED: ATOM      3  C   UNL     1      20.045  -5.741  -3.874 -0.18 -0.00    +0.000 A 
DOCKED: ATOM      4  C   UNL     1      20.077  -4.840  -2.807 -0.16 -0.00    +0.000 A 
DOCKED: ATOM      5  C   UNL     1      21.294  -4.281  -2.393 -0.29 -0.00    +0.000 A 
DOCKED: ATOM      6  C   UNL     1      21.335  -3.374  -1.322 -0.32 -0.00    +0.000 A 
DOCKED: ATOM      7  C   UNL     1      22.557  -2.813  -0.915 -0.28 +0.00    +0.000 A 
DOCKED: ATOM      8  C   UNL     1      23.739  -3.167  -1.583 -0.28 -0.00    +0.000 A 
DOCKED: ATOM      9  C   UNL     1      23.706  -4.068  -2.650 -0.25 -0.00    +0.000 A 
DOCKED: ATOM     10  C   UNL     1      22.490  -4.631  -3.062 -0.24 -0.00    +0.000 A 
DOCKED: ATOM     11  C   UNL     1      22.448  -5.537  -4.133 -0.15 -0.00    +0.000 A 
DOCKED: BRANCH   7  12
DOCKED: ATOM     12  C   UNL     1      22.612  -1.853   0.245 -0.20 -0.00    +0.000 C 
DOCKED: BRANCH  12  13
DOCKED: ATOM     13  N   UNL     1      21.247  -1.424   0.616 -0.31 -0.00    +0.000 N 
DOCKED: ATOM     14  H   UNL     1      20.658  -1.490  -0.214 +0.00 -0.00    +0.000 HD
DOCKED: BRANCH  13  15
DOCKED: ATOM     15  C   UNL     1      21.218   0.003   1.015 -0.26 -0.00    +0.000 C 
DOCKED: ATOM     16  C   UNL     1      20.878   0.175   2.494 -0.44 -0.00    +0.000 C 
DOCKED: ENDBRANCH  13  15
DOCKED: BRANCH  13  17
DOCKED: ATOM     17  C   UNL     1      20.621  -2.342   1.600 -0.55 -0.00    +0.000 C 
DOCKED: ATOM     18  C   UNL     1      19.109  -2.532   1.412 -0.40 -0.00    +0.000 C 
DOCKED: ENDBRANCH  13  17
DOCKED: ENDBRANCH  12  13
DOCKED: ENDBRANCH   7  12
DOCKED: ENDBRANCH   1   2
DOCKED: BRANCH   1  19
DOCKED: ATOM     19  O   UNL     1      20.137  -7.991  -5.506 -0.15 -0.00    +0.000 OA
DOCKED: BRANCH  19  21
DOCKED: ATOM     20  O   UNL     1      18.597  -8.691  -3.937 -0.23 -0.00    +0.000 OA
DOCKED: ATOM     21  C   UNL     1      19.805  -8.496  -4.246 -0.26 -0.00    +0.000 C 
DOCKED: ATOM     22  N   UNL     1      20.850  -8.747  -3.298 -0.38 -0.00    +0.000 N 
DOCKED: ATOM     23  H   UNL     1      21.757  -8.435  -3.520 -0.03 -0.00    +0.000 HD
DOCKED: BRANCH  22  24
DOCKED: ATOM     24  C   UNL     1      20.663  -9.425  -2.044 -0.47 -0.00    +0.000 A 
DOCKED: ATOM     25  C   UNL     1      21.483  -9.096  -0.956 -0.44 -0.00    +0.000 A 
DOCKED: ATOM     26  C   UNL     1      21.337  -9.755   0.268 -0.55 -0.00    +0.000 A 
DOCKED: ATOM     27  C   UNL     1      20.371 -10.765   0.426 -0.60 -0.00    +0.000 A 
DOCKED: ATOM     28  C   UNL     1      19.573 -11.118  -0.677 -0.44 -0.00    +0.000 A 
DOCKED: ATOM     29  C   UNL     1      19.720 -10.458  -1.901 -0.42 -0.00    +0.000 A 
DOCKED: BRANCH  27  30
DOCKED: ATOM     30  C   UNL     1      20.231 -11.458   1.730 -0.77 -0.00    +0.000 C 
DOCKED: ATOM     31  N   UNL     1      20.498 -10.786   2.966 -0.67 -0.00    +0.000 N 
DOCKED: ATOM     32  O   UNL     1      19.882 -12.670   1.754 -1.62 -0.00    +0.000 OA
DOCKED: ATOM     33  H   UNL     1      20.852  -9.868   2.959 -0.55 -0.00    +0.000 HD
DOCKED: BRANCH  31  34
DOCKED: ATOM     34  O   UNL     1      20.265 -11.409   4.147 -0.80 -0.00    +0.000 OA
DOCKED: ATOM     35  H   UNL     1      20.574 -12.327   4.095 -0.47 -0.00    +0.000 HD
DOCKED: ENDBRANCH  31  34
DOCKED: ENDBRANCH  27  30
DOCKED: ENDBRANCH  22  24
DOCKED: ENDBRANCH  19  21
DOCKED: ENDBRANCH   1  19
DOCKED: TORSDOF 10
DOCKED: TER
DOCKED: ENDMDL
________________________________________________________________________________


	BEGINNING GENETIC ALGORITHM DOCKING 14 of 100
Run: 14 Seed: 686789609 1457580528 [ Run 14 of 100 GA/GALS ]
Beginning LAMARCKIAN GENETIC ALGORITHM (LGA), with a maximum of 2500000 energy evaluations.

Final-Value: -14.972


	FINAL GENETIC ALGORITHM DOCKED STATE
	_______________________________________________


Detailed state:  trans 20.474 -11.083 1.664 quatxyzw 0.171020 -0.048970 -0.168562 -0.969506 center 1.858 0.218 -0.021 ntor 10 -158.0929 109.3901 24.7350 -106.3804 109.9643 131.9942 7.4066 115.1062 178.8640 180.0000
State:	 20.474 -11.083   1.664   0.698 -0.200 -0.688 -28.372   -158.09  109.39   24.74 -106.38  109.96  131.99    7.41  115.11  178.86  180.00

DOCKED: MODEL       14
DOCKED: USER    Run = 14
DOCKED: USER    DPF = ligand_dock.biased.dpf
DOCKED: USER  
DOCKED: USER    Estimated Free Energy of Binding    =   -9.31 kcal/mol  [=(1)+(2)+(3)-(4)]
DOCKED: USER    Estimated Inhibition Constant, Ki   =  149.76 nM (nanomolar)  [Temperature = 298.15 K]
DOCKED: USER    
DOCKED: USER    (1) Final Intermolecular Energy     =  -12.29 kcal/mol
DOCKED: USER        vdW + Hbond + desolv Energy     =  -12.29 kcal/mol
DOCKED: USER        Electrostatic Energy            =   +0.00 kcal/mol
DOCKED: USER    (2) Final Total Internal Energy     =   -2.68 kcal/mol
DOCKED: USER    (3) Torsional Free Energy           =   +2.98 kcal/mol
DOCKED: USER    (4) Unbound System's Energy  [=(2)] =   -2.68 kcal/mol
DOCKED: USER    
DOCKED: USER    
DOCKED: USER    NEWDPF move ligand.pdbqt
DOCKED: USER    NEWDPF about 1.858000 0.218000 -0.021000
DOCKED: USER    NEWDPF tran0 20.474401 -11.082664 1.663896
DOCKED: USER    NEWDPF quaternion0 0.171020 -0.048970 -0.168562 -0.969506
DOCKED: USER    NEWDPF axisangle0 0.697842 -0.199821 -0.687814 -28.371875
DOCKED: USER    NEWDPF quat0 0.697842 -0.199821 -0.687814 -28.371875
DOCKED: USER    NEWDPF dihe0 -158.09 109.39 24.74 -106.38 109.96 131.99 7.41 115.11 178.86 180.00 
DOCKED: USER  keepresnum = 1 
DOCKED: USER  
DOCKED: REMARK  Name = 
DOCKED: REMARK  12 active torsions:
DOCKED: REMARK  status: ('A' for Active; 'I' for Inactive)
DOCKED: REMARK    1  A    between atoms: C_2  and  O_3
DOCKED: REMARK    2  A    between atoms: O_3  and  C_4
DOCKED: REMARK    3  A    between atoms: C_4  and  C_5
DOCKED: REMARK    4  A    between atoms: C_10  and  C_11
DOCKED: REMARK    5  A    between atoms: C_11  and  N_12
DOCKED: REMARK    6  A    between atoms: N_12  and  C_13
DOCKED: REMARK    7  A    between atoms: N_12  and  C_15
DOCKED: REMARK    8  A    between atoms: C_13  and  C_14
DOCKED: REMARK    9  A    between atoms: C_15  and  C_16
DOCKED: REMARK   10  A    between atoms: N_21  and  C_22
DOCKED: REMARK   11  A    between atoms: C_25  and  C_26
DOCKED: REMARK   12  A    between atoms: N_27  and  O_28
DOCKED: REMARK                            x       y       z     vdW  Elec       q    Type
DOCKED: REMARK                         _______ _______ _______ _____ _____    ______ ____
DOCKED: USER                              x       y       z     vdW  Elec       q    Type
DOCKED: USER                           _______ _______ _______ _____ _____    ______ ____
DOCKED: ROOT
DOCKED: ATOM      1  C   UNL     1      19.894 -12.083   2.834 -0.75 -0.00    +0.000 C 
DOCKED: ENDROOT
DOCKED: BRANCH   1   2
DOCKED: ATOM      2  C   UNL     1      18.624 -11.532   2.256 -0.46 -0.00    +0.000 A 
DOCKED: ATOM      3  C   UNL     1      18.161 -10.267   2.648 -0.47 -0.00    +0.000 A 
DOCKED: ATOM      4  C   UNL     1      16.961  -9.763   2.140 -0.33 +0.00    +0.000 A 
DOCKED: ATOM      5  C   UNL     1      16.200 -10.525   1.242 -0.32 +0.00    +0.000 A 
DOCKED: ATOM      6  C   UNL     1      14.992 -10.027   0.728 -0.25 +0.00    +0.000 A 
DOCKED: ATOM      7  C   UNL     1      14.232 -10.796  -0.168 -0.27 +0.00    +0.000 A 
DOCKED: ATOM      8  C   UNL     1      14.688 -12.068  -0.549 -0.41 +0.00    +0.000 A 
DOCKED: ATOM      9  C   UNL     1      15.888 -12.571  -0.041 -0.48 +0.00    +0.000 A 
DOCKED: ATOM     10  C   UNL     1      16.651 -11.808   0.854 -0.42 +0.00    +0.000 A 
DOCKED: ATOM     11  C   UNL     1      17.858 -12.305   1.369 -0.38 +0.00    +0.000 A 
DOCKED: BRANCH   7  12
DOCKED: ATOM     12  C   UNL     1      12.944 -10.262  -0.739 -0.26 +0.00    +0.000 C 
DOCKED: BRANCH  12  13
DOCKED: ATOM     13  N   UNL     1      11.807 -11.099  -0.301 -0.30 +0.00    +0.000 N 
DOCKED: ATOM     14  H   UNL     1      11.867 -11.993  -0.787 -0.02 +0.00    +0.000 HD
DOCKED: BRANCH  13  15
DOCKED: ATOM     15  C   UNL     1      10.511 -10.508  -0.709 -0.12 -0.00    +0.000 C 
DOCKED: ATOM     16  C   UNL     1      10.698  -9.307  -1.635 -0.16 -0.00    +0.000 C 
DOCKED: ENDBRANCH  13  15
DOCKED: BRANCH  13  17
DOCKED: ATOM     17  C   UNL     1      11.891 -11.445   1.140 -0.42 +0.00    +0.000 C 
DOCKED: ATOM     18  C   UNL     1      10.687 -12.237   1.670 -0.35 +0.00    +0.000 C 
DOCKED: ENDBRANCH  13  17
DOCKED: ENDBRANCH  12  13
DOCKED: ENDBRANCH   7  12
DOCKED: ENDBRANCH   1   2
DOCKED: BRANCH   1  19
DOCKED: ATOM     19  O   UNL     1      20.989 -11.711   2.003 -1.18 -0.00    +0.000 OA
DOCKED: BRANCH  19  21
DOCKED: ATOM     20  O   UNL     1      21.314  -9.785   0.774 -0.68 -0.00    +0.000 OA
DOCKED: ATOM     21  C   UNL     1      20.830 -10.949   0.843 -0.68 -0.00    +0.000 C 
DOCKED: ATOM     22  N   UNL     1      20.075 -11.490  -0.249 -0.43 -0.00    +0.000 N 
DOCKED: ATOM     23  H   UNL     1      19.584 -12.330  -0.096 -0.12 -0.00    +0.000 HD
DOCKED: BRANCH  22  24
DOCKED: ATOM     24  C   UNL     1      19.986 -10.889  -1.552 -0.39 -0.00    +0.000 A 
DOCKED: ATOM     25  C   UNL     1      18.757 -10.890  -2.227 -0.34 -0.00    +0.000 A 
DOCKED: ATOM     26  C   UNL     1      18.648 -10.332  -3.503 -0.30 -0.00    +0.000 A 
DOCKED: ATOM     27  C   UNL     1      19.769  -9.767  -4.135 -0.30 -0.00    +0.000 A 
DOCKED: ATOM     28  C   UNL     1      21.009  -9.798  -3.471 -0.44 -0.00    +0.000 A 
DOCKED: ATOM     29  C   UNL     1      21.117 -10.356  -2.194 -0.51 -0.00    +0.000 A 
DOCKED: BRANCH  27  30
DOCKED: ATOM     30  C   UNL     1      19.639  -9.182  -5.492 -0.21 -0.00    +0.000 C 
DOCKED: ATOM     31  N   UNL     1      19.898  -9.958  -6.668 -0.21 -0.00    +0.000 N 
DOCKED: ATOM     32  O   UNL     1      19.308  -7.972  -5.618 -0.13 -0.00    +0.000 OA
DOCKED: ATOM     33  H   UNL     1      20.240 -10.877  -6.584 -0.04 -0.00    +0.000 HD
DOCKED: BRANCH  31  34
DOCKED: ATOM     34  O   UNL     1      19.675  -9.432  -7.897 -0.15 -0.00    +0.000 OA
DOCKED: ATOM     35  H   UNL     1      19.726  -8.465  -7.849 +0.00 -0.00    +0.000 HD
DOCKED: ENDBRANCH  31  34
DOCKED: ENDBRANCH  27  30
DOCKED: ENDBRANCH  22  24
DOCKED: ENDBRANCH  19  21
DOCKED: ENDBRANCH   1  19
DOCKED: TORSDOF 10
DOCKED: TER
DOCKED: ENDMDL
________________________________________________________________________________


	BEGINNING GENETIC ALGORITHM DOCKING 15 of 100
Run: 15 Seed: 546838691 904493722 [ Run 15 of 100 GA/GALS ]
Beginning LAMARCKIAN GENETIC ALGORITHM (LGA), with a maximum of 2500000 energy evaluations.

Final-Value: -16.052


	FINAL GENETIC ALGORITHM DOCKED STATE
	_______________________________________________


Detailed state:  trans 13.581 -9.830 -1.886 quatxyzw -0.101846 -0.892128 -0.224706 -0.378474 center 1.858 0.218 -0.021 ntor 10 87.4132 179.9557 0.2290 68.0510 19.7643 162.4458 -8.5081 79.2974 12.1418 -154.7810
State:	 13.581  -9.830  -1.886  -0.110 -0.964 -0.243 -135.522     87.41  179.96    0.23   68.05   19.76  162.45   -8.51   79.30   12.14 -154.78

DOCKED: MODEL       15
DOCKED: USER    Run = 15
DOCKED: USER    DPF = ligand_dock.biased.dpf
DOCKED: USER  
DOCKED: USER    Estimated Free Energy of Binding    =  -10.49 kcal/mol  [=(1)+(2)+(3)-(4)]
DOCKED: USER    Estimated Inhibition Constant, Ki   =   20.33 nM (nanomolar)  [Temperature = 298.15 K]
DOCKED: USER    
DOCKED: USER    (1) Final Intermolecular Energy     =  -13.48 kcal/mol
DOCKED: USER        vdW + Hbond + desolv Energy     =  -13.48 kcal/mol
DOCKED: USER        Electrostatic Energy            =   +0.00 kcal/mol
DOCKED: USER    (2) Final Total Internal Energy     =   -2.57 kcal/mol
DOCKED: USER    (3) Torsional Free Energy           =   +2.98 kcal/mol
DOCKED: USER    (4) Unbound System's Energy  [=(2)] =   -2.57 kcal/mol
DOCKED: USER    
DOCKED: USER    
DOCKED: USER    NEWDPF move ligand.pdbqt
DOCKED: USER    NEWDPF about 1.858000 0.218000 -0.021000
DOCKED: USER    NEWDPF tran0 13.581420 -9.829622 -1.886058
DOCKED: USER    NEWDPF quaternion0 -0.101846 -0.892128 -0.224706 -0.378474
DOCKED: USER    NEWDPF axisangle0 -0.110031 -0.963825 -0.242764 -135.521655
DOCKED: USER    NEWDPF quat0 -0.110031 -0.963825 -0.242764 -135.521655
DOCKED: USER    NEWDPF dihe0 87.41 179.96 0.23 68.05 19.76 162.45 -8.51 79.30 12.14 -154.78 
DOCKED: USER  keepresnum = 1 
DOCKED: USER  
DOCKED: REMARK  Name = 
DOCKED: REMARK  12 active torsions:
DOCKED: REMARK  status: ('A' for Active; 'I' for Inactive)
DOCKED: REMARK    1  A    between atoms: C_2  and  O_3
DOCKED: REMARK    2  A    between atoms: O_3  and  C_4
DOCKED: REMARK    3  A    between atoms: C_4  and  C_5
DOCKED: REMARK    4  A    between atoms: C_10  and  C_11
DOCKED: REMARK    5  A    between atoms: C_11  and  N_12
DOCKED: REMARK    6  A    between atoms: N_12  and  C_13
DOCKED: REMARK    7  A    between atoms: N_12  and  C_15
DOCKED: REMARK    8  A    between atoms: C_13  and  C_14
DOCKED: REMARK    9  A    between atoms: C_15  and  C_16
DOCKED: REMARK   10  A    between atoms: N_21  and  C_22
DOCKED: REMARK   11  A    between atoms: C_25  and  C_26
DOCKED: REMARK   12  A    between atoms: N_27  and  O_28
DOCKED: REMARK                            x       y       z     vdW  Elec       q    Type
DOCKED: REMARK                         _______ _______ _______ _____ _____    ______ ____
DOCKED: USER                              x       y       z     vdW  Elec       q    Type
DOCKED: USER                           _______ _______ _______ _____ _____    ______ ____
DOCKED: ROOT
DOCKED: ATOM      1  C   UNL     1      12.514  -9.692  -3.131 -0.19 -0.00    +0.000 C 
DOCKED: ENDROOT
DOCKED: BRANCH   1   2
DOCKED: ATOM      2  C   UNL     1      13.777 -10.052  -3.858 -0.20 -0.00    +0.000 A 
DOCKED: ATOM      3  C   UNL     1      13.892 -11.293  -4.502 -0.21 -0.00    +0.000 A 
DOCKED: ATOM      4  C   UNL     1      15.078 -11.648  -5.150 -0.22 -0.00    +0.000 A 
DOCKED: ATOM      5  C   UNL     1      16.172 -10.771  -5.149 -0.21 -0.00    +0.000 A 
DOCKED: ATOM      6  C   UNL     1      17.367 -11.121  -5.796 -0.29 -0.00    +0.000 A 
DOCKED: ATOM      7  C   UNL     1      18.462 -10.240  -5.788 -0.25 -0.00    +0.000 A 
DOCKED: ATOM      8  C   UNL     1      18.352  -9.005  -5.131 -0.17 -0.00    +0.000 A 
DOCKED: ATOM      9  C   UNL     1      17.166  -8.650  -4.484 -0.16 -0.00    +0.000 A 
DOCKED: ATOM     10  C   UNL     1      16.070  -9.525  -4.487 -0.18 -0.00    +0.000 A 
DOCKED: ATOM     11  C   UNL     1      14.875  -9.177  -3.840 -0.16 -0.00    +0.000 A 
DOCKED: BRANCH   7  12
DOCKED: ATOM     12  C   UNL     1      19.742 -10.599  -6.496 -0.33 -0.00    +0.000 C 
DOCKED: BRANCH  12  13
DOCKED: ATOM     13  N   UNL     1      20.610 -11.398  -5.604 -0.43 -0.00    +0.000 N 
DOCKED: ATOM     14  H   UNL     1      20.549 -12.373  -5.893 -0.55 -0.00    +0.000 HD
DOCKED: BRANCH  13  15
DOCKED: ATOM     15  C   UNL     1      20.124 -11.364  -4.204 -0.48 -0.00    +0.000 C 
DOCKED: ATOM     16  C   UNL     1      21.006 -10.488  -3.315 -0.54 -0.00    +0.000 C 
DOCKED: ENDBRANCH  13  15
DOCKED: BRANCH  13  17
DOCKED: ATOM     17  C   UNL     1      22.043 -11.045  -5.758 -0.49 -0.00    +0.000 C 
DOCKED: ATOM     18  C   UNL     1      22.908 -12.163  -6.357 -0.51 -0.00    +0.000 C 
DOCKED: ENDBRANCH  13  17
DOCKED: ENDBRANCH  12  13
DOCKED: ENDBRANCH   7  12
DOCKED: ENDBRANCH   1   2
DOCKED: BRANCH   1  19
DOCKED: ATOM     19  O   UNL     1      12.716  -9.857  -1.731 -0.23 -0.00    +0.000 OA
DOCKED: BRANCH  19  21
DOCKED: ATOM     20  O   UNL     1      14.516  -8.661  -0.924 -0.25 -0.00    +0.000 OA
DOCKED: ATOM     21  C   UNL     1      13.978  -9.783  -1.136 -0.24 -0.00    +0.000 C 
DOCKED: ATOM     22  N   UNL     1      14.668 -10.996  -0.813 -0.28 +0.00    +0.000 N 
DOCKED: ATOM     23  H   UNL     1      14.285 -11.844  -1.137 -0.02 +0.00    +0.000 HD
DOCKED: BRANCH  22  24
DOCKED: ATOM     24  C   UNL     1      15.883 -11.060  -0.045 -0.31 +0.00    +0.000 A 
DOCKED: ATOM     25  C   UNL     1      16.735 -12.162  -0.197 -0.42 +0.00    +0.000 A 
DOCKED: ATOM     26  C   UNL     1      17.911 -12.259   0.552 -0.49 -0.00    +0.000 A 
DOCKED: ATOM     27  C   UNL     1      18.255 -11.258   1.476 -0.47 -0.00    +0.000 A 
DOCKED: ATOM     28  C   UNL     1      17.381 -10.170   1.654 -0.31 -0.00    +0.000 A 
DOCKED: ATOM     29  C   UNL     1      16.205 -10.073   0.903 -0.26 +0.00    +0.000 A 
DOCKED: BRANCH  27  30
DOCKED: ATOM     30  C   UNL     1      19.504 -11.377   2.268 -0.71 -0.00    +0.000 C 
DOCKED: ATOM     31  N   UNL     1      19.915 -10.346   3.173 -0.64 -0.00    +0.000 N 
DOCKED: ATOM     32  O   UNL     1      20.229 -12.399   2.133 -1.64 -0.00    +0.000 OA
DOCKED: ATOM     33  H   UNL     1      19.404  -9.506   3.225 -0.43 -0.00    +0.000 HD
DOCKED: BRANCH  31  34
DOCKED: ATOM     34  O   UNL     1      21.005 -10.521   3.959 -0.72 -0.00    +0.000 OA
DOCKED: ATOM     35  H   UNL     1      21.392 -11.393   3.785 -0.51 -0.00    +0.000 HD
DOCKED: ENDBRANCH  31  34
DOCKED: ENDBRANCH  27  30
DOCKED: ENDBRANCH  22  24
DOCKED: ENDBRANCH  19  21
DOCKED: ENDBRANCH   1  19
DOCKED: TORSDOF 10
DOCKED: TER
DOCKED: ENDMDL
________________________________________________________________________________


	BEGINNING GENETIC ALGORITHM DOCKING 16 of 100
Run: 16 Seed: 703034823 1765937370 [ Run 16 of 100 GA/GALS ]
Beginning LAMARCKIAN GENETIC ALGORITHM (LGA), with a maximum of 2500000 energy evaluations.

Final-Value: -15.320


	FINAL GENETIC ALGORITHM DOCKED STATE
	_______________________________________________


Detailed state:  trans 17.483 -12.272 0.548 quatxyzw 0.350947 -0.241755 0.904113 0.031153 center 1.858 0.218 -0.021 ntor 10 90.6295 153.1515 10.0953 -137.7576 99.3236 -18.3605 -175.8352 -125.1691 79.4438 67.9451
State:	 17.483 -12.272   0.548   0.351 -0.242  0.905 176.430     90.63  153.15   10.10 -137.76   99.32  -18.36 -175.84 -125.17   79.44   67.95

DOCKED: MODEL       16
DOCKED: USER    Run = 16
DOCKED: USER    DPF = ligand_dock.biased.dpf
DOCKED: USER  
DOCKED: USER    Estimated Free Energy of Binding    =  -10.29 kcal/mol  [=(1)+(2)+(3)-(4)]
DOCKED: USER    Estimated Inhibition Constant, Ki   =   28.90 nM (nanomolar)  [Temperature = 298.15 K]
DOCKED: USER    
DOCKED: USER    (1) Final Intermolecular Energy     =  -13.27 kcal/mol
DOCKED: USER        vdW + Hbond + desolv Energy     =  -13.27 kcal/mol
DOCKED: USER        Electrostatic Energy            =   +0.00 kcal/mol
DOCKED: USER    (2) Final Total Internal Energy     =   -2.05 kcal/mol
DOCKED: USER    (3) Torsional Free Energy           =   +2.98 kcal/mol
DOCKED: USER    (4) Unbound System's Energy  [=(2)] =   -2.05 kcal/mol
DOCKED: USER    
DOCKED: USER    
DOCKED: USER    NEWDPF move ligand.pdbqt
DOCKED: USER    NEWDPF about 1.858000 0.218000 -0.021000
DOCKED: USER    NEWDPF tran0 17.482930 -12.271826 0.548500
DOCKED: USER    NEWDPF quaternion0 0.350947 -0.241755 0.904113 0.031153
DOCKED: USER    NEWDPF axisangle0 0.351117 -0.241873 0.904552 176.429553
DOCKED: USER    NEWDPF quat0 0.351117 -0.241873 0.904552 176.429553
DOCKED: USER    NEWDPF dihe0 90.63 153.15 10.10 -137.76 99.32 -18.36 -175.84 -125.17 79.44 67.95 
DOCKED: USER  keepresnum = 1 
DOCKED: USER  
DOCKED: REMARK  Name = 
DOCKED: REMARK  12 active torsions:
DOCKED: REMARK  status: ('A' for Active; 'I' for Inactive)
DOCKED: REMARK    1  A    between atoms: C_2  and  O_3
DOCKED: REMARK    2  A    between atoms: O_3  and  C_4
DOCKED: REMARK    3  A    between atoms: C_4  and  C_5
DOCKED: REMARK    4  A    between atoms: C_10  and  C_11
DOCKED: REMARK    5  A    between atoms: C_11  and  N_12
DOCKED: REMARK    6  A    between atoms: N_12  and  C_13
DOCKED: REMARK    7  A    between atoms: N_12  and  C_15
DOCKED: REMARK    8  A    between atoms: C_13  and  C_14
DOCKED: REMARK    9  A    between atoms: C_15  and  C_16
DOCKED: REMARK   10  A    between atoms: N_21  and  C_22
DOCKED: REMARK   11  A    between atoms: C_25  and  C_26
DOCKED: REMARK   12  A    between atoms: N_27  and  O_28
DOCKED: REMARK                            x       y       z     vdW  Elec       q    Type
DOCKED: REMARK                         _______ _______ _______ _____ _____    ______ ____
DOCKED: USER                              x       y       z     vdW  Elec       q    Type
DOCKED: USER                           _______ _______ _______ _____ _____    ______ ____
DOCKED: ROOT
DOCKED: ATOM      1  C   UNL     1      18.650 -12.279   1.708 -0.47 -0.00    +0.000 C 
DOCKED: ENDROOT
DOCKED: BRANCH   1   2
DOCKED: ATOM      2  C   UNL     1      19.378 -11.651   0.556 -0.56 -0.00    +0.000 A 
DOCKED: ATOM      3  C   UNL     1      20.715 -11.250   0.699 -0.62 -0.00    +0.000 A 
DOCKED: ATOM      4  C   UNL     1      21.387 -10.633  -0.359 -0.60 -0.00    +0.000 A 
DOCKED: ATOM      5  C   UNL     1      20.724 -10.394  -1.572 -0.52 -0.00    +0.000 A 
DOCKED: ATOM      6  C   UNL     1      21.391  -9.773  -2.639 -0.48 -0.00    +0.000 A 
DOCKED: ATOM      7  C   UNL     1      20.722  -9.533  -3.850 -0.37 -0.00    +0.000 A 
DOCKED: ATOM      8  C   UNL     1      19.380  -9.921  -3.988 -0.30 -0.00    +0.000 A 
DOCKED: ATOM      9  C   UNL     1      18.709 -10.538  -2.930 -0.32 -0.00    +0.000 A 
DOCKED: ATOM     10  C   UNL     1      19.371 -10.781  -1.719 -0.40 -0.00    +0.000 A 
DOCKED: ATOM     11  C   UNL     1      18.705 -11.401  -0.651 -0.43 -0.00    +0.000 A 
DOCKED: BRANCH   7  12
DOCKED: ATOM     12  C   UNL     1      21.435  -8.884  -5.007 -0.31 -0.00    +0.000 C 
DOCKED: BRANCH  12  13
DOCKED: ATOM     13  N   UNL     1      22.003  -9.917  -5.898 -0.32 -0.00    +0.000 N 
DOCKED: ATOM     14  H   UNL     1      23.004  -9.978  -5.715 -0.02 -0.00    +0.000 HD
DOCKED: BRANCH  13  15
DOCKED: ATOM     15  C   UNL     1      21.879  -9.530  -7.324 -0.23 -0.00    +0.000 C 
DOCKED: ATOM     16  C   UNL     1      20.745 -10.279  -8.022 -0.24 -0.00    +0.000 C 
DOCKED: ENDBRANCH  13  15
DOCKED: BRANCH  13  17
DOCKED: ATOM     17  C   UNL     1      21.477 -11.271  -5.589 -0.52 -0.00    +0.000 C 
DOCKED: ATOM     18  C   UNL     1      22.527 -12.389  -5.667 -0.54 -0.00    +0.000 C 
DOCKED: ENDBRANCH  13  17
DOCKED: ENDBRANCH  12  13
DOCKED: ENDBRANCH   7  12
DOCKED: ENDBRANCH   1   2
DOCKED: BRANCH   1  19
DOCKED: ATOM     19  O   UNL     1      17.264 -12.369   1.395 -0.77 +0.00    +0.000 OA
DOCKED: BRANCH  19  21
DOCKED: ATOM     20  O   UNL     1      15.296 -12.189   2.586 -0.59 +0.00    +0.000 OA
DOCKED: ATOM     21  C   UNL     1      16.290 -11.618   2.057 -0.44 +0.00    +0.000 C 
DOCKED: ATOM     22  N   UNL     1      16.414 -10.190   2.090 -0.37 +0.00    +0.000 N 
DOCKED: ATOM     23  H   UNL     1      17.113  -9.776   1.534 -0.02 -0.00    +0.000 HD
DOCKED: BRANCH  22  24
DOCKED: ATOM     24  C   UNL     1      15.584  -9.321   2.880 -0.34 +0.00    +0.000 A 
DOCKED: ATOM     25  C   UNL     1      15.170  -9.736   4.152 -0.37 +0.00    +0.000 A 
DOCKED: ATOM     26  C   UNL     1      14.346  -8.920   4.932 -0.38 +0.00    +0.000 A 
DOCKED: ATOM     27  C   UNL     1      13.912  -7.673   4.451 -0.29 +0.00    +0.000 A 
DOCKED: ATOM     28  C   UNL     1      14.299  -7.273   3.159 -0.24 +0.00    +0.000 A 
DOCKED: ATOM     29  C   UNL     1      15.124  -8.090   2.380 -0.24 +0.00    +0.000 A 
DOCKED: BRANCH  27  30
DOCKED: ATOM     30  C   UNL     1      13.034  -6.820   5.288 -0.34 +0.00    +0.000 C 
DOCKED: ATOM     31  N   UNL     1      11.629  -6.713   5.029 -0.22 +0.00    +0.000 N 
DOCKED: ATOM     32  O   UNL     1      13.533  -6.162   6.241 -1.04 +0.00    +0.000 OA
DOCKED: ATOM     33  H   UNL     1      11.241  -7.153   4.239 +0.00 +0.00    +0.000 HD
DOCKED: BRANCH  31  34
DOCKED: ATOM     34  O   UNL     1      10.831  -6.008   5.868 -0.33 +0.00    +0.000 OA
DOCKED: ATOM     35  H   UNL     1      11.380  -5.513   6.496 -0.02 +0.00    +0.000 HD
DOCKED: ENDBRANCH  31  34
DOCKED: ENDBRANCH  27  30
DOCKED: ENDBRANCH  22  24
DOCKED: ENDBRANCH  19  21
DOCKED: ENDBRANCH   1  19
DOCKED: TORSDOF 10
DOCKED: TER
DOCKED: ENDMDL
________________________________________________________________________________


	BEGINNING GENETIC ALGORITHM DOCKING 17 of 100
Run: 17 Seed: 621243275 1634186313 [ Run 17 of 100 GA/GALS ]
Beginning LAMARCKIAN GENETIC ALGORITHM (LGA), with a maximum of 2500000 energy evaluations.

Final-Value: -15.190


	FINAL GENETIC ALGORITHM DOCKED STATE
	_______________________________________________


Detailed state:  trans 20.640 -7.536 -4.460 quatxyzw -0.363534 -0.639078 -0.106915 0.669322 center 1.858 0.218 -0.021 ntor 10 45.1210 179.9888 3.7835 -43.6158 72.1205 169.6415 0.0772 -127.5542 -9.4704 -118.8303
State:	 20.640  -7.536  -4.460  -0.489 -0.860 -0.144 95.970     45.12  179.99    3.78  -43.62   72.12  169.64    0.08 -127.55   -9.47 -118.83

DOCKED: MODEL       17
DOCKED: USER    Run = 17
DOCKED: USER    DPF = ligand_dock.biased.dpf
DOCKED: USER  
DOCKED: USER    Estimated Free Energy of Binding    =   -9.71 kcal/mol  [=(1)+(2)+(3)-(4)]
DOCKED: USER    Estimated Inhibition Constant, Ki   =   76.54 nM (nanomolar)  [Temperature = 298.15 K]
DOCKED: USER    
DOCKED: USER    (1) Final Intermolecular Energy     =  -12.69 kcal/mol
DOCKED: USER        vdW + Hbond + desolv Energy     =  -12.69 kcal/mol
DOCKED: USER        Electrostatic Energy            =   +0.00 kcal/mol
DOCKED: USER    (2) Final Total Internal Energy     =   -2.50 kcal/mol
DOCKED: USER    (3) Torsional Free Energy           =   +2.98 kcal/mol
DOCKED: USER    (4) Unbound System's Energy  [=(2)] =   -2.50 kcal/mol
DOCKED: USER    
DOCKED: USER    
DOCKED: USER    NEWDPF move ligand.pdbqt
DOCKED: USER    NEWDPF about 1.858000 0.218000 -0.021000
DOCKED: USER    NEWDPF tran0 20.640053 -7.535946 -4.459850
DOCKED: USER    NEWDPF quaternion0 -0.363534 -0.639078 -0.106915 0.669322
DOCKED: USER    NEWDPF axisangle0 -0.489296 -0.860164 -0.143901 95.970486
DOCKED: USER    NEWDPF quat0 -0.489296 -0.860164 -0.143901 95.970486
DOCKED: USER    NEWDPF dihe0 45.12 179.99 3.78 -43.62 72.12 169.64 0.08 -127.55 -9.47 -118.83 
DOCKED: USER  keepresnum = 1 
DOCKED: USER  
DOCKED: REMARK  Name = 
DOCKED: REMARK  12 active torsions:
DOCKED: REMARK  status: ('A' for Active; 'I' for Inactive)
DOCKED: REMARK    1  A    between atoms: C_2  and  O_3
DOCKED: REMARK    2  A    between atoms: O_3  and  C_4
DOCKED: REMARK    3  A    between atoms: C_4  and  C_5
DOCKED: REMARK    4  A    between atoms: C_10  and  C_11
DOCKED: REMARK    5  A    between atoms: C_11  and  N_12
DOCKED: REMARK    6  A    between atoms: N_12  and  C_13
DOCKED: REMARK    7  A    between atoms: N_12  and  C_15
DOCKED: REMARK    8  A    between atoms: C_13  and  C_14
DOCKED: REMARK    9  A    between atoms: C_15  and  C_16
DOCKED: REMARK   10  A    between atoms: N_21  and  C_22
DOCKED: REMARK   11  A    between atoms: C_25  and  C_26
DOCKED: REMARK   12  A    between atoms: N_27  and  O_28
DOCKED: REMARK                            x       y       z     vdW  Elec       q    Type
DOCKED: REMARK                         _______ _______ _______ _____ _____    ______ ____
DOCKED: USER                              x       y       z     vdW  Elec       q    Type
DOCKED: USER                           _______ _______ _______ _____ _____    ______ ____
DOCKED: ROOT
DOCKED: ATOM      1  C   UNL     1      21.803  -8.625  -4.870 -0.28 -0.00    +0.000 C 
DOCKED: ENDROOT
DOCKED: BRANCH   1   2
DOCKED: ATOM      2  C   UNL     1      21.057  -9.372  -3.803 -0.39 -0.00    +0.000 A 
DOCKED: ATOM      3  C   UNL     1      19.979 -10.202  -4.145 -0.35 -0.00    +0.000 A 
DOCKED: ATOM      4  C   UNL     1      19.258 -10.872  -3.153 -0.37 -0.00    +0.000 A 
DOCKED: ATOM      5  C   UNL     1      19.597 -10.708  -1.802 -0.40 -0.00    +0.000 A 
DOCKED: ATOM      6  C   UNL     1      18.876 -11.375  -0.799 -0.42 -0.00    +0.000 A 
DOCKED: ATOM      7  C   UNL     1      19.217 -11.203   0.552 -0.52 -0.00    +0.000 A 
DOCKED: ATOM      8  C   UNL     1      20.286 -10.361   0.895 -0.56 -0.00    +0.000 A 
DOCKED: ATOM      9  C   UNL     1      21.007  -9.692  -0.097 -0.60 -0.00    +0.000 A 
DOCKED: ATOM     10  C   UNL     1      20.671  -9.859  -1.448 -0.54 -0.00    +0.000 A 
DOCKED: ATOM     11  C   UNL     1      21.390  -9.191  -2.451 -0.46 -0.00    +0.000 A 
DOCKED: BRANCH   7  12
DOCKED: ATOM     12  C   UNL     1      18.462 -11.931   1.634 -0.55 -0.00    +0.000 C 
DOCKED: BRANCH  12  13
DOCKED: ATOM     13  N   UNL     1      17.178 -11.249   1.904 -0.41 +0.00    +0.000 N 
DOCKED: ATOM     14  H   UNL     1      17.174 -10.367   1.392 -0.01 -0.00    +0.000 HD
DOCKED: BRANCH  13  15
DOCKED: ATOM     15  C   UNL     1      17.051 -10.882   3.334 -0.46 +0.00    +0.000 C 
DOCKED: ATOM     16  C   UNL     1      15.597 -10.908   3.803 -0.55 +0.00    +0.000 C 
DOCKED: ENDBRANCH  13  15
DOCKED: BRANCH  13  17
DOCKED: ATOM     17  C   UNL     1      16.020 -12.005   1.366 -0.48 +0.00    +0.000 C 
DOCKED: ATOM     18  C   UNL     1      15.288 -11.303   0.213 -0.38 +0.00    +0.000 C 
DOCKED: ENDBRANCH  13  17
DOCKED: ENDBRANCH  12  13
DOCKED: ENDBRANCH   7  12
DOCKED: ENDBRANCH   1   2
DOCKED: BRANCH   1  19
DOCKED: ATOM     19  O   UNL     1      21.072  -7.455  -5.222 -0.19 -0.00    +0.000 OA
DOCKED: BRANCH  19  21
DOCKED: ATOM     20  O   UNL     1      19.604  -6.020  -4.168 -0.20 -0.00    +0.000 OA
DOCKED: ATOM     21  C   UNL     1      20.787  -6.439  -4.306 -0.24 -0.00    +0.000 C 
DOCKED: ATOM     22  N   UNL     1      21.861  -5.852  -3.559 -0.26 -0.00    +0.000 N 
DOCKED: ATOM     23  H   UNL     1      22.782  -6.096  -3.809 -0.02 -0.00    +0.000 HD
DOCKED: BRANCH  22  24
DOCKED: ATOM     24  C   UNL     1      21.684  -4.931  -2.469 -0.33 -0.00    +0.000 A 
DOCKED: ATOM     25  C   UNL     1      22.639  -3.928  -2.254 -0.27 -0.00    +0.000 A 
DOCKED: ATOM     26  C   UNL     1      22.502  -3.034  -1.189 -0.28 +0.00    +0.000 A 
DOCKED: ATOM     27  C   UNL     1      21.410  -3.130  -0.310 -0.35 +0.00    +0.000 A 
DOCKED: ATOM     28  C   UNL     1      20.471  -4.159  -0.506 -0.33 +0.00    +0.000 A 
DOCKED: ATOM     29  C   UNL     1      20.608  -5.053  -1.572 -0.37 -0.00    +0.000 A 
DOCKED: BRANCH  27  30
DOCKED: ATOM     30  C   UNL     1      21.280  -2.177   0.818 -0.45 -0.00    +0.000 C 
DOCKED: ATOM     31  N   UNL     1      21.028  -2.630   2.154 -0.60 -0.00    +0.000 N 
DOCKED: ATOM     32  O   UNL     1      21.378  -0.938   0.600 -0.29 -0.00    +0.000 OA
DOCKED: ATOM     33  H   UNL     1      20.865  -3.586   2.325 -0.02 +0.00    +0.000 HD
DOCKED: BRANCH  31  34
DOCKED: ATOM     34  O   UNL     1      21.015  -1.749   3.183 -0.74 -0.00    +0.000 OA
DOCKED: ATOM     35  H   UNL     1      21.133  -0.849   2.841 -0.03 -0.00    +0.000 HD
DOCKED: ENDBRANCH  31  34
DOCKED: ENDBRANCH  27  30
DOCKED: ENDBRANCH  22  24
DOCKED: ENDBRANCH  19  21
DOCKED: ENDBRANCH   1  19
DOCKED: TORSDOF 10
DOCKED: TER
DOCKED: ENDMDL
________________________________________________________________________________


	BEGINNING GENETIC ALGORITHM DOCKING 18 of 100
Run: 18 Seed: 258793232 139842067 [ Run 18 of 100 GA/GALS ]
Beginning LAMARCKIAN GENETIC ALGORITHM (LGA), with a maximum of 2500000 energy evaluations.

Final-Value: -14.898


	FINAL GENETIC ALGORITHM DOCKED STATE
	_______________________________________________


Detailed state:  trans 16.574 -10.351 2.887 quatxyzw 0.281772 -0.742164 0.263784 -0.547918 center 1.858 0.218 -0.021 ntor 10 -34.0590 163.8009 19.6610 -67.1262 17.0433 179.5327 98.0030 -55.8530 156.0714 -108.9796
State:	 16.574 -10.351   2.887   0.337 -0.887  0.315 -113.551    -34.06  163.80   19.66  -67.13   17.04  179.53   98.00  -55.85  156.07 -108.98

DOCKED: MODEL       18
DOCKED: USER    Run = 18
DOCKED: USER    DPF = ligand_dock.biased.dpf
DOCKED: USER  
DOCKED: USER    Estimated Free Energy of Binding    =   -9.83 kcal/mol  [=(1)+(2)+(3)-(4)]
DOCKED: USER    Estimated Inhibition Constant, Ki   =   62.43 nM (nanomolar)  [Temperature = 298.15 K]
DOCKED: USER    
DOCKED: USER    (1) Final Intermolecular Energy     =  -12.81 kcal/mol
DOCKED: USER        vdW + Hbond + desolv Energy     =  -12.81 kcal/mol
DOCKED: USER        Electrostatic Energy            =   +0.00 kcal/mol
DOCKED: USER    (2) Final Total Internal Energy     =   -2.09 kcal/mol
DOCKED: USER    (3) Torsional Free Energy           =   +2.98 kcal/mol
DOCKED: USER    (4) Unbound System's Energy  [=(2)] =   -2.09 kcal/mol
DOCKED: USER    
DOCKED: USER    
DOCKED: USER    NEWDPF move ligand.pdbqt
DOCKED: USER    NEWDPF about 1.858000 0.218000 -0.021000
DOCKED: USER    NEWDPF tran0 16.574316 -10.351397 2.887295
DOCKED: USER    NEWDPF quaternion0 0.281772 -0.742164 0.263784 -0.547918
DOCKED: USER    NEWDPF axisangle0 0.336834 -0.887192 0.315331 -113.551361
DOCKED: USER    NEWDPF quat0 0.336834 -0.887192 0.315331 -113.551361
DOCKED: USER    NEWDPF dihe0 -34.06 163.80 19.66 -67.13 17.04 179.53 98.00 -55.85 156.07 -108.98 
DOCKED: USER  keepresnum = 1 
DOCKED: USER  
DOCKED: REMARK  Name = 
DOCKED: REMARK  12 active torsions:
DOCKED: REMARK  status: ('A' for Active; 'I' for Inactive)
DOCKED: REMARK    1  A    between atoms: C_2  and  O_3
DOCKED: REMARK    2  A    between atoms: O_3  and  C_4
DOCKED: REMARK    3  A    between atoms: C_4  and  C_5
DOCKED: REMARK    4  A    between atoms: C_10  and  C_11
DOCKED: REMARK    5  A    between atoms: C_11  and  N_12
DOCKED: REMARK    6  A    between atoms: N_12  and  C_13
DOCKED: REMARK    7  A    between atoms: N_12  and  C_15
DOCKED: REMARK    8  A    between atoms: C_13  and  C_14
DOCKED: REMARK    9  A    between atoms: C_15  and  C_16
DOCKED: REMARK   10  A    between atoms: N_21  and  C_22
DOCKED: REMARK   11  A    between atoms: C_25  and  C_26
DOCKED: REMARK   12  A    between atoms: N_27  and  O_28
DOCKED: REMARK                            x       y       z     vdW  Elec       q    Type
DOCKED: REMARK                         _______ _______ _______ _____ _____    ______ ____
DOCKED: USER                              x       y       z     vdW  Elec       q    Type
DOCKED: USER                           _______ _______ _______ _____ _____    ______ ____
DOCKED: ROOT
DOCKED: ATOM      1  C   UNL     1      16.081 -11.844   2.400 -0.27 +0.00    +0.000 C 
DOCKED: ENDROOT
DOCKED: BRANCH   1   2
DOCKED: ATOM      2  C   UNL     1      16.841 -11.372   1.195 -0.39 +0.00    +0.000 A 
DOCKED: ATOM      3  C   UNL     1      16.153 -10.929   0.055 -0.31 +0.00    +0.000 A 
DOCKED: ATOM      4  C   UNL     1      16.855 -10.522  -1.082 -0.25 -0.00    +0.000 A 
DOCKED: ATOM      5  C   UNL     1      18.257 -10.567  -1.100 -0.25 -0.00    +0.000 A 
DOCKED: ATOM      6  C   UNL     1      18.970 -10.161  -2.239 -0.24 -0.00    +0.000 A 
DOCKED: ATOM      7  C   UNL     1      20.373 -10.213  -2.252 -0.47 -0.00    +0.000 A 
DOCKED: ATOM      8  C   UNL     1      21.061 -10.669  -1.117 -0.51 -0.00    +0.000 A 
DOCKED: ATOM      9  C   UNL     1      20.358 -11.076   0.020 -0.54 -0.00    +0.000 A 
DOCKED: ATOM     10  C   UNL     1      18.957 -11.028   0.040 -0.46 -0.00    +0.000 A 
DOCKED: ATOM     11  C   UNL     1      18.243 -11.433   1.178 -0.47 -0.00    +0.000 A 
DOCKED: BRANCH   7  12
DOCKED: ATOM     12  C   UNL     1      21.147  -9.762  -3.463 -0.49 -0.00    +0.000 C 
DOCKED: BRANCH  12  13
DOCKED: ATOM     13  N   UNL     1      20.936 -10.705  -4.582 -0.44 -0.00    +0.000 N 
DOCKED: ATOM     14  H   UNL     1      20.802 -11.637  -4.189 -0.04 -0.00    +0.000 HD
DOCKED: BRANCH  13  15
DOCKED: ATOM     15  C   UNL     1      22.139 -10.803  -5.442 -0.42 -0.00    +0.000 C 
DOCKED: ATOM     16  C   UNL     1      22.515 -12.254  -5.734 -0.56 -0.00    +0.000 C 
DOCKED: ENDBRANCH  13  15
DOCKED: BRANCH  13  17
DOCKED: ATOM     17  C   UNL     1      19.681 -10.422  -5.322 -0.36 -0.00    +0.000 C 
DOCKED: ATOM     18  C   UNL     1      18.775 -11.646  -5.521 -0.33 -0.00    +0.000 C 
DOCKED: ENDBRANCH  13  17
DOCKED: ENDBRANCH  12  13
DOCKED: ENDBRANCH   7  12
DOCKED: ENDBRANCH   1   2
DOCKED: BRANCH   1  19
DOCKED: ATOM     19  O   UNL     1      16.309 -10.944   3.480 -0.56 +0.00    +0.000 OA
DOCKED: BRANCH  19  21
DOCKED: ATOM     20  O   UNL     1      16.030  -8.840   2.577 -0.41 +0.00    +0.000 OA
DOCKED: ATOM     21  C   UNL     1      15.781  -9.652   3.511 -0.45 +0.00    +0.000 C 
DOCKED: ATOM     22  N   UNL     1      14.990  -9.248   4.637 -0.37 +0.00    +0.000 N 
DOCKED: ATOM     23  H   UNL     1      14.952  -9.854   5.412 -0.03 +0.00    +0.000 HD
DOCKED: BRANCH  22  24
DOCKED: ATOM     24  C   UNL     1      14.249  -8.018   4.710 -0.36 +0.00    +0.000 A 
DOCKED: ATOM     25  C   UNL     1      14.885  -6.812   4.386 -0.37 +0.00    +0.000 A 
DOCKED: ATOM     26  C   UNL     1      14.194  -5.601   4.469 -0.30 +0.00    +0.000 A 
DOCKED: ATOM     27  C   UNL     1      12.852  -5.569   4.886 -0.24 +0.00    +0.000 A 
DOCKED: ATOM     28  C   UNL     1      12.226  -6.776   5.245 -0.22 +0.00    +0.000 A 
DOCKED: ATOM     29  C   UNL     1      12.918  -7.989   5.161 -0.32 +0.00    +0.000 A 
DOCKED: BRANCH  27  30
DOCKED: ATOM     30  C   UNL     1      12.133  -4.275   4.974 -0.33 +0.00    +0.000 C 
DOCKED: ATOM     31  N   UNL     1      10.735  -4.217   5.280 -0.36 +0.00    +0.000 N 
DOCKED: ATOM     32  O   UNL     1      12.758  -3.201   4.760 -0.42 +0.00    +0.000 OA
DOCKED: ATOM     33  H   UNL     1      10.216  -5.050   5.365 -0.01 +0.00    +0.000 HD
DOCKED: BRANCH  31  34
DOCKED: ATOM     34  O   UNL     1      10.122  -3.021   5.455 -0.71 +0.00    +0.000 OA
DOCKED: ATOM     35  H   UNL     1      10.657  -2.322   5.047 -0.56 +0.00    +0.000 HD
DOCKED: ENDBRANCH  31  34
DOCKED: ENDBRANCH  27  30
DOCKED: ENDBRANCH  22  24
DOCKED: ENDBRANCH  19  21
DOCKED: ENDBRANCH   1  19
DOCKED: TORSDOF 10
DOCKED: TER
DOCKED: ENDMDL
________________________________________________________________________________


	BEGINNING GENETIC ALGORITHM DOCKING 19 of 100
Run: 19 Seed: 1762586775 1703072423 [ Run 19 of 100 GA/GALS ]
Beginning LAMARCKIAN GENETIC ALGORITHM (LGA), with a maximum of 2500000 energy evaluations.

Final-Value: -14.667


	FINAL GENETIC ALGORITHM DOCKED STATE
	_______________________________________________


Detailed state:  trans 20.415 -11.013 1.645 quatxyzw -0.326627 -0.003139 0.120975 0.937374 center 1.858 0.218 -0.021 ntor 10 55.9632 -30.2832 9.5909 17.7047 158.6128 -173.6071 -171.9976 56.2741 180.0000 170.3319
State:	 20.415 -11.013   1.645  -0.938 -0.009  0.347 40.770     55.96  -30.28    9.59   17.70  158.61 -173.61 -172.00   56.27  180.00  170.33

DOCKED: MODEL       19
DOCKED: USER    Run = 19
DOCKED: USER    DPF = ligand_dock.biased.dpf
DOCKED: USER  
DOCKED: USER    Estimated Free Energy of Binding    =   -9.54 kcal/mol  [=(1)+(2)+(3)-(4)]
DOCKED: USER    Estimated Inhibition Constant, Ki   =  101.20 nM (nanomolar)  [Temperature = 298.15 K]
DOCKED: USER    
DOCKED: USER    (1) Final Intermolecular Energy     =  -12.53 kcal/mol
DOCKED: USER        vdW + Hbond + desolv Energy     =  -12.53 kcal/mol
DOCKED: USER        Electrostatic Energy            =   +0.00 kcal/mol
DOCKED: USER    (2) Final Total Internal Energy     =   -2.14 kcal/mol
DOCKED: USER    (3) Torsional Free Energy           =   +2.98 kcal/mol
DOCKED: USER    (4) Unbound System's Energy  [=(2)] =   -2.14 kcal/mol
DOCKED: USER    
DOCKED: USER    
DOCKED: USER    NEWDPF move ligand.pdbqt
DOCKED: USER    NEWDPF about 1.858000 0.218000 -0.021000
DOCKED: USER    NEWDPF tran0 20.415409 -11.012895 1.644647
DOCKED: USER    NEWDPF quaternion0 -0.326627 -0.003139 0.120975 0.937374
DOCKED: USER    NEWDPF axisangle0 -0.937709 -0.009011 0.347305 40.769684
DOCKED: USER    NEWDPF quat0 -0.937709 -0.009011 0.347305 40.769684
DOCKED: USER    NEWDPF dihe0 55.96 -30.28 9.59 17.70 158.61 -173.61 -172.00 56.27 180.00 170.33 
DOCKED: USER  keepresnum = 1 
DOCKED: USER  
DOCKED: REMARK  Name = 
DOCKED: REMARK  12 active torsions:
DOCKED: REMARK  status: ('A' for Active; 'I' for Inactive)
DOCKED: REMARK    1  A    between atoms: C_2  and  O_3
DOCKED: REMARK    2  A    between atoms: O_3  and  C_4
DOCKED: REMARK    3  A    between atoms: C_4  and  C_5
DOCKED: REMARK    4  A    between atoms: C_10  and  C_11
DOCKED: REMARK    5  A    between atoms: C_11  and  N_12
DOCKED: REMARK    6  A    between atoms: N_12  and  C_13
DOCKED: REMARK    7  A    between atoms: N_12  and  C_15
DOCKED: REMARK    8  A    between atoms: C_13  and  C_14
DOCKED: REMARK    9  A    between atoms: C_15  and  C_16
DOCKED: REMARK   10  A    between atoms: N_21  and  C_22
DOCKED: REMARK   11  A    between atoms: C_25  and  C_26
DOCKED: REMARK   12  A    between atoms: N_27  and  O_28
DOCKED: REMARK                            x       y       z     vdW  Elec       q    Type
DOCKED: REMARK                         _______ _______ _______ _____ _____    ______ ____
DOCKED: USER                              x       y       z     vdW  Elec       q    Type
DOCKED: USER                           _______ _______ _______ _____ _____    ______ ____
DOCKED: ROOT
DOCKED: ATOM      1  C   UNL     1      20.003 -12.396   2.435 -0.67 -0.00    +0.000 C 
DOCKED: ENDROOT
DOCKED: BRANCH   1   2
DOCKED: ATOM      2  C   UNL     1      18.654 -11.841   2.079 -0.41 -0.00    +0.000 A 
DOCKED: ATOM      3  C   UNL     1      18.087 -10.815   2.848 -0.48 -0.00    +0.000 A 
DOCKED: ATOM      4  C   UNL     1      16.817 -10.319   2.543 -0.41 +0.00    +0.000 A 
DOCKED: ATOM      5  C   UNL     1      16.090 -10.855   1.469 -0.34 +0.00    +0.000 A 
DOCKED: ATOM      6  C   UNL     1      14.813 -10.364   1.156 -0.26 +0.00    +0.000 A 
DOCKED: ATOM      7  C   UNL     1      14.088 -10.907   0.083 -0.28 +0.00    +0.000 A 
DOCKED: ATOM      8  C   UNL     1      14.650 -11.944  -0.679 -0.40 +0.00    +0.000 A 
DOCKED: ATOM      9  C   UNL     1      15.920 -12.438  -0.372 -0.44 +0.00    +0.000 A 
DOCKED: ATOM     10  C   UNL     1      16.649 -11.901   0.698 -0.42 +0.00    +0.000 A 
DOCKED: ATOM     11  C   UNL     1      17.925 -12.392   1.013 -0.48 +0.00    +0.000 A 
DOCKED: BRANCH   7  12
DOCKED: ATOM     12  C   UNL     1      12.725 -10.373  -0.272 -0.27 +0.00    +0.000 C 
DOCKED: BRANCH  12  13
DOCKED: ATOM     13  N   UNL     1      11.789 -10.581   0.853 -0.26 +0.00    +0.000 N 
DOCKED: ATOM     14  H   UNL     1      12.211 -10.187   1.693 -0.00 +0.00    +0.000 HD
DOCKED: BRANCH  13  15
DOCKED: ATOM     15  C   UNL     1      11.598 -12.023   1.139 -0.39 +0.00    +0.000 C 
DOCKED: ATOM     16  C   UNL     1      10.134 -12.360   1.418 -0.39 +0.00    +0.000 C 
DOCKED: ENDBRANCH  13  15
DOCKED: BRANCH  13  17
DOCKED: ATOM     17  C   UNL     1      10.524  -9.825   0.674 -0.18 +0.00    +0.000 C 
DOCKED: ATOM     18  C   UNL     1      10.033  -9.751  -0.779 -0.17 -0.00    +0.000 C 
DOCKED: ENDBRANCH  13  17
DOCKED: ENDBRANCH  12  13
DOCKED: ENDBRANCH   7  12
DOCKED: ENDBRANCH   1   2
DOCKED: BRANCH   1  19
DOCKED: ATOM     19  O   UNL     1      21.010 -11.651   1.758 -1.17 -0.00    +0.000 OA
DOCKED: BRANCH  19  21
DOCKED: ATOM     20  O   UNL     1      19.916  -9.769   0.993 -0.59 -0.00    +0.000 OA
DOCKED: ATOM     21  C   UNL     1      20.716 -10.717   0.761 -0.69 -0.00    +0.000 C 
DOCKED: ATOM     22  N   UNL     1      21.301 -10.877  -0.538 -0.62 -0.00    +0.000 N 
DOCKED: ATOM     23  H   UNL     1      21.790 -11.712  -0.722 +0.02 -0.00    +0.000 HD
DOCKED: BRANCH  22  24
DOCKED: ATOM     24  C   UNL     1      21.222  -9.900  -1.590 -0.55 -0.00    +0.000 A 
DOCKED: ATOM     25  C   UNL     1      21.359  -8.541  -1.277 -0.45 -0.00    +0.000 A 
DOCKED: ATOM     26  C   UNL     1      21.265  -7.569  -2.277 -0.41 -0.00    +0.000 A 
DOCKED: ATOM     27  C   UNL     1      21.023  -7.937  -3.611 -0.33 -0.00    +0.000 A 
DOCKED: ATOM     28  C   UNL     1      20.850  -9.299  -3.918 -0.36 -0.00    +0.000 A 
DOCKED: ATOM     29  C   UNL     1      20.945 -10.271  -2.917 -0.48 -0.00    +0.000 A 
DOCKED: BRANCH  27  30
DOCKED: ATOM     30  C   UNL     1      20.921  -6.894  -4.661 -0.23 -0.00    +0.000 C 
DOCKED: ATOM     31  N   UNL     1      20.173  -5.691  -4.449 -0.16 -0.00    +0.000 N 
DOCKED: ATOM     32  O   UNL     1      21.492  -7.073  -5.771 -0.15 -0.00    +0.000 OA
DOCKED: ATOM     33  H   UNL     1      19.653  -5.576  -3.621 -0.02 -0.00    +0.000 HD
DOCKED: BRANCH  31  34
DOCKED: ATOM     34  O   UNL     1      20.178  -4.709  -5.383 -0.08 -0.00    +0.000 OA
DOCKED: ATOM     35  H   UNL     1      20.606  -5.034  -6.191 +0.00 -0.00    +0.000 HD
DOCKED: ENDBRANCH  31  34
DOCKED: ENDBRANCH  27  30
DOCKED: ENDBRANCH  22  24
DOCKED: ENDBRANCH  19  21
DOCKED: ENDBRANCH   1  19
DOCKED: TORSDOF 10
DOCKED: TER
DOCKED: ENDMDL
________________________________________________________________________________


	BEGINNING GENETIC ALGORITHM DOCKING 20 of 100
Run: 20 Seed: 183206653 1464923748 [ Run 20 of 100 GA/GALS ]
Beginning LAMARCKIAN GENETIC ALGORITHM (LGA), with a maximum of 2500000 energy evaluations.

Final-Value: -16.954


	FINAL GENETIC ALGORITHM DOCKED STATE
	_______________________________________________


Detailed state:  trans 19.588 -10.507 2.445 quatxyzw 0.082742 -0.197876 -0.116111 -0.969803 center 1.858 0.218 -0.021 ntor 10 -26.8021 28.6475 14.7682 150.9868 31.6907 -12.8386 50.7999 -89.4473 175.3085 142.3721
State:	 19.588 -10.507   2.445   0.339 -0.811 -0.476 -28.233    -26.80   28.65   14.77  150.99   31.69  -12.84   50.80  -89.45  175.31  142.37

DOCKED: MODEL       20
DOCKED: USER    Run = 20
DOCKED: USER    DPF = ligand_dock.biased.dpf
DOCKED: USER  
DOCKED: USER    Estimated Free Energy of Binding    =  -10.67 kcal/mol  [=(1)+(2)+(3)-(4)]
DOCKED: USER    Estimated Inhibition Constant, Ki   =   15.20 nM (nanomolar)  [Temperature = 298.15 K]
DOCKED: USER    
DOCKED: USER    (1) Final Intermolecular Energy     =  -13.65 kcal/mol
DOCKED: USER        vdW + Hbond + desolv Energy     =  -13.65 kcal/mol
DOCKED: USER        Electrostatic Energy            =   +0.00 kcal/mol
DOCKED: USER    (2) Final Total Internal Energy     =   -3.31 kcal/mol
DOCKED: USER    (3) Torsional Free Energy           =   +2.98 kcal/mol
DOCKED: USER    (4) Unbound System's Energy  [=(2)] =   -3.31 kcal/mol
DOCKED: USER    
DOCKED: USER    
DOCKED: USER    NEWDPF move ligand.pdbqt
DOCKED: USER    NEWDPF about 1.858000 0.218000 -0.021000
DOCKED: USER    NEWDPF tran0 19.588008 -10.506994 2.445433
DOCKED: USER    NEWDPF quaternion0 0.082742 -0.197876 -0.116111 -0.969803
DOCKED: USER    NEWDPF axisangle0 0.339257 -0.811329 -0.476077 -28.232581
DOCKED: USER    NEWDPF quat0 0.339257 -0.811329 -0.476077 -28.232581
DOCKED: USER    NEWDPF dihe0 -26.80 28.65 14.77 150.99 31.69 -12.84 50.80 -89.45 175.31 142.37 
DOCKED: USER  keepresnum = 1 
DOCKED: USER  
DOCKED: REMARK  Name = 
DOCKED: REMARK  12 active torsions:
DOCKED: REMARK  status: ('A' for Active; 'I' for Inactive)
DOCKED: REMARK    1  A    between atoms: C_2  and  O_3
DOCKED: REMARK    2  A    between atoms: O_3  and  C_4
DOCKED: REMARK    3  A    between atoms: C_4  and  C_5
DOCKED: REMARK    4  A    between atoms: C_10  and  C_11
DOCKED: REMARK    5  A    between atoms: C_11  and  N_12
DOCKED: REMARK    6  A    between atoms: N_12  and  C_13
DOCKED: REMARK    7  A    between atoms: N_12  and  C_15
DOCKED: REMARK    8  A    between atoms: C_13  and  C_14
DOCKED: REMARK    9  A    between atoms: C_15  and  C_16
DOCKED: REMARK   10  A    between atoms: N_21  and  C_22
DOCKED: REMARK   11  A    between atoms: C_25  and  C_26
DOCKED: REMARK   12  A    between atoms: N_27  and  O_28
DOCKED: REMARK                            x       y       z     vdW  Elec       q    Type
DOCKED: REMARK                         _______ _______ _______ _____ _____    ______ ____
DOCKED: USER                              x       y       z     vdW  Elec       q    Type
DOCKED: USER                           _______ _______ _______ _____ _____    ______ ____
DOCKED: ROOT
DOCKED: ATOM      1  C   UNL     1      18.716 -11.270   3.614 -0.37 -0.00    +0.000 C 
DOCKED: ENDROOT
DOCKED: BRANCH   1   2
DOCKED: ATOM      2  C   UNL     1      17.651 -10.950   2.607 -0.44 +0.00    +0.000 A 
DOCKED: ATOM      3  C   UNL     1      17.031  -9.692   2.609 -0.38 +0.00    +0.000 A 
DOCKED: ATOM      4  C   UNL     1      16.014  -9.401   1.697 -0.25 +0.00    +0.000 A 
DOCKED: ATOM      5  C   UNL     1      15.592 -10.372   0.777 -0.28 +0.00    +0.000 A 
DOCKED: ATOM      6  C   UNL     1      14.570 -10.089  -0.142 -0.23 +0.00    +0.000 A 
DOCKED: ATOM      7  C   UNL     1      14.148 -11.068  -1.057 -0.31 +0.00    +0.000 A 
DOCKED: ATOM      8  C   UNL     1      14.758 -12.332  -1.049 -0.40 +0.00    +0.000 A 
DOCKED: ATOM      9  C   UNL     1      15.775 -12.622  -0.137 -0.49 +0.00    +0.000 A 
DOCKED: ATOM     10  C   UNL     1      16.200 -11.650   0.780 -0.39 +0.00    +0.000 A 
DOCKED: ATOM     11  C   UNL     1      17.222 -11.932   1.699 -0.28 +0.00    +0.000 A 
DOCKED: BRANCH   7  12
DOCKED: ATOM     12  C   UNL     1      13.065 -10.766  -2.059 -0.25 -0.00    +0.000 C 
DOCKED: BRANCH  12  13
DOCKED: ATOM     13  N   UNL     1      13.663 -10.425  -3.367 -0.24 -0.00    +0.000 N 
DOCKED: ATOM     14  H   UNL     1      12.913 -10.128  -3.991 -0.01 -0.00    +0.000 HD
DOCKED: BRANCH  13  15
DOCKED: ATOM     15  C   UNL     1      14.271 -11.614  -4.011 -0.24 -0.00    +0.000 C 
DOCKED: ATOM     16  C   UNL     1      13.997 -11.652  -5.513 -0.29 -0.00    +0.000 C 
DOCKED: ENDBRANCH  13  15
DOCKED: BRANCH  13  17
DOCKED: ATOM     17  C   UNL     1      14.569  -9.253  -3.278 -0.20 -0.00    +0.000 C 
DOCKED: ATOM     18  C   UNL     1      16.052  -9.613  -3.101 -0.24 -0.00    +0.000 C 
DOCKED: ENDBRANCH  13  17
DOCKED: ENDBRANCH  12  13
DOCKED: ENDBRANCH   7  12
DOCKED: ENDBRANCH   1   2
DOCKED: BRANCH   1  19
DOCKED: ATOM     19  O   UNL     1      19.995 -11.007   3.044 -0.89 -0.00    +0.000 OA
DOCKED: BRANCH  19  21
DOCKED: ATOM     20  O   UNL     1      20.767 -12.395   1.371 -1.32 -0.00    +0.000 OA
DOCKED: ATOM     21  C   UNL     1      20.293 -11.274   1.706 -0.76 -0.00    +0.000 C 
DOCKED: ATOM     22  N   UNL     1      20.095 -10.244   0.728 -0.56 -0.00    +0.000 N 
DOCKED: ATOM     23  H   UNL     1      19.875  -9.340   1.051 -0.20 -0.00    +0.000 HD
DOCKED: BRANCH  22  24
DOCKED: ATOM     24  C   UNL     1      20.194 -10.443  -0.692 -0.53 -0.00    +0.000 A 
DOCKED: ATOM     25  C   UNL     1      21.392 -10.129  -1.348 -0.58 -0.00    +0.000 A 
DOCKED: ATOM     26  C   UNL     1      21.509 -10.292  -2.731 -0.43 -0.00    +0.000 A 
DOCKED: ATOM     27  C   UNL     1      20.424 -10.765  -3.489 -0.43 -0.00    +0.000 A 
DOCKED: ATOM     28  C   UNL     1      19.211 -11.046  -2.835 -0.33 -0.00    +0.000 A 
DOCKED: ATOM     29  C   UNL     1      19.096 -10.883  -1.451 -0.40 -0.00    +0.000 A 
DOCKED: BRANCH  27  30
DOCKED: ATOM     30  C   UNL     1      20.561 -10.929  -4.957 -0.49 -0.00    +0.000 C 
DOCKED: ATOM     31  N   UNL     1      19.430 -11.224  -5.785 -0.40 -0.00    +0.000 N 
DOCKED: ATOM     32  O   UNL     1      21.699 -10.822  -5.491 -0.48 -0.00    +0.000 OA
DOCKED: ATOM     33  H   UNL     1      18.552 -11.395  -5.372 -0.03 -0.00    +0.000 HD
DOCKED: BRANCH  31  34
DOCKED: ATOM     34  O   UNL     1      19.561 -11.269  -7.132 -0.36 -0.00    +0.000 OA
DOCKED: ATOM     35  H   UNL     1      20.502 -11.313  -7.364 -0.21 -0.00    +0.000 HD
DOCKED: ENDBRANCH  31  34
DOCKED: ENDBRANCH  27  30
DOCKED: ENDBRANCH  22  24
DOCKED: ENDBRANCH  19  21
DOCKED: ENDBRANCH   1  19
DOCKED: TORSDOF 10
DOCKED: TER
DOCKED: ENDMDL
________________________________________________________________________________


	BEGINNING GENETIC ALGORITHM DOCKING 21 of 100
Run: 21 Seed: 1346217159 2083657609 [ Run 21 of 100 GA/GALS ]
Beginning LAMARCKIAN GENETIC ALGORITHM (LGA), with a maximum of 2500000 energy evaluations.

Final-Value: -16.297


	FINAL GENETIC ALGORITHM DOCKED STATE
	_______________________________________________


Detailed state:  trans 19.917 -12.276 1.000 quatxyzw 0.543077 -0.038936 0.790721 0.279841 center 1.858 0.218 -0.021 ntor 10 -143.4852 51.5953 -2.3701 168.7210 156.0085 -7.7578 102.4255 -52.4613 71.0251 117.2830
State:	 19.917 -12.276   1.000   0.566 -0.041  0.824 147.499   -143.49   51.60   -2.37  168.72  156.01   -7.76  102.43  -52.46   71.03  117.28

DOCKED: MODEL       21
DOCKED: USER    Run = 21
DOCKED: USER    DPF = ligand_dock.biased.dpf
DOCKED: USER  
DOCKED: USER    Estimated Free Energy of Binding    =  -10.86 kcal/mol  [=(1)+(2)+(3)-(4)]
DOCKED: USER    Estimated Inhibition Constant, Ki   =   10.97 nM (nanomolar)  [Temperature = 298.15 K]
DOCKED: USER    
DOCKED: USER    (1) Final Intermolecular Energy     =  -13.84 kcal/mol
DOCKED: USER        vdW + Hbond + desolv Energy     =  -13.84 kcal/mol
DOCKED: USER        Electrostatic Energy            =   +0.00 kcal/mol
DOCKED: USER    (2) Final Total Internal Energy     =   -2.45 kcal/mol
DOCKED: USER    (3) Torsional Free Energy           =   +2.98 kcal/mol
DOCKED: USER    (4) Unbound System's Energy  [=(2)] =   -2.45 kcal/mol
DOCKED: USER    
DOCKED: USER    
DOCKED: USER    NEWDPF move ligand.pdbqt
DOCKED: USER    NEWDPF about 1.858000 0.218000 -0.021000
DOCKED: USER    NEWDPF tran0 19.917331 -12.275927 0.999520
DOCKED: USER    NEWDPF quaternion0 0.543077 -0.038936 0.790721 0.279841
DOCKED: USER    NEWDPF axisangle0 0.565678 -0.040556 0.823628 147.498519
DOCKED: USER    NEWDPF quat0 0.565678 -0.040556 0.823628 147.498519
DOCKED: USER    NEWDPF dihe0 -143.49 51.60 -2.37 168.72 156.01 -7.76 102.43 -52.46 71.03 117.28 
DOCKED: USER  keepresnum = 1 
DOCKED: USER  
DOCKED: REMARK  Name = 
DOCKED: REMARK  12 active torsions:
DOCKED: REMARK  status: ('A' for Active; 'I' for Inactive)
DOCKED: REMARK    1  A    between atoms: C_2  and  O_3
DOCKED: REMARK    2  A    between atoms: O_3  and  C_4
DOCKED: REMARK    3  A    between atoms: C_4  and  C_5
DOCKED: REMARK    4  A    between atoms: C_10  and  C_11
DOCKED: REMARK    5  A    between atoms: C_11  and  N_12
DOCKED: REMARK    6  A    between atoms: N_12  and  C_13
DOCKED: REMARK    7  A    between atoms: N_12  and  C_15
DOCKED: REMARK    8  A    between atoms: C_13  and  C_14
DOCKED: REMARK    9  A    between atoms: C_15  and  C_16
DOCKED: REMARK   10  A    between atoms: N_21  and  C_22
DOCKED: REMARK   11  A    between atoms: C_25  and  C_26
DOCKED: REMARK   12  A    between atoms: N_27  and  O_28
DOCKED: REMARK                            x       y       z     vdW  Elec       q    Type
DOCKED: REMARK                         _______ _______ _______ _____ _____    ______ ____
DOCKED: USER                              x       y       z     vdW  Elec       q    Type
DOCKED: USER                           _______ _______ _______ _____ _____    ______ ____
DOCKED: ROOT
DOCKED: ATOM      1  C   UNL     1      21.015 -11.283   1.719 -0.45 -0.00    +0.000 C 
DOCKED: ENDROOT
DOCKED: BRANCH   1   2
DOCKED: ATOM      2  C   UNL     1      20.868 -10.640   0.371 -0.62 -0.00    +0.000 A 
DOCKED: ATOM      3  C   UNL     1      21.452  -9.389   0.119 -0.40 -0.00    +0.000 A 
DOCKED: ATOM      4  C   UNL     1      21.289  -8.769  -1.122 -0.47 -0.00    +0.000 A 
DOCKED: ATOM      5  C   UNL     1      20.526  -9.385  -2.124 -0.43 -0.00    +0.000 A 
DOCKED: ATOM      6  C   UNL     1      20.356  -8.768  -3.374 -0.33 -0.00    +0.000 A 
DOCKED: ATOM      7  C   UNL     1      19.587  -9.388  -4.372 -0.25 -0.00    +0.000 A 
DOCKED: ATOM      8  C   UNL     1      18.990 -10.633  -4.114 -0.33 -0.00    +0.000 A 
DOCKED: ATOM      9  C   UNL     1      19.154 -11.253  -2.873 -0.26 -0.00    +0.000 A 
DOCKED: ATOM     10  C   UNL     1      19.920 -10.639  -1.872 -0.42 -0.00    +0.000 A 
DOCKED: ATOM     11  C   UNL     1      20.090 -11.254  -0.623 -0.31 -0.00    +0.000 A 
DOCKED: BRANCH   7  12
DOCKED: ATOM     12  C   UNL     1      19.414  -8.742  -5.721 -0.17 -0.00    +0.000 C 
DOCKED: BRANCH  12  13
DOCKED: ATOM     13  N   UNL     1      20.270  -9.416  -6.721 -0.16 -0.00    +0.000 N 
DOCKED: ATOM     14  H   UNL     1      20.450  -8.759  -7.479 +0.01 -0.00    +0.000 HD
DOCKED: BRANCH  13  15
DOCKED: ATOM     15  C   UNL     1      19.572 -10.566  -7.344 -0.29 -0.00    +0.000 C 
DOCKED: ATOM     16  C   UNL     1      18.053 -10.435  -7.240 -0.28 -0.00    +0.000 C 
DOCKED: ENDBRANCH  13  15
DOCKED: BRANCH  13  17
DOCKED: ATOM     17  C   UNL     1      21.612  -9.744  -6.177 -0.31 -0.00    +0.000 C 
DOCKED: ATOM     18  C   UNL     1      21.934 -11.245  -6.151 -0.49 -0.00    +0.000 C 
DOCKED: ENDBRANCH  13  17
DOCKED: ENDBRANCH  12  13
DOCKED: ENDBRANCH   7  12
DOCKED: ENDBRANCH   1   2
DOCKED: BRANCH   1  19
DOCKED: ATOM     19  O   UNL     1      20.011 -12.281   1.874 -1.72 -0.00    +0.000 OA
DOCKED: BRANCH  19  21
DOCKED: ATOM     20  O   UNL     1      18.185 -11.112   2.664 -0.59 -0.00    +0.000 OA
DOCKED: ATOM     21  C   UNL     1      18.645 -11.984   1.876 -0.51 -0.00    +0.000 C 
DOCKED: ATOM     22  N   UNL     1      17.772 -12.713   1.004 -0.52 +0.00    +0.000 N 
DOCKED: ATOM     23  H   UNL     1      18.144 -13.489   0.524 -0.19 -0.00    +0.000 HD
DOCKED: BRANCH  22  24
DOCKED: ATOM     24  C   UNL     1      16.389 -12.388   0.782 -0.43 +0.00    +0.000 A 
DOCKED: ATOM     25  C   UNL     1      15.571 -12.084   1.879 -0.37 +0.00    +0.000 A 
DOCKED: ATOM     26  C   UNL     1      14.218 -11.786   1.693 -0.41 +0.00    +0.000 A 
DOCKED: ATOM     27  C   UNL     1      13.653 -11.794   0.406 -0.39 +0.00    +0.000 A 
DOCKED: ATOM     28  C   UNL     1      14.467 -12.135  -0.689 -0.40 +0.00    +0.000 A 
DOCKED: ATOM     29  C   UNL     1      15.821 -12.432  -0.503 -0.43 +0.00    +0.000 A 
DOCKED: BRANCH  27  30
DOCKED: ATOM     30  C   UNL     1      12.215 -11.480   0.225 -0.38 +0.00    +0.000 C 
DOCKED: ATOM     31  N   UNL     1      11.210 -12.074   1.056 -0.44 +0.00    +0.000 N 
DOCKED: ATOM     32  O   UNL     1      11.863 -10.684  -0.687 -0.31 +0.00    +0.000 OA
DOCKED: ATOM     33  H   UNL     1      11.462 -12.761   1.715 -0.34 +0.00    +0.000 HD
DOCKED: BRANCH  31  34
DOCKED: ATOM     34  O   UNL     1       9.915 -11.695   0.939 -0.43 +0.00    +0.000 OA
DOCKED: ATOM     35  H   UNL     1       9.843 -10.990   0.278 -0.02 +0.00    +0.000 HD
DOCKED: ENDBRANCH  31  34
DOCKED: ENDBRANCH  27  30
DOCKED: ENDBRANCH  22  24
DOCKED: ENDBRANCH  19  21
DOCKED: ENDBRANCH   1  19
DOCKED: TORSDOF 10
DOCKED: TER
DOCKED: ENDMDL
________________________________________________________________________________


	BEGINNING GENETIC ALGORITHM DOCKING 22 of 100
Run: 22 Seed: 105727991 536753259 [ Run 22 of 100 GA/GALS ]
Beginning LAMARCKIAN GENETIC ALGORITHM (LGA), with a maximum of 2500000 energy evaluations.

Final-Value: -15.261


	FINAL GENETIC ALGORITHM DOCKED STATE
	_______________________________________________


Detailed state:  trans 12.861 -10.914 -1.019 quatxyzw -0.766264 0.290792 0.559199 0.124803 center 1.858 0.218 -0.021 ntor 10 -77.7027 180.0000 -3.6884 4.0721 151.1301 0.5247 93.1202 80.5638 168.6125 -175.9022
State:	 12.861 -10.914  -1.019  -0.772  0.293  0.564 165.661    -77.70  180.00   -3.69    4.07  151.13    0.52   93.12   80.56  168.61 -175.90

DOCKED: MODEL       22
DOCKED: USER    Run = 22
DOCKED: USER    DPF = ligand_dock.biased.dpf
DOCKED: USER  
DOCKED: USER    Estimated Free Energy of Binding    =   -9.39 kcal/mol  [=(1)+(2)+(3)-(4)]
DOCKED: USER    Estimated Inhibition Constant, Ki   =  131.93 nM (nanomolar)  [Temperature = 298.15 K]
DOCKED: USER    
DOCKED: USER    (1) Final Intermolecular Energy     =  -12.37 kcal/mol
DOCKED: USER        vdW + Hbond + desolv Energy     =  -12.37 kcal/mol
DOCKED: USER        Electrostatic Energy            =   +0.00 kcal/mol
DOCKED: USER    (2) Final Total Internal Energy     =   -2.89 kcal/mol
DOCKED: USER    (3) Torsional Free Energy           =   +2.98 kcal/mol
DOCKED: USER    (4) Unbound System's Energy  [=(2)] =   -2.89 kcal/mol
DOCKED: USER    
DOCKED: USER    
DOCKED: USER    NEWDPF move ligand.pdbqt
DOCKED: USER    NEWDPF about 1.858000 0.218000 -0.021000
DOCKED: USER    NEWDPF tran0 12.861218 -10.914180 -1.019187
DOCKED: USER    NEWDPF quaternion0 -0.766264 0.290792 0.559199 0.124803
DOCKED: USER    NEWDPF axisangle0 -0.772302 0.293083 0.563606 165.661218
DOCKED: USER    NEWDPF quat0 -0.772302 0.293083 0.563606 165.661218
DOCKED: USER    NEWDPF dihe0 -77.70 180.00 -3.69 4.07 151.13 0.52 93.12 80.56 168.61 -175.90 
DOCKED: USER  keepresnum = 1 
DOCKED: USER  
DOCKED: REMARK  Name = 
DOCKED: REMARK  12 active torsions:
DOCKED: REMARK  status: ('A' for Active; 'I' for Inactive)
DOCKED: REMARK    1  A    between atoms: C_2  and  O_3
DOCKED: REMARK    2  A    between atoms: O_3  and  C_4
DOCKED: REMARK    3  A    between atoms: C_4  and  C_5
DOCKED: REMARK    4  A    between atoms: C_10  and  C_11
DOCKED: REMARK    5  A    between atoms: C_11  and  N_12
DOCKED: REMARK    6  A    between atoms: N_12  and  C_13
DOCKED: REMARK    7  A    between atoms: N_12  and  C_15
DOCKED: REMARK    8  A    between atoms: C_13  and  C_14
DOCKED: REMARK    9  A    between atoms: C_15  and  C_16
DOCKED: REMARK   10  A    between atoms: N_21  and  C_22
DOCKED: REMARK   11  A    between atoms: C_25  and  C_26
DOCKED: REMARK   12  A    between atoms: N_27  and  O_28
DOCKED: REMARK                            x       y       z     vdW  Elec       q    Type
DOCKED: REMARK                         _______ _______ _______ _____ _____    ______ ____
DOCKED: USER                              x       y       z     vdW  Elec       q    Type
DOCKED: USER                           _______ _______ _______ _____ _____    ______ ____
DOCKED: ROOT
DOCKED: ATOM      1  C   UNL     1      11.636 -10.095  -1.751 -0.20 -0.00    +0.000 C 
DOCKED: ENDROOT
DOCKED: BRANCH   1   2
DOCKED: ATOM      2  C   UNL     1      11.866  -9.258  -0.527 -0.14 -0.00    +0.000 A 
DOCKED: ATOM      3  C   UNL     1      11.146  -9.516   0.650 -0.13 +0.00    +0.000 A 
DOCKED: ATOM      4  C   UNL     1      11.329  -8.718   1.782 -0.10 +0.00    +0.000 A 
DOCKED: ATOM      5  C   UNL     1      12.227  -7.641   1.748 -0.08 +0.00    +0.000 A 
DOCKED: ATOM      6  C   UNL     1      12.416  -6.834   2.880 -0.09 +0.00    +0.000 A 
DOCKED: ATOM      7  C   UNL     1      13.312  -5.754   2.839 -0.14 +0.00    +0.000 A 
DOCKED: ATOM      8  C   UNL     1      14.022  -5.487   1.658 -0.17 -0.00    +0.000 A 
DOCKED: ATOM      9  C   UNL     1      13.839  -6.285   0.526 -0.18 -0.00    +0.000 A 
DOCKED: ATOM     10  C   UNL     1      12.944  -7.365   0.561 -0.12 -0.00    +0.000 A 
DOCKED: ATOM     11  C   UNL     1      12.754  -8.172  -0.571 -0.11 -0.00    +0.000 A 
DOCKED: BRANCH   7  12
DOCKED: ATOM     12  C   UNL     1      13.536  -4.894   4.056 -0.26 +0.00    +0.000 C 
DOCKED: BRANCH  12  13
DOCKED: ATOM     13  N   UNL     1      14.905  -5.095   4.576 -0.38 +0.00    +0.000 N 
DOCKED: ATOM     14  H   UNL     1      15.537  -5.178   3.781 -0.03 +0.00    +0.000 HD
DOCKED: BRANCH  13  15
DOCKED: ATOM     15  C   UNL     1      15.020  -6.375   5.315 -0.45 +0.00    +0.000 C 
DOCKED: ATOM     16  C   UNL     1      15.388  -7.535   4.392 -0.41 +0.00    +0.000 C 
DOCKED: ENDBRANCH  13  15
DOCKED: BRANCH  13  17
DOCKED: ATOM     17  C   UNL     1      15.395  -3.913   5.329 -0.54 +0.00    +0.000 C 
DOCKED: ATOM     18  C   UNL     1      16.567  -3.180   4.659 -0.50 -0.00    +0.000 C 
DOCKED: ENDBRANCH  13  17
DOCKED: ENDBRANCH  12  13
DOCKED: ENDBRANCH   7  12
DOCKED: ENDBRANCH   1   2
DOCKED: BRANCH   1  19
DOCKED: ATOM     19  O   UNL     1      12.686 -11.049  -1.871 -0.29 -0.00    +0.000 OA
DOCKED: BRANCH  19  21
DOCKED: ATOM     20  O   UNL     1      13.467 -11.832   0.155 -0.45 +0.00    +0.000 OA
DOCKED: ATOM     21  C   UNL     1      13.691 -11.191  -0.910 -0.36 +0.00    +0.000 C 
DOCKED: ATOM     22  N   UNL     1      14.960 -10.562  -1.130 -0.26 -0.00    +0.000 N 
DOCKED: ATOM     23  H   UNL     1      15.040  -9.944  -1.893 -0.00 -0.00    +0.000 HD
DOCKED: BRANCH  22  24
DOCKED: ATOM     24  C   UNL     1      16.124 -10.773  -0.313 -0.29 +0.00    +0.000 A 
DOCKED: ATOM     25  C   UNL     1      16.038 -10.567   1.071 -0.31 +0.00    +0.000 A 
DOCKED: ATOM     26  C   UNL     1      17.160 -10.745   1.885 -0.40 +0.00    +0.000 A 
DOCKED: ATOM     27  C   UNL     1      18.394 -11.124   1.330 -0.47 -0.00    +0.000 A 
DOCKED: ATOM     28  C   UNL     1      18.487 -11.296  -0.062 -0.44 -0.00    +0.000 A 
DOCKED: ATOM     29  C   UNL     1      17.364 -11.119  -0.877 -0.32 -0.00    +0.000 A 
DOCKED: BRANCH  27  30
DOCKED: ATOM     30  C   UNL     1      19.577 -11.305   2.207 -0.71 -0.00    +0.000 C 
DOCKED: ATOM     31  N   UNL     1      19.981 -10.290   3.134 -0.61 -0.00    +0.000 N 
DOCKED: ATOM     32  O   UNL     1      20.253 -12.366   2.127 -1.64 -0.00    +0.000 OA
DOCKED: ATOM     33  H   UNL     1      19.515  -9.423   3.147 -0.56 -0.00    +0.000 HD
DOCKED: BRANCH  31  34
DOCKED: ATOM     34  O   UNL     1      21.003 -10.519   3.995 -0.72 -0.00    +0.000 OA
DOCKED: ATOM     35  H   UNL     1      21.312 -11.432   3.894 -0.51 -0.00    +0.000 HD
DOCKED: ENDBRANCH  31  34
DOCKED: ENDBRANCH  27  30
DOCKED: ENDBRANCH  22  24
DOCKED: ENDBRANCH  19  21
DOCKED: ENDBRANCH   1  19
DOCKED: TORSDOF 10
DOCKED: TER
DOCKED: ENDMDL
________________________________________________________________________________


	BEGINNING GENETIC ALGORITHM DOCKING 23 of 100
Run: 23 Seed: 1730672774 170732749 [ Run 23 of 100 GA/GALS ]
Beginning LAMARCKIAN GENETIC ALGORITHM (LGA), with a maximum of 2500000 energy evaluations.

Final-Value: -15.146


	FINAL GENETIC ALGORITHM DOCKED STATE
	_______________________________________________


Detailed state:  trans 18.091 -10.565 0.943 quatxyzw 0.381404 -0.452928 0.747812 -0.300274 center 1.858 0.218 -0.021 ntor 10 21.9490 -19.7677 177.5661 -35.7762 -120.3417 1.1326 99.5243 14.1300 25.3609 -75.5615
State:	 18.091 -10.565   0.943   0.400 -0.475  0.784 -145.052     21.95  -19.77  177.57  -35.78 -120.34    1.13   99.52   14.13   25.36  -75.56

DOCKED: MODEL       23
DOCKED: USER    Run = 23
DOCKED: USER    DPF = ligand_dock.biased.dpf
DOCKED: USER  
DOCKED: USER    Estimated Free Energy of Binding    =  -10.68 kcal/mol  [=(1)+(2)+(3)-(4)]
DOCKED: USER    Estimated Inhibition Constant, Ki   =   14.92 nM (nanomolar)  [Temperature = 298.15 K]
DOCKED: USER    
DOCKED: USER    (1) Final Intermolecular Energy     =  -13.66 kcal/mol
DOCKED: USER        vdW + Hbond + desolv Energy     =  -13.66 kcal/mol
DOCKED: USER        Electrostatic Energy            =   +0.00 kcal/mol
DOCKED: USER    (2) Final Total Internal Energy     =   -1.49 kcal/mol
DOCKED: USER    (3) Torsional Free Energy           =   +2.98 kcal/mol
DOCKED: USER    (4) Unbound System's Energy  [=(2)] =   -1.49 kcal/mol
DOCKED: USER    
DOCKED: USER    
DOCKED: USER    NEWDPF move ligand.pdbqt
DOCKED: USER    NEWDPF about 1.858000 0.218000 -0.021000
DOCKED: USER    NEWDPF tran0 18.091194 -10.564703 0.942977
DOCKED: USER    NEWDPF quaternion0 0.381404 -0.452928 0.747812 -0.300274
DOCKED: USER    NEWDPF axisangle0 0.399856 -0.474840 0.783991 -145.051827
DOCKED: USER    NEWDPF quat0 0.399856 -0.474840 0.783991 -145.051827
DOCKED: USER    NEWDPF dihe0 21.95 -19.77 177.57 -35.78 -120.34 1.13 99.52 14.13 25.36 -75.56 
DOCKED: USER  keepresnum = 1 
DOCKED: USER  
DOCKED: REMARK  Name = 
DOCKED: REMARK  12 active torsions:
DOCKED: REMARK  status: ('A' for Active; 'I' for Inactive)
DOCKED: REMARK    1  A    between atoms: C_2  and  O_3
DOCKED: REMARK    2  A    between atoms: O_3  and  C_4
DOCKED: REMARK    3  A    between atoms: C_4  and  C_5
DOCKED: REMARK    4  A    between atoms: C_10  and  C_11
DOCKED: REMARK    5  A    between atoms: C_11  and  N_12
DOCKED: REMARK    6  A    between atoms: N_12  and  C_13
DOCKED: REMARK    7  A    between atoms: N_12  and  C_15
DOCKED: REMARK    8  A    between atoms: C_13  and  C_14
DOCKED: REMARK    9  A    between atoms: C_15  and  C_16
DOCKED: REMARK   10  A    between atoms: N_21  and  C_22
DOCKED: REMARK   11  A    between atoms: C_25  and  C_26
DOCKED: REMARK   12  A    between atoms: N_27  and  O_28
DOCKED: REMARK                            x       y       z     vdW  Elec       q    Type
DOCKED: REMARK                         _______ _______ _______ _____ _____    ______ ____
DOCKED: USER                              x       y       z     vdW  Elec       q    Type
DOCKED: USER                           _______ _______ _______ _____ _____    ______ ____
DOCKED: ROOT
DOCKED: ATOM      1  C   UNL     1      19.145 -11.671   1.554 -0.66 -0.00    +0.000 C 
DOCKED: ENDROOT
DOCKED: BRANCH   1   2
DOCKED: ATOM      2  C   UNL     1      19.816 -11.300   0.264 -0.56 -0.00    +0.000 A 
DOCKED: ATOM      3  C   UNL     1      21.145 -10.851   0.263 -0.58 -0.00    +0.000 A 
DOCKED: ATOM      4  C   UNL     1      21.764 -10.470  -0.930 -0.51 -0.00    +0.000 A 
DOCKED: ATOM      5  C   UNL     1      21.055 -10.519  -2.139 -0.50 -0.00    +0.000 A 
DOCKED: ATOM      6  C   UNL     1      21.669 -10.136  -3.342 -0.37 -0.00    +0.000 A 
DOCKED: ATOM      7  C   UNL     1      20.952 -10.182  -4.549 -0.39 -0.00    +0.000 A 
DOCKED: ATOM      8  C   UNL     1      19.618 -10.617  -4.547 -0.36 -0.00    +0.000 A 
DOCKED: ATOM      9  C   UNL     1      19.000 -10.999  -3.353 -0.25 -0.00    +0.000 A 
DOCKED: ATOM     10  C   UNL     1      19.709 -10.954  -2.145 -0.34 -0.00    +0.000 A 
DOCKED: ATOM     11  C   UNL     1      19.097 -11.336  -0.941 -0.40 -0.00    +0.000 A 
DOCKED: BRANCH   7  12
DOCKED: ATOM     12  C   UNL     1      21.609  -9.792  -5.847 -0.33 -0.00    +0.000 C 
DOCKED: BRANCH  12  13
DOCKED: ATOM     13  N   UNL     1      21.754 -10.976  -6.720 -0.35 -0.00    +0.000 N 
DOCKED: ATOM     14  H   UNL     1      21.379 -11.784  -6.223 -0.38 -0.00    +0.000 HD
DOCKED: BRANCH  13  15
DOCKED: ATOM     15  C   UNL     1      23.179 -11.289  -6.976 -0.44 -0.00    +0.000 C 
DOCKED: ATOM     16  C   UNL     1      23.344 -12.382  -8.031 -0.47 -0.00    +0.000 C 
DOCKED: ENDBRANCH  13  15
DOCKED: BRANCH  13  17
DOCKED: ATOM     17  C   UNL     1      20.926 -10.869  -7.948 -0.23 -0.00    +0.000 C 
DOCKED: ATOM     18  C   UNL     1      21.036  -9.518  -8.668 -0.16 -0.00    +0.000 C 
DOCKED: ENDBRANCH  13  17
DOCKED: ENDBRANCH  12  13
DOCKED: ENDBRANCH   7  12
DOCKED: ENDBRANCH   1   2
DOCKED: BRANCH   1  19
DOCKED: ATOM     19  O   UNL     1      18.067 -10.773   1.797 -0.52 -0.00    +0.000 OA
DOCKED: BRANCH  19  21
DOCKED: ATOM     20  O   UNL     1      16.411 -12.342   1.447 -0.89 +0.00    +0.000 OA
DOCKED: ATOM     21  C   UNL     1      16.729 -11.131   1.608 -0.44 +0.00    +0.000 C 
DOCKED: ATOM     22  N   UNL     1      15.733 -10.102   1.557 -0.30 +0.00    +0.000 N 
DOCKED: ATOM     23  H   UNL     1      16.039  -9.166   1.529 -0.02 +0.00    +0.000 HD
DOCKED: BRANCH  22  24
DOCKED: ATOM     24  C   UNL     1      14.316 -10.344   1.544 -0.26 +0.00    +0.000 A 
DOCKED: ATOM     25  C   UNL     1      13.789 -11.296   0.661 -0.34 +0.00    +0.000 A 
DOCKED: ATOM     26  C   UNL     1      12.413 -11.535   0.614 -0.37 +0.00    +0.000 A 
DOCKED: ATOM     27  C   UNL     1      11.533 -10.819   1.444 -0.28 +0.00    +0.000 A 
DOCKED: ATOM     28  C   UNL     1      12.059  -9.838   2.304 -0.15 +0.00    +0.000 A 
DOCKED: ATOM     29  C   UNL     1      13.437  -9.600   2.351 -0.21 +0.00    +0.000 A 
DOCKED: BRANCH  27  30
DOCKED: ATOM     30  C   UNL     1      10.074 -11.080   1.379 -0.34 +0.00    +0.000 C 
DOCKED: ATOM     31  N   UNL     1       9.560 -12.402   1.175 -0.39 +0.00    +0.000 N 
DOCKED: ATOM     32  O   UNL     1       9.265 -10.119   1.491 -0.20 +0.00    +0.000 OA
DOCKED: ATOM     33  H   UNL     1      10.180 -13.148   1.001 -0.62 -0.00    +0.000 HD
DOCKED: BRANCH  31  34
DOCKED: ATOM     34  O   UNL     1       8.226 -12.631   1.221 -0.46 -0.00    +0.000 OA
DOCKED: ATOM     35  H   UNL     1       8.051 -13.565   1.025 -0.57 -0.00    +0.000 HD
DOCKED: ENDBRANCH  31  34
DOCKED: ENDBRANCH  27  30
DOCKED: ENDBRANCH  22  24
DOCKED: ENDBRANCH  19  21
DOCKED: ENDBRANCH   1  19
DOCKED: TORSDOF 10
DOCKED: TER
DOCKED: ENDMDL
________________________________________________________________________________


	BEGINNING GENETIC ALGORITHM DOCKING 24 of 100
Run: 24 Seed: 1823083933 478904731 [ Run 24 of 100 GA/GALS ]
Beginning LAMARCKIAN GENETIC ALGORITHM (LGA), with a maximum of 2500000 energy evaluations.

Final-Value: -15.469


	FINAL GENETIC ALGORITHM DOCKED STATE
	_______________________________________________


Detailed state:  trans 18.372 -11.427 2.488 quatxyzw -0.266920 -0.272830 -0.368110 -0.847828 center 1.858 0.218 -0.021 ntor 10 -55.1007 156.2454 1.6070 -0.8967 179.2847 6.9341 -143.8542 -164.1587 126.7596 -142.3942
State:	 18.372 -11.427   2.488  -0.503 -0.515 -0.694 -64.048    -55.10  156.25    1.61   -0.90  179.28    6.93 -143.85 -164.16  126.76 -142.39

DOCKED: MODEL       24
DOCKED: USER    Run = 24
DOCKED: USER    DPF = ligand_dock.biased.dpf
DOCKED: USER  
DOCKED: USER    Estimated Free Energy of Binding    =   -9.64 kcal/mol  [=(1)+(2)+(3)-(4)]
DOCKED: USER    Estimated Inhibition Constant, Ki   =   86.52 nM (nanomolar)  [Temperature = 298.15 K]
DOCKED: USER    
DOCKED: USER    (1) Final Intermolecular Energy     =  -12.62 kcal/mol
DOCKED: USER        vdW + Hbond + desolv Energy     =  -12.62 kcal/mol
DOCKED: USER        Electrostatic Energy            =   +0.00 kcal/mol
DOCKED: USER    (2) Final Total Internal Energy     =   -2.85 kcal/mol
DOCKED: USER    (3) Torsional Free Energy           =   +2.98 kcal/mol
DOCKED: USER    (4) Unbound System's Energy  [=(2)] =   -2.85 kcal/mol
DOCKED: USER    
DOCKED: USER    
DOCKED: USER    NEWDPF move ligand.pdbqt
DOCKED: USER    NEWDPF about 1.858000 0.218000 -0.021000
DOCKED: USER    NEWDPF tran0 18.372292 -11.427263 2.487540
DOCKED: USER    NEWDPF quaternion0 -0.266920 -0.272830 -0.368110 -0.847828
DOCKED: USER    NEWDPF axisangle0 -0.503365 -0.514511 -0.694192 -64.047585
DOCKED: USER    NEWDPF quat0 -0.503365 -0.514511 -0.694192 -64.047585
DOCKED: USER    NEWDPF dihe0 -55.10 156.25 1.61 -0.90 179.28 6.93 -143.85 -164.16 126.76 -142.39 
DOCKED: USER  keepresnum = 1 
DOCKED: USER  
DOCKED: REMARK  Name = 
DOCKED: REMARK  12 active torsions:
DOCKED: REMARK  status: ('A' for Active; 'I' for Inactive)
DOCKED: REMARK    1  A    between atoms: C_2  and  O_3
DOCKED: REMARK    2  A    between atoms: O_3  and  C_4
DOCKED: REMARK    3  A    between atoms: C_4  and  C_5
DOCKED: REMARK    4  A    between atoms: C_10  and  C_11
DOCKED: REMARK    5  A    between atoms: C_11  and  N_12
DOCKED: REMARK    6  A    between atoms: N_12  and  C_13
DOCKED: REMARK    7  A    between atoms: N_12  and  C_15
DOCKED: REMARK    8  A    between atoms: C_13  and  C_14
DOCKED: REMARK    9  A    between atoms: C_15  and  C_16
DOCKED: REMARK   10  A    between atoms: N_21  and  C_22
DOCKED: REMARK   11  A    between atoms: C_25  and  C_26
DOCKED: REMARK   12  A    between atoms: N_27  and  O_28
DOCKED: REMARK                            x       y       z     vdW  Elec       q    Type
DOCKED: REMARK                         _______ _______ _______ _____ _____    ______ ____
DOCKED: USER                              x       y       z     vdW  Elec       q    Type
DOCKED: USER                           _______ _______ _______ _____ _____    ______ ____
DOCKED: ROOT
DOCKED: ATOM      1  C   UNL     1      17.375 -10.758   3.613 -0.21 +0.00    +0.000 C 
DOCKED: ENDROOT
DOCKED: BRANCH   1   2
DOCKED: ATOM      2  C   UNL     1      16.618 -10.490   2.345 -0.40 +0.00    +0.000 A 
DOCKED: ATOM      3  C   UNL     1      16.085  -9.216   2.096 -0.27 +0.00    +0.000 A 
DOCKED: ATOM      4  C   UNL     1      15.349  -8.970   0.935 -0.21 +0.00    +0.000 A 
DOCKED: ATOM      5  C   UNL     1      15.123 -10.002   0.011 -0.24 +0.00    +0.000 A 
DOCKED: ATOM      6  C   UNL     1      14.383  -9.764  -1.157 -0.22 -0.00    +0.000 A 
DOCKED: ATOM      7  C   UNL     1      14.156 -10.801  -2.076 -0.29 -0.00    +0.000 A 
DOCKED: ATOM      8  C   UNL     1      14.677 -12.080  -1.820 -0.28 +0.00    +0.000 A 
DOCKED: ATOM      9  C   UNL     1      15.413 -12.324  -0.659 -0.41 +0.00    +0.000 A 
DOCKED: ATOM     10  C   UNL     1      15.643 -11.293   0.263 -0.33 +0.00    +0.000 A 
DOCKED: ATOM     11  C   UNL     1      16.382 -11.530   1.432 -0.39 +0.00    +0.000 A 
DOCKED: BRANCH   7  12
DOCKED: ATOM     12  C   UNL     1      13.379 -10.550  -3.342 -0.21 -0.00    +0.000 C 
DOCKED: BRANCH  12  13
DOCKED: ATOM     13  N   UNL     1      14.232 -10.809  -4.522 -0.25 -0.00    +0.000 N 
DOCKED: ATOM     14  H   UNL     1      14.861 -11.578  -4.295 -0.03 -0.00    +0.000 HD
DOCKED: BRANCH  13  15
DOCKED: ATOM     15  C   UNL     1      15.108  -9.651  -4.821 -0.17 -0.00    +0.000 C 
DOCKED: ATOM     16  C   UNL     1      16.578  -9.961  -4.546 -0.23 -0.00    +0.000 C 
DOCKED: ENDBRANCH  13  15
DOCKED: BRANCH  13  17
DOCKED: ATOM     17  C   UNL     1      13.446 -11.292  -5.684 -0.21 -0.00    +0.000 C 
DOCKED: ATOM     18  C   UNL     1      14.095 -12.457  -6.446 -0.35 -0.00    +0.000 C 
DOCKED: ENDBRANCH  13  17
DOCKED: ENDBRANCH  12  13
DOCKED: ENDBRANCH   7  12
DOCKED: ENDBRANCH   1   2
DOCKED: BRANCH   1  19
DOCKED: ATOM     19  O   UNL     1      18.454 -11.645   3.336 -0.43 -0.00    +0.000 OA
DOCKED: BRANCH  19  21
DOCKED: ATOM     20  O   UNL     1      19.952 -12.541   1.826 -1.66 -0.00    +0.000 OA
DOCKED: ATOM     21  C   UNL     1      19.200 -11.582   2.156 -0.67 -0.00    +0.000 C 
DOCKED: ATOM     22  N   UNL     1      19.132 -10.397   1.351 -0.49 -0.00    +0.000 N 
DOCKED: ATOM     23  H   UNL     1      18.661  -9.616   1.722 -0.06 -0.00    +0.000 HD
DOCKED: BRANCH  22  24
DOCKED: ATOM     24  C   UNL     1      19.705 -10.274   0.038 -0.42 -0.00    +0.000 A 
DOCKED: ATOM     25  C   UNL     1      19.153 -11.003  -1.024 -0.42 -0.00    +0.000 A 
DOCKED: ATOM     26  C   UNL     1      19.704 -10.918  -2.305 -0.37 -0.00    +0.000 A 
DOCKED: ATOM     27  C   UNL     1      20.826 -10.107  -2.549 -0.49 -0.00    +0.000 A 
DOCKED: ATOM     28  C   UNL     1      21.401  -9.403  -1.475 -0.52 -0.00    +0.000 A 
DOCKED: ATOM     29  C   UNL     1      20.848  -9.489  -0.193 -0.54 -0.00    +0.000 A 
DOCKED: BRANCH  27  30
DOCKED: ATOM     30  C   UNL     1      21.403 -10.030  -3.914 -0.48 -0.00    +0.000 C 
DOCKED: ATOM     31  N   UNL     1      21.203 -11.078  -4.869 -0.48 -0.00    +0.000 N 
DOCKED: ATOM     32  O   UNL     1      22.096  -9.028  -4.239 -0.37 -0.00    +0.000 OA
DOCKED: ATOM     33  H   UNL     1      20.737 -11.903  -4.602 -0.06 -0.00    +0.000 HD
DOCKED: BRANCH  31  34
DOCKED: ATOM     34  O   UNL     1      21.653 -10.940  -6.140 -0.43 -0.00    +0.000 OA
DOCKED: ATOM     35  H   UNL     1      22.108 -10.088  -6.231 -0.01 -0.00    +0.000 HD
DOCKED: ENDBRANCH  31  34
DOCKED: ENDBRANCH  27  30
DOCKED: ENDBRANCH  22  24
DOCKED: ENDBRANCH  19  21
DOCKED: ENDBRANCH   1  19
DOCKED: TORSDOF 10
DOCKED: TER
DOCKED: ENDMDL
________________________________________________________________________________


	BEGINNING GENETIC ALGORITHM DOCKING 25 of 100
Run: 25 Seed: 1661829022 811456781 [ Run 25 of 100 GA/GALS ]
Beginning LAMARCKIAN GENETIC ALGORITHM (LGA), with a maximum of 2500000 energy evaluations.

Final-Value: -15.067


	FINAL GENETIC ALGORITHM DOCKED STATE
	_______________________________________________


Detailed state:  trans 20.983 -10.477 -6.030 quatxyzw 0.986455 -0.021623 -0.067261 -0.148036 center 1.858 0.218 -0.021 ntor 10 49.5040 154.4821 176.7099 -103.2599 -28.1864 122.8909 30.4744 107.7413 -9.3618 -146.0748
State:	 20.983 -10.477  -6.030   0.997 -0.022 -0.068 -162.974     49.50  154.48  176.71 -103.26  -28.19  122.89   30.47  107.74   -9.36 -146.07

DOCKED: MODEL       25
DOCKED: USER    Run = 25
DOCKED: USER    DPF = ligand_dock.biased.dpf
DOCKED: USER  
DOCKED: USER    Estimated Free Energy of Binding    =   -9.58 kcal/mol  [=(1)+(2)+(3)-(4)]
DOCKED: USER    Estimated Inhibition Constant, Ki   =   95.52 nM (nanomolar)  [Temperature = 298.15 K]
DOCKED: USER    
DOCKED: USER    (1) Final Intermolecular Energy     =  -12.56 kcal/mol
DOCKED: USER        vdW + Hbond + desolv Energy     =  -12.56 kcal/mol
DOCKED: USER        Electrostatic Energy            =   +0.00 kcal/mol
DOCKED: USER    (2) Final Total Internal Energy     =   -2.51 kcal/mol
DOCKED: USER    (3) Torsional Free Energy           =   +2.98 kcal/mol
DOCKED: USER    (4) Unbound System's Energy  [=(2)] =   -2.51 kcal/mol
DOCKED: USER    
DOCKED: USER    
DOCKED: USER    NEWDPF move ligand.pdbqt
DOCKED: USER    NEWDPF about 1.858000 0.218000 -0.021000
DOCKED: USER    NEWDPF tran0 20.983142 -10.477414 -6.030427
DOCKED: USER    NEWDPF quaternion0 0.986455 -0.021623 -0.067261 -0.148036
DOCKED: USER    NEWDPF axisangle0 0.997445 -0.021864 -0.068011 -162.973730
DOCKED: USER    NEWDPF quat0 0.997445 -0.021864 -0.068011 -162.973730
DOCKED: USER    NEWDPF dihe0 49.50 154.48 176.71 -103.26 -28.19 122.89 30.47 107.74 -9.36 -146.07 
DOCKED: USER  keepresnum = 1 
DOCKED: USER  
DOCKED: REMARK  Name = 
DOCKED: REMARK  12 active torsions:
DOCKED: REMARK  status: ('A' for Active; 'I' for Inactive)
DOCKED: REMARK    1  A    between atoms: C_2  and  O_3
DOCKED: REMARK    2  A    between atoms: O_3  and  C_4
DOCKED: REMARK    3  A    between atoms: C_4  and  C_5
DOCKED: REMARK    4  A    between atoms: C_10  and  C_11
DOCKED: REMARK    5  A    between atoms: C_11  and  N_12
DOCKED: REMARK    6  A    between atoms: N_12  and  C_13
DOCKED: REMARK    7  A    between atoms: N_12  and  C_15
DOCKED: REMARK    8  A    between atoms: C_13  and  C_14
DOCKED: REMARK    9  A    between atoms: C_15  and  C_16
DOCKED: REMARK   10  A    between atoms: N_21  and  C_22
DOCKED: REMARK   11  A    between atoms: C_25  and  C_26
DOCKED: REMARK   12  A    between atoms: N_27  and  O_28
DOCKED: REMARK                            x       y       z     vdW  Elec       q    Type
DOCKED: REMARK                         _______ _______ _______ _____ _____    ______ ____
DOCKED: USER                              x       y       z     vdW  Elec       q    Type
DOCKED: USER                           _______ _______ _______ _____ _____    ______ ____
DOCKED: ROOT
DOCKED: ATOM      1  C   UNL     1      20.634 -10.273  -7.625 -0.26 -0.00    +0.000 C 
DOCKED: ENDROOT
DOCKED: BRANCH   1   2
DOCKED: ATOM      2  C   UNL     1      19.320  -9.932  -6.985 -0.21 -0.00    +0.000 A 
DOCKED: ATOM      3  C   UNL     1      19.033  -8.607  -6.624 -0.10 -0.00    +0.000 A 
DOCKED: ATOM      4  C   UNL     1      17.827  -8.289  -5.996 -0.10 -0.00    +0.000 A 
DOCKED: ATOM      5  C   UNL     1      16.895  -9.296  -5.707 -0.13 -0.00    +0.000 A 
DOCKED: ATOM      6  C   UNL     1      15.681  -8.986  -5.074 -0.13 -0.00    +0.000 A 
DOCKED: ATOM      7  C   UNL     1      14.754  -9.999  -4.783 -0.18 -0.00    +0.000 A 
DOCKED: ATOM      8  C   UNL     1      15.047 -11.327  -5.131 -0.25 -0.00    +0.000 A 
DOCKED: ATOM      9  C   UNL     1      16.253 -11.644  -5.760 -0.16 -0.00    +0.000 A 
DOCKED: ATOM     10  C   UNL     1      17.184 -10.637  -6.053 -0.26 -0.00    +0.000 A 
DOCKED: ATOM     11  C   UNL     1      18.398 -10.947  -6.684 -0.32 -0.00    +0.000 A 
DOCKED: BRANCH   7  12
DOCKED: ATOM     12  C   UNL     1      13.441  -9.672  -4.122 -0.18 -0.00    +0.000 C 
DOCKED: BRANCH  12  13
DOCKED: ATOM     13  N   UNL     1      13.268 -10.491  -2.902 -0.25 -0.00    +0.000 N 
DOCKED: ATOM     14  H   UNL     1      13.147 -11.462  -3.187 -0.07 -0.00    +0.000 HD
DOCKED: BRANCH  13  15
DOCKED: ATOM     15  C   UNL     1      12.026 -10.128  -2.179 -0.19 -0.00    +0.000 C 
DOCKED: ATOM     16  C   UNL     1      12.201 -10.220  -0.664 -0.25 +0.00    +0.000 C 
DOCKED: ENDBRANCH  13  15
DOCKED: BRANCH  13  17
DOCKED: ATOM     17  C   UNL     1      14.486 -10.493  -2.054 -0.30 -0.00    +0.000 C 
DOCKED: ATOM     18  C   UNL     1      14.835 -11.862  -1.454 -0.38 +0.00    +0.000 C 
DOCKED: ENDBRANCH  13  17
DOCKED: ENDBRANCH  12  13
DOCKED: ENDBRANCH   7  12
DOCKED: ENDBRANCH   1   2
DOCKED: BRANCH   1  19
DOCKED: ATOM     19  O   UNL     1      21.633 -10.383  -6.616 -0.33 -0.00    +0.000 OA
DOCKED: BRANCH  19  21
DOCKED: ATOM     20  O   UNL     1      21.755 -12.021  -4.996 -0.69 -0.00    +0.000 OA
DOCKED: ATOM     21  C   UNL     1      21.361 -10.870  -5.335 -0.50 -0.00    +0.000 C 
DOCKED: ATOM     22  N   UNL     1      20.593 -10.066  -4.432 -0.35 -0.00    +0.000 N 
DOCKED: ATOM     23  H   UNL     1      20.172  -9.249  -4.787 +0.00 -0.00    +0.000 HD
DOCKED: BRANCH  22  24
DOCKED: ATOM     24  C   UNL     1      20.395 -10.371  -3.041 -0.44 -0.00    +0.000 A 
DOCKED: ATOM     25  C   UNL     1      19.099 -10.626  -2.571 -0.36 -0.00    +0.000 A 
DOCKED: ATOM     26  C   UNL     1      18.876 -10.904  -1.219 -0.40 -0.00    +0.000 A 
DOCKED: ATOM     27  C   UNL     1      19.945 -10.924  -0.307 -0.52 -0.00    +0.000 A 
DOCKED: ATOM     28  C   UNL     1      21.239 -10.632  -0.773 -0.56 -0.00    +0.000 A 
DOCKED: ATOM     29  C   UNL     1      21.462 -10.355  -2.126 -0.47 -0.00    +0.000 A 
DOCKED: BRANCH  27  30
DOCKED: ATOM     30  C   UNL     1      19.692 -11.216   1.125 -0.68 -0.00    +0.000 C 
DOCKED: ATOM     31  N   UNL     1      20.444 -12.213   1.828 -0.71 -0.00    +0.000 N 
DOCKED: ATOM     32  O   UNL     1      18.788 -10.586   1.738 -0.62 -0.00    +0.000 OA
DOCKED: ATOM     33  H   UNL     1      21.094 -12.771   1.342 -0.53 -0.00    +0.000 HD
DOCKED: BRANCH  31  34
DOCKED: ATOM     34  O   UNL     1      20.266 -12.391   3.159 -1.07 -0.00    +0.000 OA
DOCKED: ATOM     35  H   UNL     1      20.810 -13.134   3.462 -0.62 -0.00    +0.000 HD
DOCKED: ENDBRANCH  31  34
DOCKED: ENDBRANCH  27  30
DOCKED: ENDBRANCH  22  24
DOCKED: ENDBRANCH  19  21
DOCKED: ENDBRANCH   1  19
DOCKED: TORSDOF 10
DOCKED: TER
DOCKED: ENDMDL
________________________________________________________________________________


	BEGINNING GENETIC ALGORITHM DOCKING 26 of 100
Run: 26 Seed: 597183013 45569750 [ Run 26 of 100 GA/GALS ]
Beginning LAMARCKIAN GENETIC ALGORITHM (LGA), with a maximum of 2500000 energy evaluations.

Final-Value: -14.710


	FINAL GENETIC ALGORITHM DOCKED STATE
	_______________________________________________


Detailed state:  trans 19.929 -10.502 1.602 quatxyzw -0.521218 -0.144440 0.021679 0.840833 center 1.858 0.218 -0.021 ntor 10 -153.5837 -152.8241 12.9462 178.9924 -101.2615 -179.9713 175.1180 -131.1169 33.1580 86.2924
State:	 19.929 -10.502   1.602  -0.963 -0.267  0.040 65.544   -153.58 -152.82   12.95  178.99 -101.26 -179.97  175.12 -131.12   33.16   86.29

DOCKED: MODEL       26
DOCKED: USER    Run = 26
DOCKED: USER    DPF = ligand_dock.biased.dpf
DOCKED: USER  
DOCKED: USER    Estimated Free Energy of Binding    =   -9.43 kcal/mol  [=(1)+(2)+(3)-(4)]
DOCKED: USER    Estimated Inhibition Constant, Ki   =  122.37 nM (nanomolar)  [Temperature = 298.15 K]
DOCKED: USER    
DOCKED: USER    (1) Final Intermolecular Energy     =  -12.41 kcal/mol
DOCKED: USER        vdW + Hbond + desolv Energy     =  -12.41 kcal/mol
DOCKED: USER        Electrostatic Energy            =   +0.00 kcal/mol
DOCKED: USER    (2) Final Total Internal Energy     =   -2.30 kcal/mol
DOCKED: USER    (3) Torsional Free Energy           =   +2.98 kcal/mol
DOCKED: USER    (4) Unbound System's Energy  [=(2)] =   -2.30 kcal/mol
DOCKED: USER    
DOCKED: USER    
DOCKED: USER    NEWDPF move ligand.pdbqt
DOCKED: USER    NEWDPF about 1.858000 0.218000 -0.021000
DOCKED: USER    NEWDPF tran0 19.929473 -10.501562 1.601684
DOCKED: USER    NEWDPF quaternion0 -0.521218 -0.144440 0.021679 0.840833
DOCKED: USER    NEWDPF axisangle0 -0.962908 -0.266840 0.040050 65.543726
DOCKED: USER    NEWDPF quat0 -0.962908 -0.266840 0.040050 65.543726
DOCKED: USER    NEWDPF dihe0 -153.58 -152.82 12.95 178.99 -101.26 -179.97 175.12 -131.12 33.16 86.29 
DOCKED: USER  keepresnum = 1 
DOCKED: USER  
DOCKED: REMARK  Name = 
DOCKED: REMARK  12 active torsions:
DOCKED: REMARK  status: ('A' for Active; 'I' for Inactive)
DOCKED: REMARK    1  A    between atoms: C_2  and  O_3
DOCKED: REMARK    2  A    between atoms: O_3  and  C_4
DOCKED: REMARK    3  A    between atoms: C_4  and  C_5
DOCKED: REMARK    4  A    between atoms: C_10  and  C_11
DOCKED: REMARK    5  A    between atoms: C_11  and  N_12
DOCKED: REMARK    6  A    between atoms: N_12  and  C_13
DOCKED: REMARK    7  A    between atoms: N_12  and  C_15
DOCKED: REMARK    8  A    between atoms: C_13  and  C_14
DOCKED: REMARK    9  A    between atoms: C_15  and  C_16
DOCKED: REMARK   10  A    between atoms: N_21  and  C_22
DOCKED: REMARK   11  A    between atoms: C_25  and  C_26
DOCKED: REMARK   12  A    between atoms: N_27  and  O_28
DOCKED: REMARK                            x       y       z     vdW  Elec       q    Type
DOCKED: REMARK                         _______ _______ _______ _____ _____    ______ ____
DOCKED: USER                              x       y       z     vdW  Elec       q    Type
DOCKED: USER                           _______ _______ _______ _____ _____    ______ ____
DOCKED: ROOT
DOCKED: ATOM      1  C   UNL     1      19.987 -12.144   1.693 -0.74 -0.00    +0.000 C 
DOCKED: ENDROOT
DOCKED: BRANCH   1   2
DOCKED: ATOM      2  C   UNL     1      18.508 -11.892   1.756 -0.47 -0.00    +0.000 A 
DOCKED: ATOM      3  C   UNL     1      17.630 -12.642   0.960 -0.40 +0.00    +0.000 A 
DOCKED: ATOM      4  C   UNL     1      16.256 -12.388   0.988 -0.40 +0.00    +0.000 A 
DOCKED: ATOM      5  C   UNL     1      15.744 -11.369   1.802 -0.39 +0.00    +0.000 A 
DOCKED: ATOM      6  C   UNL     1      14.365 -11.106   1.835 -0.37 +0.00    +0.000 A 
DOCKED: ATOM      7  C   UNL     1      13.858 -10.080   2.649 -0.28 +0.00    +0.000 A 
DOCKED: ATOM      8  C   UNL     1      14.739  -9.320   3.435 -0.33 +0.00    +0.000 A 
DOCKED: ATOM      9  C   UNL     1      16.112  -9.574   3.407 -0.38 +0.00    +0.000 A 
DOCKED: ATOM     10  C   UNL     1      16.625 -10.596   2.596 -0.42 +0.00    +0.000 A 
DOCKED: ATOM     11  C   UNL     1      18.003 -10.859   2.562 -0.48 -0.00    +0.000 A 
DOCKED: BRANCH   7  12
DOCKED: ATOM     12  C   UNL     1      12.378  -9.804   2.705 -0.17 +0.00    +0.000 C 
DOCKED: BRANCH  12  13
DOCKED: ATOM     13  N   UNL     1      11.916  -9.248   1.415 -0.13 +0.00    +0.000 N 
DOCKED: ATOM     14  H   UNL     1      11.171  -8.580   1.607 +0.00 +0.00    +0.000 HD
DOCKED: BRANCH  13  15
DOCKED: ATOM     15  C   UNL     1      11.305 -10.295   0.562 -0.25 +0.00    +0.000 C 
DOCKED: ATOM     16  C   UNL     1      11.034 -11.580   1.343 -0.42 +0.00    +0.000 C 
DOCKED: ENDBRANCH  13  15
DOCKED: BRANCH  13  17
DOCKED: ATOM     17  C   UNL     1      12.973  -8.455   0.739 -0.14 +0.00    +0.000 C 
DOCKED: ATOM     18  C   UNL     1      13.037  -6.985   1.179 -0.14 +0.00    +0.000 C 
DOCKED: ENDBRANCH  13  17
DOCKED: ENDBRANCH  12  13
DOCKED: ENDBRANCH   7  12
DOCKED: ENDBRANCH   1   2
DOCKED: BRANCH   1  19
DOCKED: ATOM     19  O   UNL     1      20.654 -10.933   1.352 -0.92 -0.00    +0.000 OA
DOCKED: BRANCH  19  21
DOCKED: ATOM     20  O   UNL     1      22.142 -10.186  -0.245 -0.73 -0.00    +0.000 OA
DOCKED: ATOM     21  C   UNL     1      20.982 -10.596   0.037 -0.70 -0.00    +0.000 C 
DOCKED: ATOM     22  N   UNL     1      19.973 -10.683  -0.977 -0.49 -0.00    +0.000 N 
DOCKED: ATOM     23  H   UNL     1      19.046 -10.854  -0.690 -0.01 -0.00    +0.000 HD
DOCKED: BRANCH  22  24
DOCKED: ATOM     24  C   UNL     1      20.222 -10.536  -2.386 -0.45 -0.00    +0.000 A 
DOCKED: ATOM     25  C   UNL     1      21.483 -10.869  -2.899 -0.30 -0.00    +0.000 A 
DOCKED: ATOM     26  C   UNL     1      21.758 -10.716  -4.260 -0.43 -0.00    +0.000 A 
DOCKED: ATOM     27  C   UNL     1      20.779 -10.218  -5.137 -0.35 -0.00    +0.000 A 
DOCKED: ATOM     28  C   UNL     1      19.525  -9.851  -4.615 -0.27 -0.00    +0.000 A 
DOCKED: ATOM     29  C   UNL     1      19.250 -10.005  -3.252 -0.32 -0.00    +0.000 A 
DOCKED: BRANCH  27  30
DOCKED: ATOM     30  C   UNL     1      21.087 -10.057  -6.579 -0.30 -0.00    +0.000 C 
DOCKED: ATOM     31  N   UNL     1      21.550 -11.157  -7.371 -0.25 -0.00    +0.000 N 
DOCKED: ATOM     32  O   UNL     1      20.955  -8.925  -7.120 -0.14 -0.00    +0.000 OA
DOCKED: ATOM     33  H   UNL     1      21.739 -12.024  -6.944 -0.54 -0.00    +0.000 HD
DOCKED: BRANCH  31  34
DOCKED: ATOM     34  O   UNL     1      21.727 -11.010  -8.707 -0.30 -0.00    +0.000 OA
DOCKED: ATOM     35  H   UNL     1      21.698 -10.068  -8.935 -0.00 -0.00    +0.000 HD
DOCKED: ENDBRANCH  31  34
DOCKED: ENDBRANCH  27  30
DOCKED: ENDBRANCH  22  24
DOCKED: ENDBRANCH  19  21
DOCKED: ENDBRANCH   1  19
DOCKED: TORSDOF 10
DOCKED: TER
DOCKED: ENDMDL
________________________________________________________________________________


	BEGINNING GENETIC ALGORITHM DOCKING 27 of 100
Run: 27 Seed: 603974382 529323926 [ Run 27 of 100 GA/GALS ]
Beginning LAMARCKIAN GENETIC ALGORITHM (LGA), with a maximum of 2500000 energy evaluations.

Final-Value: -15.977


	FINAL GENETIC ALGORITHM DOCKED STATE
	_______________________________________________


Detailed state:  trans 13.397 -6.825 4.819 quatxyzw 0.146895 -0.368866 -0.863022 -0.312334 center 1.858 0.218 -0.021 ntor 10 -164.3963 60.4482 -19.9271 -28.2310 -141.7819 -32.3455 129.7241 56.0460 172.0603 -162.9373
State:	 13.397  -6.825   4.819   0.155 -0.388 -0.908 -143.600   -164.40   60.45  -19.93  -28.23 -141.78  -32.35  129.72   56.05  172.06 -162.94

DOCKED: MODEL       27
DOCKED: USER    Run = 27
DOCKED: USER    DPF = ligand_dock.biased.dpf
DOCKED: USER  
DOCKED: USER    Estimated Free Energy of Binding    =  -10.80 kcal/mol  [=(1)+(2)+(3)-(4)]
DOCKED: USER    Estimated Inhibition Constant, Ki   =   12.03 nM (nanomolar)  [Temperature = 298.15 K]
DOCKED: USER    
DOCKED: USER    (1) Final Intermolecular Energy     =  -13.79 kcal/mol
DOCKED: USER        vdW + Hbond + desolv Energy     =  -13.79 kcal/mol
DOCKED: USER        Electrostatic Energy            =   +0.00 kcal/mol
DOCKED: USER    (2) Final Total Internal Energy     =   -2.19 kcal/mol
DOCKED: USER    (3) Torsional Free Energy           =   +2.98 kcal/mol
DOCKED: USER    (4) Unbound System's Energy  [=(2)] =   -2.19 kcal/mol
DOCKED: USER    
DOCKED: USER    
DOCKED: USER    NEWDPF move ligand.pdbqt
DOCKED: USER    NEWDPF about 1.858000 0.218000 -0.021000
DOCKED: USER    NEWDPF tran0 13.397425 -6.825025 4.819377
DOCKED: USER    NEWDPF quaternion0 0.146895 -0.368866 -0.863022 -0.312334
DOCKED: USER    NEWDPF axisangle0 0.154631 -0.388292 -0.908471 -143.600106
DOCKED: USER    NEWDPF quat0 0.154631 -0.388292 -0.908471 -143.600106
DOCKED: USER    NEWDPF dihe0 -164.40 60.45 -19.93 -28.23 -141.78 -32.35 129.72 56.05 172.06 -162.94 
DOCKED: USER  keepresnum = 1 
DOCKED: USER  
DOCKED: REMARK  Name = 
DOCKED: REMARK  12 active torsions:
DOCKED: REMARK  status: ('A' for Active; 'I' for Inactive)
DOCKED: REMARK    1  A    between atoms: C_2  and  O_3
DOCKED: REMARK    2  A    between atoms: O_3  and  C_4
DOCKED: REMARK    3  A    between atoms: C_4  and  C_5
DOCKED: REMARK    4  A    between atoms: C_10  and  C_11
DOCKED: REMARK    5  A    between atoms: C_11  and  N_12
DOCKED: REMARK    6  A    between atoms: N_12  and  C_13
DOCKED: REMARK    7  A    between atoms: N_12  and  C_15
DOCKED: REMARK    8  A    between atoms: C_13  and  C_14
DOCKED: REMARK    9  A    between atoms: C_15  and  C_16
DOCKED: REMARK   10  A    between atoms: N_21  and  C_22
DOCKED: REMARK   11  A    between atoms: C_25  and  C_26
DOCKED: REMARK   12  A    between atoms: N_27  and  O_28
DOCKED: REMARK                            x       y       z     vdW  Elec       q    Type
DOCKED: REMARK                         _______ _______ _______ _____ _____    ______ ____
DOCKED: USER                              x       y       z     vdW  Elec       q    Type
DOCKED: USER                           _______ _______ _______ _____ _____    ______ ____
DOCKED: ROOT
DOCKED: ATOM      1  C   UNL     1      12.508  -5.555   5.371 -0.26 +0.00    +0.000 C 
DOCKED: ENDROOT
DOCKED: BRANCH   1   2
DOCKED: ATOM      2  C   UNL     1      13.783  -4.874   4.968 -0.32 +0.00    +0.000 A 
DOCKED: ATOM      3  C   UNL     1      14.845  -4.768   5.879 -0.38 +0.00    +0.000 A 
DOCKED: ATOM      4  C   UNL     1      16.021  -4.104   5.522 -0.47 -0.00    +0.000 A 
DOCKED: ATOM      5  C   UNL     1      16.146  -3.524   4.251 -0.44 -0.00    +0.000 A 
DOCKED: ATOM      6  C   UNL     1      17.323  -2.854   3.884 -0.39 -0.00    +0.000 A 
DOCKED: ATOM      7  C   UNL     1      17.440  -2.271   2.612 -0.41 -0.00    +0.000 A 
DOCKED: ATOM      8  C   UNL     1      16.373  -2.366   1.706 -0.23 -0.00    +0.000 A 
DOCKED: ATOM      9  C   UNL     1      15.197  -3.030   2.063 -0.24 -0.00    +0.000 A 
DOCKED: ATOM     10  C   UNL     1      15.073  -3.613   3.332 -0.31 -0.00    +0.000 A 
DOCKED: ATOM     11  C   UNL     1      13.896  -4.282   3.700 -0.23 -0.00    +0.000 A 
DOCKED: BRANCH   7  12
DOCKED: ATOM     12  C   UNL     1      18.708  -1.567   2.203 -0.43 -0.00    +0.000 C 
DOCKED: BRANCH  12  13
DOCKED: ATOM     13  N   UNL     1      19.735  -2.555   1.811 -0.47 -0.00    +0.000 N 
DOCKED: ATOM     14  H   UNL     1      19.300  -3.477   1.801 -0.02 +0.00    +0.000 HD
DOCKED: BRANCH  13  15
DOCKED: ATOM     15  C   UNL     1      20.821  -2.636   2.817 -0.66 -0.00    +0.000 C 
DOCKED: ATOM     16  C   UNL     1      20.566  -1.711   4.007 -0.74 -0.00    +0.000 C 
DOCKED: ENDBRANCH  13  15
DOCKED: BRANCH  13  17
DOCKED: ATOM     17  C   UNL     1      20.210  -2.345   0.421 -0.41 -0.00    +0.000 C 
DOCKED: ATOM     18  C   UNL     1      21.736  -2.234   0.285 -0.40 -0.00    +0.000 C 
DOCKED: ENDBRANCH  13  17
DOCKED: ENDBRANCH  12  13
DOCKED: ENDBRANCH   7  12
DOCKED: ENDBRANCH   1   2
DOCKED: BRANCH   1  19
DOCKED: ATOM     19  O   UNL     1      12.525  -6.899   4.900 -0.27 +0.00    +0.000 OA
DOCKED: BRANCH  19  21
DOCKED: ATOM     20  O   UNL     1      14.688  -7.608   5.273 -0.48 +0.00    +0.000 OA
DOCKED: ATOM     21  C   UNL     1      13.697  -7.542   4.494 -0.32 +0.00    +0.000 C 
DOCKED: ATOM     22  N   UNL     1      13.772  -8.085   3.170 -0.20 +0.00    +0.000 N 
DOCKED: ATOM     23  H   UNL     1      13.041  -7.875   2.545 +0.01 +0.00    +0.000 HD
DOCKED: BRANCH  22  24
DOCKED: ATOM     24  C   UNL     1      14.844  -8.917   2.693 -0.28 +0.00    +0.000 A 
DOCKED: ATOM     25  C   UNL     1      16.060  -8.937   3.389 -0.33 +0.00    +0.000 A 
DOCKED: ATOM     26  C   UNL     1      17.125  -9.720   2.935 -0.37 +0.00    +0.000 A 
DOCKED: ATOM     27  C   UNL     1      16.998 -10.494   1.769 -0.38 +0.00    +0.000 A 
DOCKED: ATOM     28  C   UNL     1      15.788 -10.446   1.052 -0.29 +0.00    +0.000 A 
DOCKED: ATOM     29  C   UNL     1      14.723  -9.662   1.507 -0.24 +0.00    +0.000 A 
DOCKED: BRANCH  27  30
DOCKED: ATOM     30  C   UNL     1      18.138 -11.317   1.297 -0.52 -0.00    +0.000 C 
DOCKED: ATOM     31  N   UNL     1      19.250 -11.611   2.150 -0.59 -0.00    +0.000 N 
DOCKED: ATOM     32  O   UNL     1      18.139 -11.756   0.115 -0.53 -0.00    +0.000 OA
DOCKED: ATOM     33  H   UNL     1      19.303 -11.205   3.045 -0.01 -0.00    +0.000 HD
DOCKED: BRANCH  31  34
DOCKED: ATOM     34  O   UNL     1      20.230 -12.448   1.731 -1.67 -0.00    +0.000 OA
DOCKED: ATOM     35  H   UNL     1      19.899 -12.995   1.002 -0.47 -0.00    +0.000 HD
DOCKED: ENDBRANCH  31  34
DOCKED: ENDBRANCH  27  30
DOCKED: ENDBRANCH  22  24
DOCKED: ENDBRANCH  19  21
DOCKED: ENDBRANCH   1  19
DOCKED: TORSDOF 10
DOCKED: TER
DOCKED: ENDMDL
________________________________________________________________________________


	BEGINNING GENETIC ALGORITHM DOCKING 28 of 100
Run: 28 Seed: 1515231397 1002188545 [ Run 28 of 100 GA/GALS ]
Beginning LAMARCKIAN GENETIC ALGORITHM (LGA), with a maximum of 2500000 energy evaluations.

Final-Value: -15.855


	FINAL GENETIC ALGORITHM DOCKED STATE
	_______________________________________________


Detailed state:  trans 13.777 -10.260 -2.376 quatxyzw 0.141541 -0.921656 -0.221865 -0.285119 center 1.858 0.218 -0.021 ntor 10 -154.2924 99.5047 16.7750 -14.6060 -27.7995 47.3036 179.9976 -64.3318 -165.4552 161.7127
State:	 13.777 -10.260  -2.376   0.148 -0.962 -0.231 -146.868   -154.29   99.50   16.77  -14.61  -27.80   47.30  180.00  -64.33 -165.46  161.71

DOCKED: MODEL       28
DOCKED: USER    Run = 28
DOCKED: USER    DPF = ligand_dock.biased.dpf
DOCKED: USER  
DOCKED: USER    Estimated Free Energy of Binding    =  -10.36 kcal/mol  [=(1)+(2)+(3)-(4)]
DOCKED: USER    Estimated Inhibition Constant, Ki   =   25.61 nM (nanomolar)  [Temperature = 298.15 K]
DOCKED: USER    
DOCKED: USER    (1) Final Intermolecular Energy     =  -13.34 kcal/mol
DOCKED: USER        vdW + Hbond + desolv Energy     =  -13.34 kcal/mol
DOCKED: USER        Electrostatic Energy            =   +0.00 kcal/mol
DOCKED: USER    (2) Final Total Internal Energy     =   -2.52 kcal/mol
DOCKED: USER    (3) Torsional Free Energy           =   +2.98 kcal/mol
DOCKED: USER    (4) Unbound System's Energy  [=(2)] =   -2.52 kcal/mol
DOCKED: USER    
DOCKED: USER    
DOCKED: USER    NEWDPF move ligand.pdbqt
DOCKED: USER    NEWDPF about 1.858000 0.218000 -0.021000
DOCKED: USER    NEWDPF tran0 13.776558 -10.260175 -2.376479
DOCKED: USER    NEWDPF quaternion0 0.141541 -0.921656 -0.221865 -0.285119
DOCKED: USER    NEWDPF axisangle0 0.147671 -0.961568 -0.231473 -146.868063
DOCKED: USER    NEWDPF quat0 0.147671 -0.961568 -0.231473 -146.868063
DOCKED: USER    NEWDPF dihe0 -154.29 99.50 16.77 -14.61 -27.80 47.30 180.00 -64.33 -165.46 161.71 
DOCKED: USER  keepresnum = 1 
DOCKED: USER  
DOCKED: REMARK  Name = 
DOCKED: REMARK  12 active torsions:
DOCKED: REMARK  status: ('A' for Active; 'I' for Inactive)
DOCKED: REMARK    1  A    between atoms: C_2  and  O_3
DOCKED: REMARK    2  A    between atoms: O_3  and  C_4
DOCKED: REMARK    3  A    between atoms: C_4  and  C_5
DOCKED: REMARK    4  A    between atoms: C_10  and  C_11
DOCKED: REMARK    5  A    between atoms: C_11  and  N_12
DOCKED: REMARK    6  A    between atoms: N_12  and  C_13
DOCKED: REMARK    7  A    between atoms: N_12  and  C_15
DOCKED: REMARK    8  A    between atoms: C_13  and  C_14
DOCKED: REMARK    9  A    between atoms: C_15  and  C_16
DOCKED: REMARK   10  A    between atoms: N_21  and  C_22
DOCKED: REMARK   11  A    between atoms: C_25  and  C_26
DOCKED: REMARK   12  A    between atoms: N_27  and  O_28
DOCKED: REMARK                            x       y       z     vdW  Elec       q    Type
DOCKED: REMARK                         _______ _______ _______ _____ _____    ______ ____
DOCKED: USER                              x       y       z     vdW  Elec       q    Type
DOCKED: USER                           _______ _______ _______ _____ _____    ______ ____
DOCKED: ROOT
DOCKED: ATOM      1  C   UNL     1      13.108 -10.274  -3.880 -0.16 -0.00    +0.000 C 
DOCKED: ENDROOT
DOCKED: BRANCH   1   2
DOCKED: ATOM      2  C   UNL     1      14.548  -9.994  -4.196 -0.19 -0.00    +0.000 A 
DOCKED: ATOM      3  C   UNL     1      15.143  -8.795  -3.774 -0.16 -0.00    +0.000 A 
DOCKED: ATOM      4  C   UNL     1      16.473  -8.513  -4.096 -0.12 -0.00    +0.000 A 
DOCKED: ATOM      5  C   UNL     1      17.223  -9.421  -4.857 -0.18 -0.00    +0.000 A 
DOCKED: ATOM      6  C   UNL     1      18.559  -9.145  -5.186 -0.17 -0.00    +0.000 A 
DOCKED: ATOM      7  C   UNL     1      19.303 -10.056  -5.953 -0.24 -0.00    +0.000 A 
DOCKED: ATOM      8  C   UNL     1      18.704 -11.249  -6.387 -0.34 -0.00    +0.000 A 
DOCKED: ATOM      9  C   UNL     1      17.374 -11.530  -6.065 -0.25 -0.00    +0.000 A 
DOCKED: ATOM     10  C   UNL     1      16.625 -10.625  -5.300 -0.22 -0.00    +0.000 A 
DOCKED: ATOM     11  C   UNL     1      15.289 -10.899  -4.971 -0.23 -0.00    +0.000 A 
DOCKED: BRANCH   7  12
DOCKED: ATOM     12  C   UNL     1      20.743  -9.776  -6.294 -0.27 -0.00    +0.000 C 
DOCKED: BRANCH  12  13
DOCKED: ATOM     13  N   UNL     1      21.439 -11.036  -6.634 -0.33 -0.00    +0.000 N 
DOCKED: ATOM     14  H   UNL     1      20.736 -11.727  -6.890 -0.36 -0.00    +0.000 HD
DOCKED: BRANCH  13  15
DOCKED: ATOM     15  C   UNL     1      22.144 -11.599  -5.457 -0.56 -0.00    +0.000 C 
DOCKED: ATOM     16  C   UNL     1      21.732 -10.905  -4.160 -0.49 -0.00    +0.000 C 
DOCKED: ENDBRANCH  13  15
DOCKED: BRANCH  13  17
DOCKED: ATOM     17  C   UNL     1      22.291 -10.895  -7.841 -0.34 -0.00    +0.000 C 
DOCKED: ATOM     18  C   UNL     1      23.283 -12.048  -8.052 -0.48 -0.00    +0.000 C 
DOCKED: ENDBRANCH  13  17
DOCKED: ENDBRANCH  12  13
DOCKED: ENDBRANCH   7  12
DOCKED: ENDBRANCH   1   2
DOCKED: BRANCH   1  19
DOCKED: ATOM     19  O   UNL     1      12.990 -10.632  -2.507 -0.29 -0.00    +0.000 OA
DOCKED: BRANCH  19  21
DOCKED: ATOM     20  O   UNL     1      14.665 -12.140  -2.012 -0.43 +0.00    +0.000 OA
DOCKED: ATOM     21  C   UNL     1      14.079 -11.055  -1.741 -0.34 -0.00    +0.000 C 
DOCKED: ATOM     22  N   UNL     1      14.493 -10.263  -0.620 -0.23 +0.00    +0.000 N 
DOCKED: ATOM     23  H   UNL     1      13.915  -9.512  -0.349 +0.00 +0.00    +0.000 HD
DOCKED: BRANCH  22  24
DOCKED: ATOM     24  C   UNL     1      15.695 -10.490   0.136 -0.27 +0.00    +0.000 A 
DOCKED: ATOM     25  C   UNL     1      16.827 -11.002  -0.512 -0.32 -0.00    +0.000 A 
DOCKED: ATOM     26  C   UNL     1      18.002 -11.252   0.203 -0.42 -0.00    +0.000 A 
DOCKED: ATOM     27  C   UNL     1      18.065 -11.004   1.585 -0.45 -0.00    +0.000 A 
DOCKED: ATOM     28  C   UNL     1      16.916 -10.524   2.240 -0.41 +0.00    +0.000 A 
DOCKED: ATOM     29  C   UNL     1      15.742 -10.273   1.524 -0.31 +0.00    +0.000 A 
DOCKED: BRANCH  27  30
DOCKED: ATOM     30  C   UNL     1      19.316 -11.279   2.331 -0.69 -0.00    +0.000 C 
DOCKED: ATOM     31  N   UNL     1      19.903 -10.297   3.193 -0.63 -0.00    +0.000 N 
DOCKED: ATOM     32  O   UNL     1      19.888 -12.395   2.196 -1.66 -0.00    +0.000 OA
DOCKED: ATOM     33  H   UNL     1      19.516  -9.393   3.242 -0.58 -0.00    +0.000 HD
DOCKED: BRANCH  31  34
DOCKED: ATOM     34  O   UNL     1      20.989 -10.606   3.942 -0.68 -0.00    +0.000 OA
DOCKED: ATOM     35  H   UNL     1      21.401 -11.413   3.597 -0.54 -0.00    +0.000 HD
DOCKED: ENDBRANCH  31  34
DOCKED: ENDBRANCH  27  30
DOCKED: ENDBRANCH  22  24
DOCKED: ENDBRANCH  19  21
DOCKED: ENDBRANCH   1  19
DOCKED: TORSDOF 10
DOCKED: TER
DOCKED: ENDMDL
________________________________________________________________________________


	BEGINNING GENETIC ALGORITHM DOCKING 29 of 100
Run: 29 Seed: 2119037873 796371925 [ Run 29 of 100 GA/GALS ]
Beginning LAMARCKIAN GENETIC ALGORITHM (LGA), with a maximum of 2500000 energy evaluations.

Final-Value: -15.218


	FINAL GENETIC ALGORITHM DOCKED STATE
	_______________________________________________


Detailed state:  trans 20.354 -7.381 -4.519 quatxyzw -0.666151 0.662614 0.234741 -0.249163 center 1.858 0.218 -0.021 ntor 10 161.5119 110.4304 6.0385 -58.1185 83.0475 100.5281 -172.3025 79.1961 -20.1459 -173.5606
State:	 20.354  -7.381  -4.519  -0.688  0.684  0.242 -151.144    161.51  110.43    6.04  -58.12   83.05  100.53 -172.30   79.20  -20.15 -173.56

DOCKED: MODEL       29
DOCKED: USER    Run = 29
DOCKED: USER    DPF = ligand_dock.biased.dpf
DOCKED: USER  
DOCKED: USER    Estimated Free Energy of Binding    =   -9.84 kcal/mol  [=(1)+(2)+(3)-(4)]
DOCKED: USER    Estimated Inhibition Constant, Ki   =   61.28 nM (nanomolar)  [Temperature = 298.15 K]
DOCKED: USER    
DOCKED: USER    (1) Final Intermolecular Energy     =  -12.82 kcal/mol
DOCKED: USER        vdW + Hbond + desolv Energy     =  -12.82 kcal/mol
DOCKED: USER        Electrostatic Energy            =   +0.00 kcal/mol
DOCKED: USER    (2) Final Total Internal Energy     =   -2.39 kcal/mol
DOCKED: USER    (3) Torsional Free Energy           =   +2.98 kcal/mol
DOCKED: USER    (4) Unbound System's Energy  [=(2)] =   -2.39 kcal/mol
DOCKED: USER    
DOCKED: USER    
DOCKED: USER    NEWDPF move ligand.pdbqt
DOCKED: USER    NEWDPF about 1.858000 0.218000 -0.021000
DOCKED: USER    NEWDPF tran0 20.353761 -7.381347 -4.519444
DOCKED: USER    NEWDPF quaternion0 -0.666151 0.662614 0.234741 -0.249163
DOCKED: USER    NEWDPF axisangle0 -0.687845 0.684192 0.242385 -151.144020
DOCKED: USER    NEWDPF quat0 -0.687845 0.684192 0.242385 -151.144020
DOCKED: USER    NEWDPF dihe0 161.51 110.43 6.04 -58.12 83.05 100.53 -172.30 79.20 -20.15 -173.56 
DOCKED: USER  keepresnum = 1 
DOCKED: USER  
DOCKED: REMARK  Name = 
DOCKED: REMARK  12 active torsions:
DOCKED: REMARK  status: ('A' for Active; 'I' for Inactive)
DOCKED: REMARK    1  A    between atoms: C_2  and  O_3
DOCKED: REMARK    2  A    between atoms: O_3  and  C_4
DOCKED: REMARK    3  A    between atoms: C_4  and  C_5
DOCKED: REMARK    4  A    between atoms: C_10  and  C_11
DOCKED: REMARK    5  A    between atoms: C_11  and  N_12
DOCKED: REMARK    6  A    between atoms: N_12  and  C_13
DOCKED: REMARK    7  A    between atoms: N_12  and  C_15
DOCKED: REMARK    8  A    between atoms: C_13  and  C_14
DOCKED: REMARK    9  A    between atoms: C_15  and  C_16
DOCKED: REMARK   10  A    between atoms: N_21  and  C_22
DOCKED: REMARK   11  A    between atoms: C_25  and  C_26
DOCKED: REMARK   12  A    between atoms: N_27  and  O_28
DOCKED: REMARK                            x       y       z     vdW  Elec       q    Type
DOCKED: REMARK                         _______ _______ _______ _____ _____    ______ ____
DOCKED: USER                              x       y       z     vdW  Elec       q    Type
DOCKED: USER                           _______ _______ _______ _____ _____    ______ ____
DOCKED: ROOT
DOCKED: ATOM      1  C   UNL     1      21.036  -6.298  -5.553 -0.13 -0.00    +0.000 C 
DOCKED: ENDROOT
DOCKED: BRANCH   1   2
DOCKED: ATOM      2  C   UNL     1      21.117  -5.560  -4.249 -0.19 -0.00    +0.000 A 
DOCKED: ATOM      3  C   UNL     1      22.138  -5.855  -3.333 -0.21 -0.00    +0.000 A 
DOCKED: ATOM      4  C   UNL     1      22.199  -5.196  -2.103 -0.35 +0.00    +0.000 A 
DOCKED: ATOM      5  C   UNL     1      21.228  -4.241  -1.765 -0.36 -0.00    +0.000 A 
DOCKED: ATOM      6  C   UNL     1      21.281  -3.576  -0.531 -0.33 +0.00    +0.000 A 
DOCKED: ATOM      7  C   UNL     1      20.304  -2.624  -0.197 -0.34 -0.00    +0.000 A 
DOCKED: ATOM      8  C   UNL     1      19.274  -2.338  -1.107 -0.19 -0.00    +0.000 A 
DOCKED: ATOM      9  C   UNL     1      19.215  -2.997  -2.337 -0.15 -0.00    +0.000 A 
DOCKED: ATOM     10  C   UNL     1      20.186  -3.949  -2.677 -0.21 -0.00    +0.000 A 
DOCKED: ATOM     11  C   UNL     1      20.135  -4.616  -3.911 -0.16 -0.00    +0.000 A 
DOCKED: BRANCH   7  12
DOCKED: ATOM     12  C   UNL     1      20.363  -1.891   1.118 -0.43 -0.00    +0.000 C 
DOCKED: BRANCH  12  13
DOCKED: ATOM     13  N   UNL     1      18.996  -1.580   1.589 -0.32 -0.00    +0.000 N 
DOCKED: ATOM     14  H   UNL     1      18.376  -1.576   0.780 -0.00 -0.00    +0.000 HD
DOCKED: BRANCH  13  15
DOCKED: ATOM     15  C   UNL     1      18.918  -0.214   2.159 -0.34 -0.00    +0.000 C 
DOCKED: ATOM     16  C   UNL     1      20.225   0.199   2.833 -0.45 -0.00    +0.000 C 
DOCKED: ENDBRANCH  13  15
DOCKED: BRANCH  13  17
DOCKED: ATOM     17  C   UNL     1      18.457  -2.640   2.477 -0.36 -0.00    +0.000 C 
DOCKED: ATOM     18  C   UNL     1      17.065  -2.336   3.049 -0.48 -0.00    +0.000 C 
DOCKED: ENDBRANCH  13  17
DOCKED: ENDBRANCH  12  13
DOCKED: ENDBRANCH   7  12
DOCKED: ENDBRANCH   1   2
DOCKED: BRANCH   1  19
DOCKED: ATOM     19  O   UNL     1      20.648  -7.645  -5.305 -0.17 -0.00    +0.000 OA
DOCKED: BRANCH  19  21
DOCKED: ATOM     20  O   UNL     1      19.121  -7.850  -3.588 -0.05 -0.00    +0.000 OA
DOCKED: ATOM     21  C   UNL     1      20.272  -8.102  -4.039 -0.29 -0.00    +0.000 C 
DOCKED: ATOM     22  N   UNL     1      21.226  -8.821  -3.247 -0.41 -0.00    +0.000 N 
DOCKED: ATOM     23  H   UNL     1      22.156  -8.858  -3.568 -0.04 -0.00    +0.000 HD
DOCKED: BRANCH  22  24
DOCKED: ATOM     24  C   UNL     1      20.916  -9.491  -2.013 -0.51 -0.00    +0.000 A 
DOCKED: ATOM     25  C   UNL     1      19.712 -10.201  -1.900 -0.39 -0.00    +0.000 A 
DOCKED: ATOM     26  C   UNL     1      19.376 -10.843  -0.706 -0.45 -0.00    +0.000 A 
DOCKED: ATOM     27  C   UNL     1      20.234 -10.782   0.406 -0.59 -0.00    +0.000 A 
DOCKED: ATOM     28  C   UNL     1      21.425 -10.040   0.303 -0.51 -0.00    +0.000 A 
DOCKED: ATOM     29  C   UNL     1      21.761  -9.398  -0.893 -0.29 -0.00    +0.000 A 
DOCKED: BRANCH  27  30
DOCKED: ATOM     30  C   UNL     1      19.862 -11.465   1.669 -0.73 -0.00    +0.000 C 
DOCKED: ATOM     31  N   UNL     1      19.696 -10.737   2.891 -0.65 -0.00    +0.000 N 
DOCKED: ATOM     32  O   UNL     1      19.702 -12.716   1.674 -1.52 -0.00    +0.000 OA
DOCKED: ATOM     33  H   UNL     1      19.901  -9.774   2.920 -0.52 -0.00    +0.000 HD
DOCKED: BRANCH  31  34
DOCKED: ATOM     34  O   UNL     1      19.258 -11.367   4.008 -0.68 -0.00    +0.000 OA
DOCKED: ATOM     35  H   UNL     1      19.194 -12.319   3.838 -0.02 -0.00    +0.000 HD
DOCKED: ENDBRANCH  31  34
DOCKED: ENDBRANCH  27  30
DOCKED: ENDBRANCH  22  24
DOCKED: ENDBRANCH  19  21
DOCKED: ENDBRANCH   1  19
DOCKED: TORSDOF 10
DOCKED: TER
DOCKED: ENDMDL
________________________________________________________________________________


	BEGINNING GENETIC ALGORITHM DOCKING 30 of 100
Run: 30 Seed: 1175172410 1625115093 [ Run 30 of 100 GA/GALS ]
Beginning LAMARCKIAN GENETIC ALGORITHM (LGA), with a maximum of 2500000 energy evaluations.

Final-Value: -15.910


	FINAL GENETIC ALGORITHM DOCKED STATE
	_______________________________________________


Detailed state:  trans 20.799 -10.332 -5.612 quatxyzw -0.987326 -0.116365 0.071715 0.080645 center 1.858 0.218 -0.021 ntor 10 -64.1765 179.7306 26.0734 -20.8511 -101.1505 -18.5066 -149.9272 107.2814 166.4627 -155.2848
State:	 20.799 -10.332  -5.612  -0.991 -0.117  0.072 170.749    -64.18  179.73   26.07  -20.85 -101.15  -18.51 -149.93  107.28  166.46 -155.28

DOCKED: MODEL       30
DOCKED: USER    Run = 30
DOCKED: USER    DPF = ligand_dock.biased.dpf
DOCKED: USER  
DOCKED: USER    Estimated Free Energy of Binding    =  -10.05 kcal/mol  [=(1)+(2)+(3)-(4)]
DOCKED: USER    Estimated Inhibition Constant, Ki   =   43.34 nM (nanomolar)  [Temperature = 298.15 K]
DOCKED: USER    
DOCKED: USER    (1) Final Intermolecular Energy     =  -13.03 kcal/mol
DOCKED: USER        vdW + Hbond + desolv Energy     =  -13.03 kcal/mol
DOCKED: USER        Electrostatic Energy            =   +0.00 kcal/mol
DOCKED: USER    (2) Final Total Internal Energy     =   -2.88 kcal/mol
DOCKED: USER    (3) Torsional Free Energy           =   +2.98 kcal/mol
DOCKED: USER    (4) Unbound System's Energy  [=(2)] =   -2.88 kcal/mol
DOCKED: USER    
DOCKED: USER    
DOCKED: USER    NEWDPF move ligand.pdbqt
DOCKED: USER    NEWDPF about 1.858000 0.218000 -0.021000
DOCKED: USER    NEWDPF tran0 20.798633 -10.332135 -5.612142
DOCKED: USER    NEWDPF quaternion0 -0.987326 -0.116365 0.071715 0.080645
DOCKED: USER    NEWDPF axisangle0 -0.990552 -0.116745 0.071949 170.748747
DOCKED: USER    NEWDPF quat0 -0.990552 -0.116745 0.071949 170.748747
DOCKED: USER    NEWDPF dihe0 -64.18 179.73 26.07 -20.85 -101.15 -18.51 -149.93 107.28 166.46 -155.28 
DOCKED: USER  keepresnum = 1 
DOCKED: USER  
DOCKED: REMARK  Name = 
DOCKED: REMARK  12 active torsions:
DOCKED: REMARK  status: ('A' for Active; 'I' for Inactive)
DOCKED: REMARK    1  A    between atoms: C_2  and  O_3
DOCKED: REMARK    2  A    between atoms: O_3  and  C_4
DOCKED: REMARK    3  A    between atoms: C_4  and  C_5
DOCKED: REMARK    4  A    between atoms: C_10  and  C_11
DOCKED: REMARK    5  A    between atoms: C_11  and  N_12
DOCKED: REMARK    6  A    between atoms: N_12  and  C_13
DOCKED: REMARK    7  A    between atoms: N_12  and  C_15
DOCKED: REMARK    8  A    between atoms: C_13  and  C_14
DOCKED: REMARK    9  A    between atoms: C_15  and  C_16
DOCKED: REMARK   10  A    between atoms: N_21  and  C_22
DOCKED: REMARK   11  A    between atoms: C_25  and  C_26
DOCKED: REMARK   12  A    between atoms: N_27  and  O_28
DOCKED: REMARK                            x       y       z     vdW  Elec       q    Type
DOCKED: REMARK                         _______ _______ _______ _____ _____    ______ ____
DOCKED: USER                              x       y       z     vdW  Elec       q    Type
DOCKED: USER                           _______ _______ _______ _____ _____    ______ ____
DOCKED: ROOT
DOCKED: ATOM      1  C   UNL     1      20.304  -9.999  -7.146 -0.25 -0.00    +0.000 C 
DOCKED: ENDROOT
DOCKED: BRANCH   1   2
DOCKED: ATOM      2  C   UNL     1      18.992 -10.110  -6.426 -0.24 -0.00    +0.000 A 
DOCKED: ATOM      3  C   UNL     1      18.306 -11.334  -6.395 -0.33 -0.00    +0.000 A 
DOCKED: ATOM      4  C   UNL     1      17.067 -11.435  -5.758 -0.19 -0.00    +0.000 A 
DOCKED: ATOM      5  C   UNL     1      16.490 -10.309  -5.153 -0.21 -0.00    +0.000 A 
DOCKED: ATOM      6  C   UNL     1      15.245 -10.401  -4.512 -0.22 -0.00    +0.000 A 
DOCKED: ATOM      7  C   UNL     1      14.670  -9.269  -3.913 -0.16 -0.00    +0.000 A 
DOCKED: ATOM      8  C   UNL     1      15.350  -8.041  -3.956 -0.14 -0.00    +0.000 A 
DOCKED: ATOM      9  C   UNL     1      16.589  -7.941  -4.594 -0.12 -0.00    +0.000 A 
DOCKED: ATOM     10  C   UNL     1      17.168  -9.067  -5.194 -0.15 -0.00    +0.000 A 
DOCKED: ATOM     11  C   UNL     1      18.412  -8.976  -5.837 -0.14 -0.00    +0.000 A 
DOCKED: BRANCH   7  12
DOCKED: ATOM     12  C   UNL     1      13.344  -9.363  -3.206 -0.19 -0.00    +0.000 C 
DOCKED: BRANCH  12  13
DOCKED: ATOM     13  N   UNL     1      13.552  -9.625  -1.765 -0.18 -0.00    +0.000 N 
DOCKED: ATOM     14  H   UNL     1      14.532  -9.443  -1.549 -0.00 -0.00    +0.000 HD
DOCKED: BRANCH  13  15
DOCKED: ATOM     15  C   UNL     1      13.328 -11.053  -1.436 -0.31 -0.00    +0.000 C 
DOCKED: ATOM     16  C   UNL     1      14.643 -11.813  -1.269 -0.41 +0.00    +0.000 C 
DOCKED: ENDBRANCH  13  15
DOCKED: BRANCH  13  17
DOCKED: ATOM     17  C   UNL     1      12.793  -8.678  -0.910 -0.14 -0.00    +0.000 C 
DOCKED: ATOM     18  C   UNL     1      13.673  -7.724  -0.090 -0.21 -0.00    +0.000 C 
DOCKED: ENDBRANCH  13  17
DOCKED: ENDBRANCH  12  13
DOCKED: ENDBRANCH   7  12
DOCKED: ENDBRANCH   1   2
DOCKED: BRANCH   1  19
DOCKED: ATOM     19  O   UNL     1      21.362  -9.987  -6.193 -0.30 -0.00    +0.000 OA
DOCKED: BRANCH  19  21
DOCKED: ATOM     20  O   UNL     1      21.812 -11.642  -4.649 -0.61 -0.00    +0.000 OA
DOCKED: ATOM     21  C   UNL     1      21.238 -10.551  -4.920 -0.48 -0.00    +0.000 C 
DOCKED: ATOM     22  N   UNL     1      20.416  -9.897  -3.945 -0.35 -0.00    +0.000 N 
DOCKED: ATOM     23  H   UNL     1      19.864  -9.138  -4.244 +0.00 -0.00    +0.000 HD
DOCKED: BRANCH  22  24
DOCKED: ATOM     24  C   UNL     1      20.345 -10.273  -2.559 -0.45 -0.00    +0.000 A 
DOCKED: ATOM     25  C   UNL     1      21.496 -10.184  -1.763 -0.47 -0.00    +0.000 A 
DOCKED: ATOM     26  C   UNL     1      21.460 -10.564  -0.419 -0.61 -0.00    +0.000 A 
DOCKED: ATOM     27  C   UNL     1      20.273 -11.049   0.156 -0.57 -0.00    +0.000 A 
DOCKED: ATOM     28  C   UNL     1      19.128 -11.171  -0.653 -0.44 -0.00    +0.000 A 
DOCKED: ATOM     29  C   UNL     1      19.165 -10.791  -1.998 -0.38 -0.00    +0.000 A 
DOCKED: BRANCH  27  30
DOCKED: ATOM     30  C   UNL     1      20.251 -11.453   1.583 -0.76 -0.00    +0.000 C 
DOCKED: ATOM     31  N   UNL     1      20.638 -10.545   2.622 -0.61 -0.00    +0.000 N 
DOCKED: ATOM     32  O   UNL     1      19.898 -12.623   1.893 -1.62 -0.00    +0.000 OA
DOCKED: ATOM     33  H   UNL     1      20.996  -9.658   2.390 -0.56 -0.00    +0.000 HD
DOCKED: BRANCH  31  34
DOCKED: ATOM     34  O   UNL     1      20.513 -10.903   3.923 -0.81 -0.00    +0.000 OA
DOCKED: ATOM     35  H   UNL     1      20.554 -11.869   3.999 -0.43 -0.00    +0.000 HD
DOCKED: ENDBRANCH  31  34
DOCKED: ENDBRANCH  27  30
DOCKED: ENDBRANCH  22  24
DOCKED: ENDBRANCH  19  21
DOCKED: ENDBRANCH   1  19
DOCKED: TORSDOF 10
DOCKED: TER
DOCKED: ENDMDL
________________________________________________________________________________


	BEGINNING GENETIC ALGORITHM DOCKING 31 of 100
Run: 31 Seed: 1044843276 1832370131 [ Run 31 of 100 GA/GALS ]
Beginning LAMARCKIAN GENETIC ALGORITHM (LGA), with a maximum of 2500000 energy evaluations.

Final-Value: -14.940


	FINAL GENETIC ALGORITHM DOCKED STATE
	_______________________________________________


Detailed state:  trans 19.630 -8.017 -4.826 quatxyzw -0.960255 -0.190013 0.128597 0.158961 center 1.858 0.218 -0.021 ntor 10 67.4755 166.6176 45.1597 149.8757 -94.4672 160.5513 64.5040 -113.3404 -4.1255 -155.2763
State:	 19.630  -8.017  -4.826  -0.973 -0.192  0.130 161.707     67.48  166.62   45.16  149.88  -94.47  160.55   64.50 -113.34   -4.13 -155.28

DOCKED: MODEL       31
DOCKED: USER    Run = 31
DOCKED: USER    DPF = ligand_dock.biased.dpf
DOCKED: USER  
DOCKED: USER    Estimated Free Energy of Binding    =   -8.95 kcal/mol  [=(1)+(2)+(3)-(4)]
DOCKED: USER    Estimated Inhibition Constant, Ki   =  274.05 nM (nanomolar)  [Temperature = 298.15 K]
DOCKED: USER    
DOCKED: USER    (1) Final Intermolecular Energy     =  -11.94 kcal/mol
DOCKED: USER        vdW + Hbond + desolv Energy     =  -11.94 kcal/mol
DOCKED: USER        Electrostatic Energy            =   +0.00 kcal/mol
DOCKED: USER    (2) Final Total Internal Energy     =   -3.00 kcal/mol
DOCKED: USER    (3) Torsional Free Energy           =   +2.98 kcal/mol
DOCKED: USER    (4) Unbound System's Energy  [=(2)] =   -3.00 kcal/mol
DOCKED: USER    
DOCKED: USER    
DOCKED: USER    NEWDPF move ligand.pdbqt
DOCKED: USER    NEWDPF about 1.858000 0.218000 -0.021000
DOCKED: USER    NEWDPF tran0 19.629628 -8.017268 -4.826360
DOCKED: USER    NEWDPF quaternion0 -0.960255 -0.190013 0.128597 0.158961
DOCKED: USER    NEWDPF axisangle0 -0.972622 -0.192460 0.130254 161.706793
DOCKED: USER    NEWDPF quat0 -0.972622 -0.192460 0.130254 161.706793
DOCKED: USER    NEWDPF dihe0 67.48 166.62 45.16 149.88 -94.47 160.55 64.50 -113.34 -4.13 -155.28 
DOCKED: USER  keepresnum = 1 
DOCKED: USER  
DOCKED: REMARK  Name = 
DOCKED: REMARK  12 active torsions:
DOCKED: REMARK  status: ('A' for Active; 'I' for Inactive)
DOCKED: REMARK    1  A    between atoms: C_2  and  O_3
DOCKED: REMARK    2  A    between atoms: O_3  and  C_4
DOCKED: REMARK    3  A    between atoms: C_4  and  C_5
DOCKED: REMARK    4  A    between atoms: C_10  and  C_11
DOCKED: REMARK    5  A    between atoms: C_11  and  N_12
DOCKED: REMARK    6  A    between atoms: N_12  and  C_13
DOCKED: REMARK    7  A    between atoms: N_12  and  C_15
DOCKED: REMARK    8  A    between atoms: C_13  and  C_14
DOCKED: REMARK    9  A    between atoms: C_15  and  C_16
DOCKED: REMARK   10  A    between atoms: N_21  and  C_22
DOCKED: REMARK   11  A    between atoms: C_25  and  C_26
DOCKED: REMARK   12  A    between atoms: N_27  and  O_28
DOCKED: REMARK                            x       y       z     vdW  Elec       q    Type
DOCKED: REMARK                         _______ _______ _______ _____ _____    ______ ____
DOCKED: USER                              x       y       z     vdW  Elec       q    Type
DOCKED: USER                           _______ _______ _______ _____ _____    ______ ____
DOCKED: ROOT
DOCKED: ATOM      1  C   UNL     1      18.942  -8.022  -6.321 -0.11 -0.00    +0.000 C 
DOCKED: ENDROOT
DOCKED: BRANCH   1   2
DOCKED: ATOM      2  C   UNL     1      17.741  -8.198  -5.439 -0.12 -0.00    +0.000 A 
DOCKED: ATOM      3  C   UNL     1      16.968  -7.087  -5.070 -0.10 -0.00    +0.000 A 
DOCKED: ATOM      4  C   UNL     1      15.869  -7.239  -4.220 -0.02 -0.00    +0.000 A 
DOCKED: ATOM      5  C   UNL     1      15.537  -8.505  -3.716 -0.15 -0.00    +0.000 A 
DOCKED: ATOM      6  C   UNL     1      14.436  -8.667  -2.861 -0.17 -0.00    +0.000 A 
DOCKED: ATOM      7  C   UNL     1      14.112  -9.937  -2.355 -0.23 -0.00    +0.000 A 
DOCKED: ATOM      8  C   UNL     1      14.894 -11.046  -2.713 -0.26 -0.00    +0.000 A 
DOCKED: ATOM      9  C   UNL     1      15.992 -10.893  -3.563 +0.12 -0.00    +0.000 A 
DOCKED: ATOM     10  C   UNL     1      16.322  -9.628  -4.071 -0.20 -0.00    +0.000 A 
DOCKED: ATOM     11  C   UNL     1      17.423  -9.465  -4.925 -0.19 -0.00    +0.000 A 
DOCKED: BRANCH   7  12
DOCKED: ATOM     12  C   UNL     1      12.921 -10.122  -1.452 -0.26 -0.00    +0.000 C 
DOCKED: BRANCH  12  13
DOCKED: ATOM     13  N   UNL     1      13.312  -9.905  -0.043 -0.18 +0.00    +0.000 N 
DOCKED: ATOM     14  H   UNL     1      12.509 -10.120   0.546 +0.00 +0.00    +0.000 HD
DOCKED: BRANCH  13  15
DOCKED: ATOM     15  C   UNL     1      13.630  -8.481   0.218 -0.20 +0.00    +0.000 C 
DOCKED: ATOM     16  C   UNL     1      15.013  -8.311   0.846 -0.24 +0.00    +0.000 C 
DOCKED: ENDBRANCH  13  15
DOCKED: BRANCH  13  17
DOCKED: ATOM     17  C   UNL     1      14.368 -10.853   0.395 -0.32 +0.00    +0.000 C 
DOCKED: ATOM     18  C   UNL     1      14.024 -11.634   1.672 -0.47 +0.00    +0.000 C 
DOCKED: ENDBRANCH  13  17
DOCKED: ENDBRANCH  12  13
DOCKED: ENDBRANCH   7  12
DOCKED: ENDBRANCH   1   2
DOCKED: BRANCH   1  19
DOCKED: ATOM     19  O   UNL     1      20.071  -7.698  -5.517 -0.14 -0.00    +0.000 OA
DOCKED: BRANCH  19  21
DOCKED: ATOM     20  O   UNL     1      20.184  -7.157  -3.276 -0.29 -0.00    +0.000 OA
DOCKED: ATOM     21  C   UNL     1      20.163  -8.051  -4.168 -0.27 -0.00    +0.000 C 
DOCKED: ATOM     22  N   UNL     1      20.278  -9.436  -3.816 -0.31 -0.00    +0.000 N 
DOCKED: ATOM     23  H   UNL     1      20.417 -10.085  -4.543 +0.00 -0.00    +0.000 HD
DOCKED: BRANCH  22  24
DOCKED: ATOM     24  C   UNL     1      20.203  -9.941  -2.472 -0.43 -0.00    +0.000 A 
DOCKED: ATOM     25  C   UNL     1      21.348  -9.916  -1.664 -0.54 -0.00    +0.000 A 
DOCKED: ATOM     26  C   UNL     1      21.308 -10.421  -0.361 -0.63 -0.00    +0.000 A 
DOCKED: ATOM     27  C   UNL     1      20.123 -10.969   0.158 -0.57 -0.00    +0.000 A 
DOCKED: ATOM     28  C   UNL     1      18.984 -11.025  -0.666 -0.43 -0.00    +0.000 A 
DOCKED: ATOM     29  C   UNL     1      19.025 -10.519  -1.969 -0.35 -0.00    +0.000 A 
DOCKED: BRANCH  27  30
DOCKED: ATOM     30  C   UNL     1      20.097 -11.504   1.541 -0.75 -0.00    +0.000 C 
DOCKED: ATOM     31  N   UNL     1      20.332 -10.659   2.674 -0.66 -0.00    +0.000 N 
DOCKED: ATOM     32  O   UNL     1      19.878 -12.732   1.728 -1.58 -0.00    +0.000 OA
DOCKED: ATOM     33  H   UNL     1      20.589  -9.718   2.539 -0.55 -0.00    +0.000 HD
DOCKED: BRANCH  31  34
DOCKED: ATOM     34  O   UNL     1      20.203 -11.149   3.930 -0.83 -0.00    +0.000 OA
DOCKED: ATOM     35  H   UNL     1      20.640 -12.014   3.987 -0.54 -0.00    +0.000 HD
DOCKED: ENDBRANCH  31  34
DOCKED: ENDBRANCH  27  30
DOCKED: ENDBRANCH  22  24
DOCKED: ENDBRANCH  19  21
DOCKED: ENDBRANCH   1  19
DOCKED: TORSDOF 10
DOCKED: TER
DOCKED: ENDMDL
________________________________________________________________________________


	BEGINNING GENETIC ALGORITHM DOCKING 32 of 100
Run: 32 Seed: 202632591 1193960392 [ Run 32 of 100 GA/GALS ]
Beginning LAMARCKIAN GENETIC ALGORITHM (LGA), with a maximum of 2500000 energy evaluations.

Final-Value: -14.833


	FINAL GENETIC ALGORITHM DOCKED STATE
	_______________________________________________


Detailed state:  trans 20.660 -7.660 -4.595 quatxyzw -0.376768 -0.605237 -0.115657 0.691634 center 1.858 0.218 -0.021 ntor 10 -117.4042 172.7020 3.8606 154.6938 27.9114 -175.8114 -163.8570 -140.0943 -26.9520 -113.9022
State:	 20.660  -7.660  -4.595  -0.522 -0.838 -0.160 92.481   -117.40  172.70    3.86  154.69   27.91 -175.81 -163.86 -140.09  -26.95 -113.90

DOCKED: MODEL       32
DOCKED: USER    Run = 32
DOCKED: USER    DPF = ligand_dock.biased.dpf
DOCKED: USER  
DOCKED: USER    Estimated Free Energy of Binding    =   -9.42 kcal/mol  [=(1)+(2)+(3)-(4)]
DOCKED: USER    Estimated Inhibition Constant, Ki   =  124.70 nM (nanomolar)  [Temperature = 298.15 K]
DOCKED: USER    
DOCKED: USER    (1) Final Intermolecular Energy     =  -12.40 kcal/mol
DOCKED: USER        vdW + Hbond + desolv Energy     =  -12.40 kcal/mol
DOCKED: USER        Electrostatic Energy            =   +0.00 kcal/mol
DOCKED: USER    (2) Final Total Internal Energy     =   -2.43 kcal/mol
DOCKED: USER    (3) Torsional Free Energy           =   +2.98 kcal/mol
DOCKED: USER    (4) Unbound System's Energy  [=(2)] =   -2.43 kcal/mol
DOCKED: USER    
DOCKED: USER    
DOCKED: USER    NEWDPF move ligand.pdbqt
DOCKED: USER    NEWDPF about 1.858000 0.218000 -0.021000
DOCKED: USER    NEWDPF tran0 20.660292 -7.660314 -4.595209
DOCKED: USER    NEWDPF quaternion0 -0.376768 -0.605237 -0.115657 0.691634
DOCKED: USER    NEWDPF axisangle0 -0.521660 -0.837990 -0.160135 92.480801
DOCKED: USER    NEWDPF quat0 -0.521660 -0.837990 -0.160135 92.480801
DOCKED: USER    NEWDPF dihe0 -117.40 172.70 3.86 154.69 27.91 -175.81 -163.86 -140.09 -26.95 -113.90 
DOCKED: USER  keepresnum = 1 
DOCKED: USER  
DOCKED: REMARK  Name = 
DOCKED: REMARK  12 active torsions:
DOCKED: REMARK  status: ('A' for Active; 'I' for Inactive)
DOCKED: REMARK    1  A    between atoms: C_2  and  O_3
DOCKED: REMARK    2  A    between atoms: O_3  and  C_4
DOCKED: REMARK    3  A    between atoms: C_4  and  C_5
DOCKED: REMARK    4  A    between atoms: C_10  and  C_11
DOCKED: REMARK    5  A    between atoms: C_11  and  N_12
DOCKED: REMARK    6  A    between atoms: N_12  and  C_13
DOCKED: REMARK    7  A    between atoms: N_12  and  C_15
DOCKED: REMARK    8  A    between atoms: C_13  and  C_14
DOCKED: REMARK    9  A    between atoms: C_15  and  C_16
DOCKED: REMARK   10  A    between atoms: N_21  and  C_22
DOCKED: REMARK   11  A    between atoms: C_25  and  C_26
DOCKED: REMARK   12  A    between atoms: N_27  and  O_28
DOCKED: REMARK                            x       y       z     vdW  Elec       q    Type
DOCKED: REMARK                         _______ _______ _______ _____ _____    ______ ____
DOCKED: USER                              x       y       z     vdW  Elec       q    Type
DOCKED: USER                           _______ _______ _______ _____ _____    ______ ____
DOCKED: ROOT
DOCKED: ATOM      1  C   UNL     1      21.814  -8.782  -4.937 -0.29 -0.00    +0.000 C 
DOCKED: ENDROOT
DOCKED: BRANCH   1   2
DOCKED: ATOM      2  C   UNL     1      20.962  -9.521  -3.947 -0.38 -0.00    +0.000 A 
DOCKED: ATOM      3  C   UNL     1      19.697  -9.999  -4.321 -0.31 -0.00    +0.000 A 
DOCKED: ATOM      4  C   UNL     1      18.885 -10.656  -3.394 -0.31 -0.00    +0.000 A 
DOCKED: ATOM      5  C   UNL     1      19.322 -10.833  -2.074 -0.39 -0.00    +0.000 A 
DOCKED: ATOM      6  C   UNL     1      18.512 -11.491  -1.135 -0.36 -0.00    +0.000 A 
DOCKED: ATOM      7  C   UNL     1      18.953 -11.661   0.187 -0.51 -0.00    +0.000 A 
DOCKED: ATOM      8  C   UNL     1      20.213 -11.171   0.565 -0.61 -0.00    +0.000 A 
DOCKED: ATOM      9  C   UNL     1      21.025 -10.514  -0.362 -0.63 -0.00    +0.000 A 
DOCKED: ATOM     10  C   UNL     1      20.590 -10.340  -1.684 -0.51 -0.00    +0.000 A 
DOCKED: ATOM     11  C   UNL     1      21.399  -9.682  -2.622 -0.47 -0.00    +0.000 A 
DOCKED: BRANCH   7  12
DOCKED: ATOM     12  C   UNL     1      18.098 -12.383   1.196 -0.52 -0.00    +0.000 C 
DOCKED: BRANCH  12  13
DOCKED: ATOM     13  N   UNL     1      16.851 -11.627   1.438 -0.41 +0.00    +0.000 N 
DOCKED: ATOM     14  H   UNL     1      16.376 -12.048   2.236 -0.02 +0.00    +0.000 HD
DOCKED: BRANCH  13  15
DOCKED: ATOM     15  C   UNL     1      15.911 -11.754   0.300 -0.44 +0.00    +0.000 C 
DOCKED: ATOM     16  C   UNL     1      15.729 -13.209  -0.130 -0.57 +0.00    +0.000 C 
DOCKED: ENDBRANCH  13  15
DOCKED: BRANCH  13  17
DOCKED: ATOM     17  C   UNL     1      17.118 -10.226   1.851 -0.42 +0.00    +0.000 C 
DOCKED: ATOM     18  C   UNL     1      16.550  -9.855   3.228 -0.46 +0.00    +0.000 C 
DOCKED: ENDBRANCH  13  17
DOCKED: ENDBRANCH  12  13
DOCKED: ENDBRANCH   7  12
DOCKED: ENDBRANCH   1   2
DOCKED: BRANCH   1  19
DOCKED: ATOM     19  O   UNL     1      21.153  -7.581  -5.320 -0.19 -0.00    +0.000 OA
DOCKED: BRANCH  19  21
DOCKED: ATOM     20  O   UNL     1      19.836  -5.886  -4.471 -0.17 -0.00    +0.000 OA
DOCKED: ATOM     21  C   UNL     1      20.921  -6.530  -4.428 -0.23 -0.00    +0.000 C 
DOCKED: ATOM     22  N   UNL     1      21.948  -6.168  -3.496 -0.27 -0.00    +0.000 N 
DOCKED: ATOM     23  H   UNL     1      22.833  -6.588  -3.600 +0.01 -0.00    +0.000 HD
DOCKED: BRANCH  22  24
DOCKED: ATOM     24  C   UNL     1      21.773  -5.232  -2.418 -0.36 -0.00    +0.000 A 
DOCKED: ATOM     25  C   UNL     1      20.661  -5.357  -1.574 -0.37 -0.00    +0.000 A 
DOCKED: ATOM     26  C   UNL     1      20.456  -4.448  -0.532 -0.22 +0.00    +0.000 A 
DOCKED: ATOM     27  C   UNL     1      21.355  -3.389  -0.318 -0.32 +0.00    +0.000 A 
DOCKED: ATOM     28  C   UNL     1      22.451  -3.245  -1.188 -0.25 +0.00    +0.000 A 
DOCKED: ATOM     29  C   UNL     1      22.656  -4.155  -2.230 -0.29 -0.00    +0.000 A 
DOCKED: BRANCH  27  30
DOCKED: ATOM     30  C   UNL     1      21.121  -2.430   0.789 -0.47 -0.00    +0.000 C 
DOCKED: ATOM     31  N   UNL     1      21.954  -1.278   0.967 -0.36 -0.00    +0.000 N 
DOCKED: ATOM     32  O   UNL     1      20.180  -2.637   1.602 -0.83 -0.00    +0.000 OA
DOCKED: ATOM     33  H   UNL     1      22.744  -1.150   0.393 -0.07 -0.00    +0.000 HD
DOCKED: BRANCH  31  34
DOCKED: ATOM     34  O   UNL     1      21.660  -0.363   1.922 -0.41 -0.00    +0.000 OA
DOCKED: ATOM     35  H   UNL     1      20.895  -0.666   2.435 -0.02 -0.00    +0.000 HD
DOCKED: ENDBRANCH  31  34
DOCKED: ENDBRANCH  27  30
DOCKED: ENDBRANCH  22  24
DOCKED: ENDBRANCH  19  21
DOCKED: ENDBRANCH   1  19
DOCKED: TORSDOF 10
DOCKED: TER
DOCKED: ENDMDL
________________________________________________________________________________


	BEGINNING GENETIC ALGORITHM DOCKING 33 of 100
Run: 33 Seed: 1111458182 1816587381 [ Run 33 of 100 GA/GALS ]
Beginning LAMARCKIAN GENETIC ALGORITHM (LGA), with a maximum of 2500000 energy evaluations.

Final-Value: -16.285


	FINAL GENETIC ALGORITHM DOCKED STATE
	_______________________________________________


Detailed state:  trans 14.298 -10.457 -2.958 quatxyzw 0.074713 0.896096 0.379939 0.216970 center 1.858 0.218 -0.021 ntor 10 -61.5702 172.7876 -2.7490 -109.8396 -16.0402 -48.6431 180.0000 -82.9165 16.6959 -163.6950
State:	 14.298 -10.457  -2.958   0.077  0.918  0.389 154.938    -61.57  172.79   -2.75 -109.84  -16.04  -48.64  180.00  -82.92   16.70 -163.70

DOCKED: MODEL       33
DOCKED: USER    Run = 33
DOCKED: USER    DPF = ligand_dock.biased.dpf
DOCKED: USER  
DOCKED: USER    Estimated Free Energy of Binding    =  -10.59 kcal/mol  [=(1)+(2)+(3)-(4)]
DOCKED: USER    Estimated Inhibition Constant, Ki   =   17.13 nM (nanomolar)  [Temperature = 298.15 K]
DOCKED: USER    
DOCKED: USER    (1) Final Intermolecular Energy     =  -13.58 kcal/mol
DOCKED: USER        vdW + Hbond + desolv Energy     =  -13.58 kcal/mol
DOCKED: USER        Electrostatic Energy            =   +0.00 kcal/mol
DOCKED: USER    (2) Final Total Internal Energy     =   -2.71 kcal/mol
DOCKED: USER    (3) Torsional Free Energy           =   +2.98 kcal/mol
DOCKED: USER    (4) Unbound System's Energy  [=(2)] =   -2.71 kcal/mol
DOCKED: USER    
DOCKED: USER    
DOCKED: USER    NEWDPF move ligand.pdbqt
DOCKED: USER    NEWDPF about 1.858000 0.218000 -0.021000
DOCKED: USER    NEWDPF tran0 14.297809 -10.457489 -2.957670
DOCKED: USER    NEWDPF quaternion0 0.074713 0.896096 0.379939 0.216970
DOCKED: USER    NEWDPF axisangle0 0.076536 0.917964 0.389211 154.937712
DOCKED: USER    NEWDPF quat0 0.076536 0.917964 0.389211 154.937712
DOCKED: USER    NEWDPF dihe0 -61.57 172.79 -2.75 -109.84 -16.04 -48.64 180.00 -82.92 16.70 -163.70 
DOCKED: USER  keepresnum = 1 
DOCKED: USER  
DOCKED: REMARK  Name = 
DOCKED: REMARK  12 active torsions:
DOCKED: REMARK  status: ('A' for Active; 'I' for Inactive)
DOCKED: REMARK    1  A    between atoms: C_2  and  O_3
DOCKED: REMARK    2  A    between atoms: O_3  and  C_4
DOCKED: REMARK    3  A    between atoms: C_4  and  C_5
DOCKED: REMARK    4  A    between atoms: C_10  and  C_11
DOCKED: REMARK    5  A    between atoms: C_11  and  N_12
DOCKED: REMARK    6  A    between atoms: N_12  and  C_13
DOCKED: REMARK    7  A    between atoms: N_12  and  C_15
DOCKED: REMARK    8  A    between atoms: C_13  and  C_14
DOCKED: REMARK    9  A    between atoms: C_15  and  C_16
DOCKED: REMARK   10  A    between atoms: N_21  and  C_22
DOCKED: REMARK   11  A    between atoms: C_25  and  C_26
DOCKED: REMARK   12  A    between atoms: N_27  and  O_28
DOCKED: REMARK                            x       y       z     vdW  Elec       q    Type
DOCKED: REMARK                         _______ _______ _______ _____ _____    ______ ____
DOCKED: USER                              x       y       z     vdW  Elec       q    Type
DOCKED: USER                           _______ _______ _______ _____ _____    ______ ____
DOCKED: ROOT
DOCKED: ATOM      1  C   UNL     1      13.744  -9.843  -4.380 -0.19 -0.00    +0.000 C 
DOCKED: ENDROOT
DOCKED: BRANCH   1   2
DOCKED: ATOM      2  C   UNL     1      15.140 -10.247  -4.753 -0.20 -0.00    +0.000 A 
DOCKED: ATOM      3  C   UNL     1      15.354 -11.239  -5.722 -0.25 -0.00    +0.000 A 
DOCKED: ATOM      4  C   UNL     1      16.650 -11.644  -6.047 -0.21 -0.00    +0.000 A 
DOCKED: ATOM      5  C   UNL     1      17.753 -11.072  -5.396 -0.25 -0.00    +0.000 A 
DOCKED: ATOM      6  C   UNL     1      19.059 -11.475  -5.716 -0.34 -0.00    +0.000 A 
DOCKED: ATOM      7  C   UNL     1      20.159 -10.902  -5.056 -0.41 -0.00    +0.000 A 
DOCKED: ATOM      8  C   UNL     1      19.944  -9.920  -4.077 -0.33 -0.00    +0.000 A 
DOCKED: ATOM      9  C   UNL     1      18.648  -9.515  -3.752 -0.23 -0.00    +0.000 A 
DOCKED: ATOM     10  C   UNL     1      17.545 -10.083  -4.405 -0.24 -0.00    +0.000 A 
DOCKED: ATOM     11  C   UNL     1      16.239  -9.682  -4.086 -0.20 -0.00    +0.000 A 
DOCKED: BRANCH   7  12
DOCKED: ATOM     12  C   UNL     1      21.564 -11.314  -5.407 -0.55 -0.00    +0.000 C 
DOCKED: BRANCH  12  13
DOCKED: ATOM     13  N   UNL     1      21.860 -10.970  -6.814 -0.35 -0.00    +0.000 N 
DOCKED: ATOM     14  H   UNL     1      21.374 -11.638  -7.412 -0.47 -0.00    +0.000 HD
DOCKED: BRANCH  13  15
DOCKED: ATOM     15  C   UNL     1      23.300 -11.132  -7.120 -0.42 -0.00    +0.000 C 
DOCKED: ATOM     16  C   UNL     1      23.570 -12.393  -7.941 -0.48 -0.00    +0.000 C 
DOCKED: ENDBRANCH  13  15
DOCKED: BRANCH  13  17
DOCKED: ATOM     17  C   UNL     1      21.304  -9.647  -7.193 -0.23 -0.00    +0.000 C 
DOCKED: ATOM     18  C   UNL     1      20.300  -9.693  -8.355 -0.19 -0.00    +0.000 C 
DOCKED: ENDBRANCH  13  17
DOCKED: ENDBRANCH  12  13
DOCKED: ENDBRANCH   7  12
DOCKED: ENDBRANCH   1   2
DOCKED: BRANCH   1  19
DOCKED: ATOM     19  O   UNL     1      13.434 -10.362  -3.091 -0.26 -0.00    +0.000 OA
DOCKED: BRANCH  19  21
DOCKED: ATOM     20  O   UNL     1      14.846 -12.010  -2.306 -0.35 -0.00    +0.000 OA
DOCKED: ATOM     21  C   UNL     1      14.412 -10.828  -2.209 -0.32 -0.00    +0.000 C 
DOCKED: ATOM     22  N   UNL     1      14.883  -9.961  -1.170 -0.24 -0.00    +0.000 N 
DOCKED: ATOM     23  H   UNL     1      14.409  -9.109  -1.031 -0.00 -0.00    +0.000 HD
DOCKED: BRANCH  22  24
DOCKED: ATOM     24  C   UNL     1      16.002 -10.252  -0.315 -0.26 -0.00    +0.000 A 
DOCKED: ATOM     25  C   UNL     1      17.078 -10.996  -0.820 -0.31 -0.00    +0.000 A 
DOCKED: ATOM     26  C   UNL     1      18.168 -11.311  -0.004 -0.42 -0.00    +0.000 A 
DOCKED: ATOM     27  C   UNL     1      18.201 -10.895   1.338 -0.44 -0.00    +0.000 A 
DOCKED: ATOM     28  C   UNL     1      17.106 -10.179   1.853 -0.35 +0.00    +0.000 A 
DOCKED: ATOM     29  C   UNL     1      16.015  -9.864   1.036 -0.25 +0.00    +0.000 A 
DOCKED: BRANCH  27  30
DOCKED: ATOM     30  C   UNL     1      19.363 -11.240   2.193 -0.69 -0.00    +0.000 C 
DOCKED: ATOM     31  N   UNL     1      19.890 -10.312   3.148 -0.63 -0.00    +0.000 N 
DOCKED: ATOM     32  O   UNL     1      19.911 -12.369   2.070 -1.71 -0.00    +0.000 OA
DOCKED: ATOM     33  H   UNL     1      19.527  -9.398   3.196 -0.58 -0.00    +0.000 HD
DOCKED: BRANCH  31  34
DOCKED: ATOM     34  O   UNL     1      20.886 -10.686   3.988 -0.69 -0.00    +0.000 OA
DOCKED: ATOM     35  H   UNL     1      21.097 -11.621   3.843 -0.55 -0.00    +0.000 HD
DOCKED: ENDBRANCH  31  34
DOCKED: ENDBRANCH  27  30
DOCKED: ENDBRANCH  22  24
DOCKED: ENDBRANCH  19  21
DOCKED: ENDBRANCH   1  19
DOCKED: TORSDOF 10
DOCKED: TER
DOCKED: ENDMDL
________________________________________________________________________________


	BEGINNING GENETIC ALGORITHM DOCKING 34 of 100
Run: 34 Seed: 178410521 385133159 [ Run 34 of 100 GA/GALS ]
Beginning LAMARCKIAN GENETIC ALGORITHM (LGA), with a maximum of 2500000 energy evaluations.

Final-Value: -15.293


	FINAL GENETIC ALGORITHM DOCKED STATE
	_______________________________________________


Detailed state:  trans 20.414 -7.432 -5.155 quatxyzw -0.585884 0.595984 -0.203705 -0.509948 center 1.858 0.218 -0.021 ntor 10 6.2313 170.8076 44.8406 -44.8707 -176.2298 28.4685 -34.0768 167.9558 -165.6372 118.9961
State:	 20.414  -7.432  -5.155  -0.681  0.693 -0.237 -118.679      6.23  170.81   44.84  -44.87 -176.23   28.47  -34.08  167.96 -165.64  119.00

DOCKED: MODEL       34
DOCKED: USER    Run = 34
DOCKED: USER    DPF = ligand_dock.biased.dpf
DOCKED: USER  
DOCKED: USER    Estimated Free Energy of Binding    =  -10.31 kcal/mol  [=(1)+(2)+(3)-(4)]
DOCKED: USER    Estimated Inhibition Constant, Ki   =   27.60 nM (nanomolar)  [Temperature = 298.15 K]
DOCKED: USER    
DOCKED: USER    (1) Final Intermolecular Energy     =  -13.30 kcal/mol
DOCKED: USER        vdW + Hbond + desolv Energy     =  -13.30 kcal/mol
DOCKED: USER        Electrostatic Energy            =   +0.00 kcal/mol
DOCKED: USER    (2) Final Total Internal Energy     =   -2.00 kcal/mol
DOCKED: USER    (3) Torsional Free Energy           =   +2.98 kcal/mol
DOCKED: USER    (4) Unbound System's Energy  [=(2)] =   -2.00 kcal/mol
DOCKED: USER    
DOCKED: USER    
DOCKED: USER    NEWDPF move ligand.pdbqt
DOCKED: USER    NEWDPF about 1.858000 0.218000 -0.021000
DOCKED: USER    NEWDPF tran0 20.414490 -7.431564 -5.155318
DOCKED: USER    NEWDPF quaternion0 -0.585884 0.595984 -0.203705 -0.509948
DOCKED: USER    NEWDPF axisangle0 -0.681098 0.692840 -0.236809 -118.679246
DOCKED: USER    NEWDPF quat0 -0.681098 0.692840 -0.236809 -118.679246
DOCKED: USER    NEWDPF dihe0 6.23 170.81 44.84 -44.87 -176.23 28.47 -34.08 167.96 -165.64 119.00 
DOCKED: USER  keepresnum = 1 
DOCKED: USER  
DOCKED: REMARK  Name = 
DOCKED: REMARK  12 active torsions:
DOCKED: REMARK  status: ('A' for Active; 'I' for Inactive)
DOCKED: REMARK    1  A    between atoms: C_2  and  O_3
DOCKED: REMARK    2  A    between atoms: O_3  and  C_4
DOCKED: REMARK    3  A    between atoms: C_4  and  C_5
DOCKED: REMARK    4  A    between atoms: C_10  and  C_11
DOCKED: REMARK    5  A    between atoms: C_11  and  N_12
DOCKED: REMARK    6  A    between atoms: N_12  and  C_13
DOCKED: REMARK    7  A    between atoms: N_12  and  C_15
DOCKED: REMARK    8  A    between atoms: C_13  and  C_14
DOCKED: REMARK    9  A    between atoms: C_15  and  C_16
DOCKED: REMARK   10  A    between atoms: N_21  and  C_22
DOCKED: REMARK   11  A    between atoms: C_25  and  C_26
DOCKED: REMARK   12  A    between atoms: N_27  and  O_28
DOCKED: REMARK                            x       y       z     vdW  Elec       q    Type
DOCKED: REMARK                         _______ _______ _______ _____ _____    ______ ____
DOCKED: USER                              x       y       z     vdW  Elec       q    Type
DOCKED: USER                           _______ _______ _______ _____ _____    ______ ____
DOCKED: ROOT
DOCKED: ATOM      1  C   UNL     1      21.975  -6.909  -5.140 -0.20 -0.00    +0.000 C 
DOCKED: ENDROOT
DOCKED: BRANCH   1   2
DOCKED: ATOM      2  C   UNL     1      21.295  -5.847  -4.325 -0.20 -0.00    +0.000 A 
DOCKED: ATOM      3  C   UNL     1      20.349  -4.999  -4.919 -0.11 -0.00    +0.000 A 
DOCKED: ATOM      4  C   UNL     1      19.739  -3.986  -4.174 -0.12 -0.00    +0.000 A 
DOCKED: ATOM      5  C   UNL     1      20.080  -3.799  -2.827 -0.19 -0.00    +0.000 A 
DOCKED: ATOM      6  C   UNL     1      19.473  -2.783  -2.072 -0.17 -0.00    +0.000 A 
DOCKED: ATOM      7  C   UNL     1      19.822  -2.597  -0.724 -0.27 -0.00    +0.000 A 
DOCKED: ATOM      8  C   UNL     1      20.779  -3.436  -0.134 -0.36 +0.00    +0.000 A 
DOCKED: ATOM      9  C   UNL     1      21.388  -4.449  -0.879 -0.18 +0.00    +0.000 A 
DOCKED: ATOM     10  C   UNL     1      21.046  -4.639  -2.225 -0.34 -0.00    +0.000 A 
DOCKED: ATOM     11  C   UNL     1      21.652  -5.654  -2.981 -0.32 -0.00    +0.000 A 
DOCKED: BRANCH   7  12
DOCKED: ATOM     12  C   UNL     1      19.162  -1.521   0.099 -0.23 -0.00    +0.000 C 
DOCKED: BRANCH  12  13
DOCKED: ATOM     13  N   UNL     1      18.882  -2.023   1.461 -0.35 -0.00    +0.000 N 
DOCKED: ATOM     14  H   UNL     1      19.054  -3.027   1.470 -0.04 -0.00    +0.000 HD
DOCKED: BRANCH  13  15
DOCKED: ATOM     15  C   UNL     1      17.452  -1.858   1.815 -0.37 -0.00    +0.000 C 
DOCKED: ATOM     16  C   UNL     1      17.111  -2.538   3.140 -0.49 -0.00    +0.000 C 
DOCKED: ENDBRANCH  13  15
DOCKED: BRANCH  13  17
DOCKED: ATOM     17  C   UNL     1      19.824  -1.467   2.465 -0.54 -0.00    +0.000 C 
DOCKED: ATOM     18  C   UNL     1      20.610  -2.528   3.248 -0.76 -0.00    +0.000 C 
DOCKED: ENDBRANCH  13  17
DOCKED: ENDBRANCH  12  13
DOCKED: ENDBRANCH   7  12
DOCKED: ENDBRANCH   1   2
DOCKED: BRANCH   1  19
DOCKED: ATOM     19  O   UNL     1      21.068  -7.985  -5.358 -0.20 -0.00    +0.000 OA
DOCKED: BRANCH  19  21
DOCKED: ATOM     20  O   UNL     1      19.541  -9.502  -4.527 -0.26 -0.00    +0.000 OA
DOCKED: ATOM     21  C   UNL     1      20.517  -8.731  -4.313 -0.32 -0.00    +0.000 C 
DOCKED: ATOM     22  N   UNL     1      21.048  -8.576  -2.990 -0.42 -0.00    +0.000 N 
DOCKED: ATOM     23  H   UNL     1      21.699  -7.853  -2.838 -0.04 -0.00    +0.000 HD
DOCKED: BRANCH  22  24
DOCKED: ATOM     24  C   UNL     1      20.694  -9.406  -1.871 -0.48 -0.00    +0.000 A 
DOCKED: ATOM     25  C   UNL     1      21.304  -9.182  -0.629 -0.52 -0.00    +0.000 A 
DOCKED: ATOM     26  C   UNL     1      20.994  -9.988   0.470 -0.55 -0.00    +0.000 A 
DOCKED: ATOM     27  C   UNL     1      20.072 -11.041   0.347 -0.58 -0.00    +0.000 A 
DOCKED: ATOM     28  C   UNL     1      19.487 -11.287  -0.908 -0.37 -0.00    +0.000 A 
DOCKED: ATOM     29  C   UNL     1      19.797 -10.480  -2.007 -0.42 -0.00    +0.000 A 
DOCKED: BRANCH  27  30
DOCKED: ATOM     30  C   UNL     1      19.756 -11.891   1.522 -0.73 -0.00    +0.000 C 
DOCKED: ATOM     31  N   UNL     1      20.625 -11.946   2.659 -0.71 -0.00    +0.000 N 
DOCKED: ATOM     32  O   UNL     1      18.708 -12.592   1.517 -0.96 -0.00    +0.000 OA
DOCKED: ATOM     33  H   UNL     1      21.487 -11.471   2.641 -0.26 -0.00    +0.000 HD
DOCKED: BRANCH  31  34
DOCKED: ATOM     34  O   UNL     1      20.266 -12.649   3.760 -0.82 -0.00    +0.000 OA
DOCKED: ATOM     35  H   UNL     1      19.908 -13.509   3.492 -0.43 -0.00    +0.000 HD
DOCKED: ENDBRANCH  31  34
DOCKED: ENDBRANCH  27  30
DOCKED: ENDBRANCH  22  24
DOCKED: ENDBRANCH  19  21
DOCKED: ENDBRANCH   1  19
DOCKED: TORSDOF 10
DOCKED: TER
DOCKED: ENDMDL
________________________________________________________________________________


	BEGINNING GENETIC ALGORITHM DOCKING 35 of 100
Run: 35 Seed: 1341827479 1925773760 [ Run 35 of 100 GA/GALS ]
Beginning LAMARCKIAN GENETIC ALGORITHM (LGA), with a maximum of 2500000 energy evaluations.

Final-Value: -14.880


	FINAL GENETIC ALGORITHM DOCKED STATE
	_______________________________________________


Detailed state:  trans 21.701 -9.773 -5.169 quatxyzw 0.951814 0.247400 0.102007 0.149795 center 1.858 0.218 -0.021 ntor 10 -132.2799 -177.0141 152.5600 -35.7744 171.2831 -158.1033 -129.6745 96.7085 164.2061 176.7243
State:	 21.701  -9.773  -5.169   0.963  0.250  0.103 162.770   -132.28 -177.01  152.56  -35.77  171.28 -158.10 -129.67   96.71  164.21  176.72

DOCKED: MODEL       35
DOCKED: USER    Run = 35
DOCKED: USER    DPF = ligand_dock.biased.dpf
DOCKED: USER  
DOCKED: USER    Estimated Free Energy of Binding    =   -9.62 kcal/mol  [=(1)+(2)+(3)-(4)]
DOCKED: USER    Estimated Inhibition Constant, Ki   =   88.09 nM (nanomolar)  [Temperature = 298.15 K]
DOCKED: USER    
DOCKED: USER    (1) Final Intermolecular Energy     =  -12.61 kcal/mol
DOCKED: USER        vdW + Hbond + desolv Energy     =  -12.61 kcal/mol
DOCKED: USER        Electrostatic Energy            =   +0.00 kcal/mol
DOCKED: USER    (2) Final Total Internal Energy     =   -2.27 kcal/mol
DOCKED: USER    (3) Torsional Free Energy           =   +2.98 kcal/mol
DOCKED: USER    (4) Unbound System's Energy  [=(2)] =   -2.27 kcal/mol
DOCKED: USER    
DOCKED: USER    
DOCKED: USER    NEWDPF move ligand.pdbqt
DOCKED: USER    NEWDPF about 1.858000 0.218000 -0.021000
DOCKED: USER    NEWDPF tran0 21.701318 -9.772552 -5.169000
DOCKED: USER    NEWDPF quaternion0 0.951814 0.247400 0.102007 0.149795
DOCKED: USER    NEWDPF axisangle0 0.962675 0.250224 0.103171 162.769871
DOCKED: USER    NEWDPF quat0 0.962675 0.250224 0.103171 162.769871
DOCKED: USER    NEWDPF dihe0 -132.28 -177.01 152.56 -35.77 171.28 -158.10 -129.67 96.71 164.21 176.72 
DOCKED: USER  keepresnum = 1 
DOCKED: USER  
DOCKED: REMARK  Name = 
DOCKED: REMARK  12 active torsions:
DOCKED: REMARK  status: ('A' for Active; 'I' for Inactive)
DOCKED: REMARK    1  A    between atoms: C_2  and  O_3
DOCKED: REMARK    2  A    between atoms: O_3  and  C_4
DOCKED: REMARK    3  A    between atoms: C_4  and  C_5
DOCKED: REMARK    4  A    between atoms: C_10  and  C_11
DOCKED: REMARK    5  A    between atoms: C_11  and  N_12
DOCKED: REMARK    6  A    between atoms: N_12  and  C_13
DOCKED: REMARK    7  A    between atoms: N_12  and  C_15
DOCKED: REMARK    8  A    between atoms: C_13  and  C_14
DOCKED: REMARK    9  A    between atoms: C_15  and  C_16
DOCKED: REMARK   10  A    between atoms: N_21  and  C_22
DOCKED: REMARK   11  A    between atoms: C_25  and  C_26
DOCKED: REMARK   12  A    between atoms: N_27  and  O_28
DOCKED: REMARK                            x       y       z     vdW  Elec       q    Type
DOCKED: REMARK                         _______ _______ _______ _____ _____    ______ ____
DOCKED: USER                              x       y       z     vdW  Elec       q    Type
DOCKED: USER                           _______ _______ _______ _____ _____    ______ ____
DOCKED: ROOT
DOCKED: ATOM      1  C   UNL     1      21.417  -8.790  -6.458 -0.21 -0.00    +0.000 C 
DOCKED: ENDROOT
DOCKED: BRANCH   1   2
DOCKED: ATOM      2  C   UNL     1      20.099  -9.494  -6.322 -0.18 -0.00    +0.000 A 
DOCKED: ATOM      3  C   UNL     1      19.822 -10.631  -7.096 -0.26 -0.00    +0.000 A 
DOCKED: ATOM      4  C   UNL     1      18.583 -11.270  -7.000 -0.30 -0.00    +0.000 A 
DOCKED: ATOM      5  C   UNL     1      17.597 -10.771  -6.136 -0.29 -0.00    +0.000 A 
DOCKED: ATOM      6  C   UNL     1      16.349 -11.405  -6.034 -0.25 -0.00    +0.000 A 
DOCKED: ATOM      7  C   UNL     1      15.365 -10.898  -5.171 -0.23 -0.00    +0.000 A 
DOCKED: ATOM      8  C   UNL     1      15.636  -9.752  -4.407 -0.18 -0.00    +0.000 A 
DOCKED: ATOM      9  C   UNL     1      16.875  -9.114  -4.504 -0.17 -0.00    +0.000 A 
DOCKED: ATOM     10  C   UNL     1      17.862  -9.615  -5.364 -0.19 -0.00    +0.000 A 
DOCKED: ATOM     11  C   UNL     1      19.110  -8.981  -5.467 -0.16 -0.00    +0.000 A 
DOCKED: BRANCH   7  12
DOCKED: ATOM     12  C   UNL     1      14.030 -11.584  -5.041 -0.27 -0.00    +0.000 C 
DOCKED: BRANCH  12  13
DOCKED: ATOM     13  N   UNL     1      13.489 -11.901  -6.380 -0.25 -0.00    +0.000 N 
DOCKED: ATOM     14  H   UNL     1      14.153 -11.567  -7.077 +0.00 -0.00    +0.000 HD
DOCKED: BRANCH  13  15
DOCKED: ATOM     15  C   UNL     1      12.228 -11.168  -6.643 -0.09 -0.00    +0.000 C 
DOCKED: ATOM     16  C   UNL     1      12.226  -9.786  -5.991 -0.11 -0.00    +0.000 C 
DOCKED: ENDBRANCH  13  15
DOCKED: BRANCH  13  17
DOCKED: ATOM     17  C   UNL     1      13.399 -13.365  -6.613 -0.39 -0.00    +0.000 C 
DOCKED: ATOM     18  C   UNL     1      14.400 -13.902  -7.647 -0.46 +0.00    +0.000 C 
DOCKED: ENDBRANCH  13  17
DOCKED: ENDBRANCH  12  13
DOCKED: ENDBRANCH   7  12
DOCKED: ENDBRANCH   1   2
DOCKED: BRANCH   1  19
DOCKED: ATOM     19  O   UNL     1      22.224  -9.081  -5.321 -0.34 -0.00    +0.000 OA
DOCKED: BRANCH  19  21
DOCKED: ATOM     20  O   UNL     1      22.012 -11.085  -4.196 -0.57 -0.00    +0.000 OA
DOCKED: ATOM     21  C   UNL     1      21.765  -9.848  -4.247 -0.40 -0.00    +0.000 C 
DOCKED: ATOM     22  N   UNL     1      20.976  -9.219  -3.229 -0.41 -0.00    +0.000 N 
DOCKED: ATOM     23  H   UNL     1      20.674  -8.295  -3.386 -0.01 -0.00    +0.000 HD
DOCKED: BRANCH  22  24
DOCKED: ATOM     24  C   UNL     1      20.594  -9.847  -1.993 -0.49 -0.00    +0.000 A 
DOCKED: ATOM     25  C   UNL     1      21.496  -9.857  -0.920 -0.55 -0.00    +0.000 A 
DOCKED: ATOM     26  C   UNL     1      21.159 -10.480   0.285 -0.59 -0.00    +0.000 A 
DOCKED: ATOM     27  C   UNL     1      19.915 -11.114   0.439 -0.58 -0.00    +0.000 A 
DOCKED: ATOM     28  C   UNL     1      19.025 -11.134  -0.650 -0.44 -0.00    +0.000 A 
DOCKED: ATOM     29  C   UNL     1      19.363 -10.511  -1.856 -0.39 -0.00    +0.000 A 
DOCKED: BRANCH  27  30
DOCKED: ATOM     30  C   UNL     1      19.573 -11.775   1.722 -0.72 -0.00    +0.000 C 
DOCKED: ATOM     31  N   UNL     1      20.580 -12.376   2.544 -0.61 -0.00    +0.000 N 
DOCKED: ATOM     32  O   UNL     1      18.369 -11.823   2.095 -0.70 -0.00    +0.000 OA
DOCKED: ATOM     33  H   UNL     1      21.510 -12.421   2.226 -0.41 -0.00    +0.000 HD
DOCKED: BRANCH  31  34
DOCKED: ATOM     34  O   UNL     1      20.258 -12.884   3.758 -0.78 -0.00    +0.000 OA
DOCKED: ATOM     35  H   UNL     1      20.875 -13.596   3.985 -0.62 -0.00    +0.000 HD
DOCKED: ENDBRANCH  31  34
DOCKED: ENDBRANCH  27  30
DOCKED: ENDBRANCH  22  24
DOCKED: ENDBRANCH  19  21
DOCKED: ENDBRANCH   1  19
DOCKED: TORSDOF 10
DOCKED: TER
DOCKED: ENDMDL
________________________________________________________________________________


	BEGINNING GENETIC ALGORITHM DOCKING 36 of 100
Run: 36 Seed: 2038833282 2019477839 [ Run 36 of 100 GA/GALS ]
Beginning LAMARCKIAN GENETIC ALGORITHM (LGA), with a maximum of 2500000 energy evaluations.

Final-Value: -15.731


	FINAL GENETIC ALGORITHM DOCKED STATE
	_______________________________________________


Detailed state:  trans 21.049 -7.969 -5.179 quatxyzw -0.543277 -0.470299 -0.668014 0.193458 center 1.858 0.218 -0.021 ntor 10 -2.6143 -24.1861 48.4091 -76.7801 -125.7579 -60.5331 101.6746 97.0806 -46.2547 -86.1460
State:	 21.049  -7.969  -5.179  -0.554 -0.479 -0.681 157.691     -2.61  -24.19   48.41  -76.78 -125.76  -60.53  101.67   97.08  -46.25  -86.15

DOCKED: MODEL       36
DOCKED: USER    Run = 36
DOCKED: USER    DPF = ligand_dock.biased.dpf
DOCKED: USER  
DOCKED: USER    Estimated Free Energy of Binding    =  -10.80 kcal/mol  [=(1)+(2)+(3)-(4)]
DOCKED: USER    Estimated Inhibition Constant, Ki   =   12.19 nM (nanomolar)  [Temperature = 298.15 K]
DOCKED: USER    
DOCKED: USER    (1) Final Intermolecular Energy     =  -13.78 kcal/mol
DOCKED: USER        vdW + Hbond + desolv Energy     =  -13.78 kcal/mol
DOCKED: USER        Electrostatic Energy            =   +0.00 kcal/mol
DOCKED: USER    (2) Final Total Internal Energy     =   -1.95 kcal/mol
DOCKED: USER    (3) Torsional Free Energy           =   +2.98 kcal/mol
DOCKED: USER    (4) Unbound System's Energy  [=(2)] =   -1.95 kcal/mol
DOCKED: USER    
DOCKED: USER    
DOCKED: USER    NEWDPF move ligand.pdbqt
DOCKED: USER    NEWDPF about 1.858000 0.218000 -0.021000
DOCKED: USER    NEWDPF tran0 21.049495 -7.969053 -5.179382
DOCKED: USER    NEWDPF quaternion0 -0.543277 -0.470299 -0.668014 0.193458
DOCKED: USER    NEWDPF axisangle0 -0.553738 -0.479354 -0.680877 157.690687
DOCKED: USER    NEWDPF quat0 -0.553738 -0.479354 -0.680877 157.690687
DOCKED: USER    NEWDPF dihe0 -2.61 -24.19 48.41 -76.78 -125.76 -60.53 101.67 97.08 -46.25 -86.15 
DOCKED: USER  keepresnum = 1 
DOCKED: USER  
DOCKED: REMARK  Name = 
DOCKED: REMARK  12 active torsions:
DOCKED: REMARK  status: ('A' for Active; 'I' for Inactive)
DOCKED: REMARK    1  A    between atoms: C_2  and  O_3
DOCKED: REMARK    2  A    between atoms: O_3  and  C_4
DOCKED: REMARK    3  A    between atoms: C_4  and  C_5
DOCKED: REMARK    4  A    between atoms: C_10  and  C_11
DOCKED: REMARK    5  A    between atoms: C_11  and  N_12
DOCKED: REMARK    6  A    between atoms: N_12  and  C_13
DOCKED: REMARK    7  A    between atoms: N_12  and  C_15
DOCKED: REMARK    8  A    between atoms: C_13  and  C_14
DOCKED: REMARK    9  A    between atoms: C_15  and  C_16
DOCKED: REMARK   10  A    between atoms: N_21  and  C_22
DOCKED: REMARK   11  A    between atoms: C_25  and  C_26
DOCKED: REMARK   12  A    between atoms: N_27  and  O_28
DOCKED: REMARK                            x       y       z     vdW  Elec       q    Type
DOCKED: REMARK                         _______ _______ _______ _____ _____    ______ ____
DOCKED: USER                              x       y       z     vdW  Elec       q    Type
DOCKED: USER                           _______ _______ _______ _____ _____    ______ ____
DOCKED: ROOT
DOCKED: ATOM      1  C   UNL     1      22.298  -7.145  -5.866 -0.18 -0.00    +0.000 C 
DOCKED: ENDROOT
DOCKED: BRANCH   1   2
DOCKED: ATOM      2  C   UNL     1      22.266  -8.391  -6.701 -0.17 -0.00    +0.000 A 
DOCKED: ATOM      3  C   UNL     1      21.077  -8.791  -7.329 -0.12 -0.00    +0.000 A 
DOCKED: ATOM      4  C   UNL     1      21.032  -9.969  -8.079 -0.19 -0.00    +0.000 A 
DOCKED: ATOM      5  C   UNL     1      22.176 -10.772  -8.200 -0.26 -0.00    +0.000 A 
DOCKED: ATOM      6  C   UNL     1      22.140 -11.957  -8.950 -0.14 -0.00    +0.000 A 
DOCKED: ATOM      7  C   UNL     1      23.287 -12.760  -9.063 -0.38 -0.00    +0.000 A 
DOCKED: ATOM      8  C   UNL     1      24.473 -12.367  -8.424 -0.41 -0.00    +0.000 A 
DOCKED: ATOM      9  C   UNL     1      24.517 -11.189  -7.674 -0.37 -0.00    +0.000 A 
DOCKED: ATOM     10  C   UNL     1      23.375 -10.384  -7.556 -0.30 -0.00    +0.000 A 
DOCKED: ATOM     11  C   UNL     1      23.410  -9.199  -6.806 -0.20 -0.00    +0.000 A 
DOCKED: BRANCH   7  12
DOCKED: ATOM     12  C   UNL     1      23.262 -14.024  -9.882 -0.44 -0.00    +0.000 C 
DOCKED: BRANCH  12  13
DOCKED: ATOM     13  N   UNL     1      22.715 -13.747 -11.228 -0.31 -0.00    +0.000 N 
DOCKED: ATOM     14  H   UNL     1      21.920 -13.119 -11.123 -0.02 +0.00    +0.000 HD
DOCKED: BRANCH  13  15
DOCKED: ATOM     15  C   UNL     1      22.175 -14.976 -11.855 -0.40 +0.00    +0.000 C 
DOCKED: ATOM     16  C   UNL     1      21.263 -14.659 -13.039 -0.29 +0.00    +0.000 C 
DOCKED: ENDBRANCH  13  15
DOCKED: BRANCH  13  17
DOCKED: ATOM     17  C   UNL     1      23.678 -13.003 -12.079 -0.16 -0.00    +0.000 C 
DOCKED: ATOM     18  C   UNL     1      25.126 -13.505 -11.982 -0.20 -0.00    +0.000 C 
DOCKED: ENDBRANCH  13  17
DOCKED: ENDBRANCH  12  13
DOCKED: ENDBRANCH   7  12
DOCKED: ENDBRANCH   1   2
DOCKED: BRANCH   1  19
DOCKED: ATOM     19  O   UNL     1      21.138  -7.105  -5.040 -0.19 -0.00    +0.000 OA
DOCKED: BRANCH  19  21
DOCKED: ATOM     20  O   UNL     1      21.307  -6.812  -2.758 -0.45 -0.00    +0.000 OA
DOCKED: ATOM     21  C   UNL     1      21.126  -7.595  -3.732 -0.35 -0.00    +0.000 C 
DOCKED: ATOM     22  N   UNL     1      20.949  -9.000  -3.515 -0.38 -0.00    +0.000 N 
DOCKED: ATOM     23  H   UNL     1      20.969  -9.593  -4.301 -0.00 -0.00    +0.000 HD
DOCKED: BRANCH  22  24
DOCKED: ATOM     24  C   UNL     1      20.742  -9.604  -2.226 -0.48 -0.00    +0.000 A 
DOCKED: ATOM     25  C   UNL     1      21.554  -9.220  -1.150 -0.38 -0.00    +0.000 A 
DOCKED: ATOM     26  C   UNL     1      21.389  -9.806   0.108 -0.59 -0.00    +0.000 A 
DOCKED: ATOM     27  C   UNL     1      20.413 -10.796   0.314 -0.60 -0.00    +0.000 A 
DOCKED: ATOM     28  C   UNL     1      19.623 -11.205  -0.776 -0.40 -0.00    +0.000 A 
DOCKED: ATOM     29  C   UNL     1      19.788 -10.618  -2.034 -0.41 -0.00    +0.000 A 
DOCKED: BRANCH  27  30
DOCKED: ATOM     30  C   UNL     1      20.252 -11.412   1.653 -0.76 -0.00    +0.000 C 
DOCKED: ATOM     31  N   UNL     1      20.516 -10.673   2.852 -0.65 -0.00    +0.000 N 
DOCKED: ATOM     32  O   UNL     1      19.889 -12.616   1.744 -1.65 -0.00    +0.000 OA
DOCKED: ATOM     33  H   UNL     1      20.882  -9.761   2.795 -0.59 -0.00    +0.000 HD
DOCKED: BRANCH  31  34
DOCKED: ATOM     34  O   UNL     1      20.266 -11.225   4.064 -0.82 -0.00    +0.000 OA
DOCKED: ATOM     35  H   UNL     1      20.645 -12.117   4.098 -0.52 -0.00    +0.000 HD
DOCKED: ENDBRANCH  31  34
DOCKED: ENDBRANCH  27  30
DOCKED: ENDBRANCH  22  24
DOCKED: ENDBRANCH  19  21
DOCKED: ENDBRANCH   1  19
DOCKED: TORSDOF 10
DOCKED: TER
DOCKED: ENDMDL
________________________________________________________________________________


	BEGINNING GENETIC ALGORITHM DOCKING 37 of 100
Run: 37 Seed: 1874554052 1932326527 [ Run 37 of 100 GA/GALS ]
Beginning LAMARCKIAN GENETIC ALGORITHM (LGA), with a maximum of 2500000 energy evaluations.

Final-Value: -14.934


	FINAL GENETIC ALGORITHM DOCKED STATE
	_______________________________________________


Detailed state:  trans 17.841 -12.302 0.515 quatxyzw -0.382548 0.394648 -0.830494 -0.090494 center 1.858 0.218 -0.021 ntor 10 -8.9203 163.9187 8.4990 33.4344 -5.1803 -156.6614 -112.2176 132.2245 55.2451 110.2152
State:	 17.841 -12.302   0.515  -0.384  0.396 -0.834 -169.616     -8.92  163.92    8.50   33.43   -5.18 -156.66 -112.22  132.22   55.25  110.22

DOCKED: MODEL       37
DOCKED: USER    Run = 37
DOCKED: USER    DPF = ligand_dock.biased.dpf
DOCKED: USER  
DOCKED: USER    Estimated Free Energy of Binding    =   -9.69 kcal/mol  [=(1)+(2)+(3)-(4)]
DOCKED: USER    Estimated Inhibition Constant, Ki   =   79.33 nM (nanomolar)  [Temperature = 298.15 K]
DOCKED: USER    
DOCKED: USER    (1) Final Intermolecular Energy     =  -12.67 kcal/mol
DOCKED: USER        vdW + Hbond + desolv Energy     =  -12.67 kcal/mol
DOCKED: USER        Electrostatic Energy            =   +0.00 kcal/mol
DOCKED: USER    (2) Final Total Internal Energy     =   -2.26 kcal/mol
DOCKED: USER    (3) Torsional Free Energy           =   +2.98 kcal/mol
DOCKED: USER    (4) Unbound System's Energy  [=(2)] =   -2.26 kcal/mol
DOCKED: USER    
DOCKED: USER    
DOCKED: USER    NEWDPF move ligand.pdbqt
DOCKED: USER    NEWDPF about 1.858000 0.218000 -0.021000
DOCKED: USER    NEWDPF tran0 17.840880 -12.301847 0.515282
DOCKED: USER    NEWDPF quaternion0 -0.382548 0.394648 -0.830494 -0.090494
DOCKED: USER    NEWDPF axisangle0 -0.384124 0.396274 -0.833916 -169.615919
DOCKED: USER    NEWDPF quat0 -0.384124 0.396274 -0.833916 -169.615919
DOCKED: USER    NEWDPF dihe0 -8.92 163.92 8.50 33.43 -5.18 -156.66 -112.22 132.22 55.25 110.22 
DOCKED: USER  keepresnum = 1 
DOCKED: USER  
DOCKED: REMARK  Name = 
DOCKED: REMARK  12 active torsions:
DOCKED: REMARK  status: ('A' for Active; 'I' for Inactive)
DOCKED: REMARK    1  A    between atoms: C_2  and  O_3
DOCKED: REMARK    2  A    between atoms: O_3  and  C_4
DOCKED: REMARK    3  A    between atoms: C_4  and  C_5
DOCKED: REMARK    4  A    between atoms: C_10  and  C_11
DOCKED: REMARK    5  A    between atoms: C_11  and  N_12
DOCKED: REMARK    6  A    between atoms: N_12  and  C_13
DOCKED: REMARK    7  A    between atoms: N_12  and  C_15
DOCKED: REMARK    8  A    between atoms: C_13  and  C_14
DOCKED: REMARK    9  A    between atoms: C_15  and  C_16
DOCKED: REMARK   10  A    between atoms: N_21  and  C_22
DOCKED: REMARK   11  A    between atoms: C_25  and  C_26
DOCKED: REMARK   12  A    between atoms: N_27  and  O_28
DOCKED: REMARK                            x       y       z     vdW  Elec       q    Type
DOCKED: REMARK                         _______ _______ _______ _____ _____    ______ ____
DOCKED: USER                              x       y       z     vdW  Elec       q    Type
DOCKED: USER                           _______ _______ _______ _____ _____    ______ ____
DOCKED: ROOT
DOCKED: ATOM      1  C   UNL     1      19.109 -12.668   1.497 -0.39 -0.00    +0.000 C 
DOCKED: ENDROOT
DOCKED: BRANCH   1   2
DOCKED: ATOM      2  C   UNL     1      19.726 -11.656   0.577 -0.58 -0.00    +0.000 A 
DOCKED: ATOM      3  C   UNL     1      20.838 -10.908   0.993 -0.58 -0.00    +0.000 A 
DOCKED: ATOM      4  C   UNL     1      21.395  -9.939   0.154 -0.59 -0.00    +0.000 A 
DOCKED: ATOM      5  C   UNL     1      20.836  -9.694  -1.108 -0.56 -0.00    +0.000 A 
DOCKED: ATOM      6  C   UNL     1      21.388  -8.722  -1.957 -0.46 -0.00    +0.000 A 
DOCKED: ATOM      7  C   UNL     1      20.822  -8.477  -3.218 -0.37 -0.00    +0.000 A 
DOCKED: ATOM      8  C   UNL     1      19.700  -9.215  -3.629 -0.27 -0.00    +0.000 A 
DOCKED: ATOM      9  C   UNL     1      19.144 -10.183  -2.790 -0.33 -0.00    +0.000 A 
DOCKED: ATOM     10  C   UNL     1      19.704 -10.432  -1.529 -0.42 -0.00    +0.000 A 
DOCKED: ATOM     11  C   UNL     1      19.153 -11.403  -0.680 -0.42 -0.00    +0.000 A 
DOCKED: BRANCH   7  12
DOCKED: ATOM     12  C   UNL     1      21.419  -7.449  -4.142 -0.31 -0.00    +0.000 C 
DOCKED: BRANCH  12  13
DOCKED: ATOM     13  N   UNL     1      21.726  -6.211  -3.395 -0.30 -0.00    +0.000 N 
DOCKED: ATOM     14  H   UNL     1      22.495  -6.409  -2.755 -0.03 -0.00    +0.000 HD
DOCKED: BRANCH  13  15
DOCKED: ATOM     15  C   UNL     1      20.589  -5.799  -2.538 -0.31 -0.00    +0.000 C 
DOCKED: ATOM     16  C   UNL     1      21.039  -4.906  -1.383 -0.45 +0.00    +0.000 C 
DOCKED: ENDBRANCH  13  15
DOCKED: BRANCH  13  17
DOCKED: ATOM     17  C   UNL     1      22.238  -5.136  -4.281 -0.19 -0.00    +0.000 C 
DOCKED: ATOM     18  C   UNL     1      23.543  -4.487  -3.798 -0.16 -0.00    +0.000 C 
DOCKED: ENDBRANCH  13  17
DOCKED: ENDBRANCH  12  13
DOCKED: ENDBRANCH   7  12
DOCKED: ENDBRANCH   1   2
DOCKED: BRANCH   1  19
DOCKED: ATOM     19  O   UNL     1      17.701 -12.693   1.291 -0.82 +0.00    +0.000 OA
DOCKED: BRANCH  19  21
DOCKED: ATOM     20  O   UNL     1      16.018 -11.175   0.856 -0.37 +0.00    +0.000 OA
DOCKED: ATOM     21  C   UNL     1      16.864 -11.640   1.669 -0.45 +0.00    +0.000 C 
DOCKED: ATOM     22  N   UNL     1      17.010 -11.069   2.976 -0.45 +0.00    +0.000 N 
DOCKED: ATOM     23  H   UNL     1      17.781 -11.352   3.518 -0.02 +0.00    +0.000 HD
DOCKED: BRANCH  22  24
DOCKED: ATOM     24  C   UNL     1      16.104 -10.110   3.548 -0.42 +0.00    +0.000 A 
DOCKED: ATOM     25  C   UNL     1      15.137 -10.541   4.467 -0.39 +0.00    +0.000 A 
DOCKED: ATOM     26  C   UNL     1      14.231  -9.633   5.022 -0.39 +0.00    +0.000 A 
DOCKED: ATOM     27  C   UNL     1      14.268  -8.275   4.663 -0.36 +0.00    +0.000 A 
DOCKED: ATOM     28  C   UNL     1      15.216  -7.850   3.714 -0.33 +0.00    +0.000 A 
DOCKED: ATOM     29  C   UNL     1      16.123  -8.759   3.160 -0.27 +0.00    +0.000 A 
DOCKED: BRANCH  27  30
DOCKED: ATOM     30  C   UNL     1      13.297  -7.323   5.257 -0.38 +0.00    +0.000 C 
DOCKED: ATOM     31  N   UNL     1      13.613  -5.935   5.415 -0.36 +0.00    +0.000 N 
DOCKED: ATOM     32  O   UNL     1      12.174  -7.744   5.645 -0.34 +0.00    +0.000 OA
DOCKED: ATOM     33  H   UNL     1      14.516  -5.609   5.196 -0.01 +0.00    +0.000 HD
DOCKED: BRANCH  31  34
DOCKED: ATOM     34  O   UNL     1      12.675  -5.068   5.866 -0.56 +0.00    +0.000 OA
DOCKED: ATOM     35  H   UNL     1      11.894  -5.561   6.160 -0.03 +0.00    +0.000 HD
DOCKED: ENDBRANCH  31  34
DOCKED: ENDBRANCH  27  30
DOCKED: ENDBRANCH  22  24
DOCKED: ENDBRANCH  19  21
DOCKED: ENDBRANCH   1  19
DOCKED: TORSDOF 10
DOCKED: TER
DOCKED: ENDMDL
________________________________________________________________________________


	BEGINNING GENETIC ALGORITHM DOCKING 38 of 100
Run: 38 Seed: 1132028702 707807852 [ Run 38 of 100 GA/GALS ]
Beginning LAMARCKIAN GENETIC ALGORITHM (LGA), with a maximum of 2500000 energy evaluations.

Final-Value: -16.421


	FINAL GENETIC ALGORITHM DOCKED STATE
	_______________________________________________


Detailed state:  trans 20.030 -9.661 -5.855 quatxyzw 0.635358 -0.692313 0.154885 0.305013 center 1.858 0.218 -0.021 ntor 10 -95.7456 -176.8125 30.5440 -95.7745 -105.9771 128.3120 -134.5538 -101.0223 155.8898 115.2758
State:	 20.030  -9.661  -5.855   0.667 -0.727  0.163 144.482    -95.75 -176.81   30.54  -95.77 -105.98  128.31 -134.55 -101.02  155.89  115.28

DOCKED: MODEL       38
DOCKED: USER    Run = 38
DOCKED: USER    DPF = ligand_dock.biased.dpf
DOCKED: USER  
DOCKED: USER    Estimated Free Energy of Binding    =  -11.03 kcal/mol  [=(1)+(2)+(3)-(4)]
DOCKED: USER    Estimated Inhibition Constant, Ki   =    8.26 nM (nanomolar)  [Temperature = 298.15 K]
DOCKED: USER    
DOCKED: USER    (1) Final Intermolecular Energy     =  -14.01 kcal/mol
DOCKED: USER        vdW + Hbond + desolv Energy     =  -14.01 kcal/mol
DOCKED: USER        Electrostatic Energy            =   +0.00 kcal/mol
DOCKED: USER    (2) Final Total Internal Energy     =   -2.41 kcal/mol
DOCKED: USER    (3) Torsional Free Energy           =   +2.98 kcal/mol
DOCKED: USER    (4) Unbound System's Energy  [=(2)] =   -2.41 kcal/mol
DOCKED: USER    
DOCKED: USER    
DOCKED: USER    NEWDPF move ligand.pdbqt
DOCKED: USER    NEWDPF about 1.858000 0.218000 -0.021000
DOCKED: USER    NEWDPF tran0 20.030332 -9.661052 -5.855018
DOCKED: USER    NEWDPF quaternion0 0.635358 -0.692313 0.154885 0.305013
DOCKED: USER    NEWDPF axisangle0 0.667149 -0.726954 0.162635 144.482056
DOCKED: USER    NEWDPF quat0 0.667149 -0.726954 0.162635 144.482056
DOCKED: USER    NEWDPF dihe0 -95.75 -176.81 30.54 -95.77 -105.98 128.31 -134.55 -101.02 155.89 115.28 
DOCKED: USER  keepresnum = 1 
DOCKED: USER  
DOCKED: REMARK  Name = 
DOCKED: REMARK  12 active torsions:
DOCKED: REMARK  status: ('A' for Active; 'I' for Inactive)
DOCKED: REMARK    1  A    between atoms: C_2  and  O_3
DOCKED: REMARK    2  A    between atoms: O_3  and  C_4
DOCKED: REMARK    3  A    between atoms: C_4  and  C_5
DOCKED: REMARK    4  A    between atoms: C_10  and  C_11
DOCKED: REMARK    5  A    between atoms: C_11  and  N_12
DOCKED: REMARK    6  A    between atoms: N_12  and  C_13
DOCKED: REMARK    7  A    between atoms: N_12  and  C_15
DOCKED: REMARK    8  A    between atoms: C_13  and  C_14
DOCKED: REMARK    9  A    between atoms: C_15  and  C_16
DOCKED: REMARK   10  A    between atoms: N_21  and  C_22
DOCKED: REMARK   11  A    between atoms: C_25  and  C_26
DOCKED: REMARK   12  A    between atoms: N_27  and  O_28
DOCKED: REMARK                            x       y       z     vdW  Elec       q    Type
DOCKED: REMARK                         _______ _______ _______ _____ _____    ______ ____
DOCKED: USER                              x       y       z     vdW  Elec       q    Type
DOCKED: USER                           _______ _______ _______ _____ _____    ______ ____
DOCKED: ROOT
DOCKED: ATOM      1  C   UNL     1      21.477  -9.344  -6.572 -0.24 -0.00    +0.000 C 
DOCKED: ENDROOT
DOCKED: BRANCH   1   2
DOCKED: ATOM      2  C   UNL     1      21.247  -8.083  -5.792 -0.17 -0.00    +0.000 A 
DOCKED: ATOM      3  C   UNL     1      20.832  -6.913  -6.446 -0.08 -0.00    +0.000 A 
DOCKED: ATOM      4  C   UNL     1      20.650  -5.727  -5.730 -0.08 -0.00    +0.000 A 
DOCKED: ATOM      5  C   UNL     1      20.896  -5.691  -4.350 -0.18 -0.00    +0.000 A 
DOCKED: ATOM      6  C   UNL     1      20.718  -4.504  -3.624 -0.18 -0.00    +0.000 A 
DOCKED: ATOM      7  C   UNL     1      20.970  -4.473  -2.243 -0.33 -0.00    +0.000 A 
DOCKED: ATOM      8  C   UNL     1      21.399  -5.639  -1.590 -0.32 +0.00    +0.000 A 
DOCKED: ATOM      9  C   UNL     1      21.580  -6.825  -2.307 -0.36 -0.00    +0.000 A 
DOCKED: ATOM     10  C   UNL     1      21.331  -6.862  -3.686 -0.30 -0.00    +0.000 A 
DOCKED: ATOM     11  C   UNL     1      21.510  -8.049  -4.413 -0.27 -0.00    +0.000 A 
DOCKED: BRANCH   7  12
DOCKED: ATOM     12  C   UNL     1      20.763  -3.207  -1.452 -0.32 -0.00    +0.000 C 
DOCKED: BRANCH  12  13
DOCKED: ATOM     13  N   UNL     1      22.032  -2.792  -0.815 -0.31 +0.00    +0.000 N 
DOCKED: ATOM     14  H   UNL     1      22.329  -3.538  -0.187 -0.03 +0.00    +0.000 HD
DOCKED: BRANCH  13  15
DOCKED: ATOM     15  C   UNL     1      21.842  -1.599   0.042 -0.33 -0.00    +0.000 C 
DOCKED: ATOM     16  C   UNL     1      21.043  -1.923   1.304 -0.49 -0.00    +0.000 C 
DOCKED: ENDBRANCH  13  15
DOCKED: BRANCH  13  17
DOCKED: ATOM     17  C   UNL     1      23.134  -2.663  -1.801 -0.25 -0.00    +0.000 C 
DOCKED: ATOM     18  C   UNL     1      24.220  -3.742  -1.678 -0.36 +0.00    +0.000 C 
DOCKED: ENDBRANCH  13  17
DOCKED: ENDBRANCH  12  13
DOCKED: ENDBRANCH   7  12
DOCKED: ENDBRANCH   1   2
DOCKED: BRANCH   1  19
DOCKED: ATOM     19  O   UNL     1      20.515 -10.318  -6.183 -0.30 -0.00    +0.000 OA
DOCKED: BRANCH  19  21
DOCKED: ATOM     20  O   UNL     1      20.929 -12.010  -4.669 -0.59 -0.00    +0.000 OA
DOCKED: ATOM     21  C   UNL     1      20.465 -10.857  -4.895 -0.48 -0.00    +0.000 C 
DOCKED: ATOM     22  N   UNL     1      19.843 -10.103  -3.847 -0.33 -0.00    +0.000 N 
DOCKED: ATOM     23  H   UNL     1      19.356  -9.284  -4.096 -0.00 -0.00    +0.000 HD
DOCKED: BRANCH  22  24
DOCKED: ATOM     24  C   UNL     1      19.882 -10.462  -2.455 -0.42 -0.00    +0.000 A 
DOCKED: ATOM     25  C   UNL     1      21.041 -10.204  -1.711 -0.55 -0.00    +0.000 A 
DOCKED: ATOM     26  C   UNL     1      21.113 -10.563  -0.362 -0.62 -0.00    +0.000 A 
DOCKED: ATOM     27  C   UNL     1      20.029 -11.195   0.269 -0.57 -0.00    +0.000 A 
DOCKED: ATOM     28  C   UNL     1      18.879 -11.486  -0.488 -0.45 -0.00    +0.000 A 
DOCKED: ATOM     29  C   UNL     1      18.808 -11.126  -1.837 -0.33 -0.00    +0.000 A 
DOCKED: BRANCH  27  30
DOCKED: ATOM     30  C   UNL     1      20.121 -11.574   1.701 -0.76 -0.00    +0.000 C 
DOCKED: ATOM     31  N   UNL     1      20.523 -10.628   2.699 -0.64 -0.00    +0.000 N 
DOCKED: ATOM     32  O   UNL     1      19.855 -12.756   2.049 -1.52 -0.00    +0.000 OA
DOCKED: ATOM     33  H   UNL     1      20.816  -9.727   2.431 -0.56 -0.00    +0.000 HD
DOCKED: BRANCH  31  34
DOCKED: ATOM     34  O   UNL     1      20.503 -10.968   4.010 -0.79 -0.00    +0.000 OA
DOCKED: ATOM     35  H   UNL     1      20.673 -11.919   4.100 -0.50 -0.00    +0.000 HD
DOCKED: ENDBRANCH  31  34
DOCKED: ENDBRANCH  27  30
DOCKED: ENDBRANCH  22  24
DOCKED: ENDBRANCH  19  21
DOCKED: ENDBRANCH   1  19
DOCKED: TORSDOF 10
DOCKED: TER
DOCKED: ENDMDL
________________________________________________________________________________


	BEGINNING GENETIC ALGORITHM DOCKING 39 of 100
Run: 39 Seed: 1908103423 177536892 [ Run 39 of 100 GA/GALS ]
Beginning LAMARCKIAN GENETIC ALGORITHM (LGA), with a maximum of 2500000 energy evaluations.

Final-Value: -15.673


	FINAL GENETIC ALGORITHM DOCKED STATE
	_______________________________________________


Detailed state:  trans 20.450 -8.834 -5.621 quatxyzw -0.107129 -0.935498 0.140792 -0.305850 center 1.858 0.218 -0.021 ntor 10 47.0582 -73.1590 5.9155 63.7773 -88.4879 172.5642 143.7793 88.4658 -8.2604 116.2245
State:	 20.450  -8.834  -5.621  -0.113 -0.983  0.148 -144.381     47.06  -73.16    5.92   63.78  -88.49  172.56  143.78   88.47   -8.26  116.22

DOCKED: MODEL       39
DOCKED: USER    Run = 39
DOCKED: USER    DPF = ligand_dock.biased.dpf
DOCKED: USER  
DOCKED: USER    Estimated Free Energy of Binding    =  -10.73 kcal/mol  [=(1)+(2)+(3)-(4)]
DOCKED: USER    Estimated Inhibition Constant, Ki   =   13.58 nM (nanomolar)  [Temperature = 298.15 K]
DOCKED: USER    
DOCKED: USER    (1) Final Intermolecular Energy     =  -13.72 kcal/mol
DOCKED: USER        vdW + Hbond + desolv Energy     =  -13.72 kcal/mol
DOCKED: USER        Electrostatic Energy            =   +0.00 kcal/mol
DOCKED: USER    (2) Final Total Internal Energy     =   -1.96 kcal/mol
DOCKED: USER    (3) Torsional Free Energy           =   +2.98 kcal/mol
DOCKED: USER    (4) Unbound System's Energy  [=(2)] =   -1.96 kcal/mol
DOCKED: USER    
DOCKED: USER    
DOCKED: USER    NEWDPF move ligand.pdbqt
DOCKED: USER    NEWDPF about 1.858000 0.218000 -0.021000
DOCKED: USER    NEWDPF tran0 20.450037 -8.834225 -5.621253
DOCKED: USER    NEWDPF quaternion0 -0.107129 -0.935498 0.140792 -0.305850
DOCKED: USER    NEWDPF axisangle0 -0.112521 -0.982584 0.147879 -144.381363
DOCKED: USER    NEWDPF quat0 -0.112521 -0.982584 0.147879 -144.381363
DOCKED: USER    NEWDPF dihe0 47.06 -73.16 5.92 63.78 -88.49 172.56 143.78 88.47 -8.26 116.22 
DOCKED: USER  keepresnum = 1 
DOCKED: USER  
DOCKED: REMARK  Name = 
DOCKED: REMARK  12 active torsions:
DOCKED: REMARK  status: ('A' for Active; 'I' for Inactive)
DOCKED: REMARK    1  A    between atoms: C_2  and  O_3
DOCKED: REMARK    2  A    between atoms: O_3  and  C_4
DOCKED: REMARK    3  A    between atoms: C_4  and  C_5
DOCKED: REMARK    4  A    between atoms: C_10  and  C_11
DOCKED: REMARK    5  A    between atoms: C_11  and  N_12
DOCKED: REMARK    6  A    between atoms: N_12  and  C_13
DOCKED: REMARK    7  A    between atoms: N_12  and  C_15
DOCKED: REMARK    8  A    between atoms: C_13  and  C_14
DOCKED: REMARK    9  A    between atoms: C_15  and  C_16
DOCKED: REMARK   10  A    between atoms: N_21  and  C_22
DOCKED: REMARK   11  A    between atoms: C_25  and  C_26
DOCKED: REMARK   12  A    between atoms: N_27  and  O_28
DOCKED: REMARK                            x       y       z     vdW  Elec       q    Type
DOCKED: REMARK                         _______ _______ _______ _____ _____    ______ ____
DOCKED: USER                              x       y       z     vdW  Elec       q    Type
DOCKED: USER                           _______ _______ _______ _____ _____    ______ ____
DOCKED: ROOT
DOCKED: ATOM      1  C   UNL     1      19.595  -9.793  -6.650 -0.23 -0.00    +0.000 C 
DOCKED: ENDROOT
DOCKED: BRANCH   1   2
DOCKED: ATOM      2  C   UNL     1      21.006 -10.192  -6.972 -0.25 -0.00    +0.000 A 
DOCKED: ATOM      3  C   UNL     1      21.605 -11.270  -6.302 -0.33 -0.00    +0.000 A 
DOCKED: ATOM      4  C   UNL     1      22.929 -11.624  -6.572 -0.42 -0.00    +0.000 A 
DOCKED: ATOM      5  C   UNL     1      23.678 -10.894  -7.506 -0.35 -0.00    +0.000 A 
DOCKED: ATOM      6  C   UNL     1      25.010 -11.241  -7.781 -0.29 -0.00    +0.000 A 
DOCKED: ATOM      7  C   UNL     1      25.757 -10.504  -8.714 -0.31 -0.00    +0.000 A 
DOCKED: ATOM      8  C   UNL     1      25.162  -9.416  -9.374 -0.12 -0.00    +0.000 A 
DOCKED: ATOM      9  C   UNL     1      23.838  -9.063  -9.104 -0.09 -0.00    +0.000 A 
DOCKED: ATOM     10  C   UNL     1      23.087  -9.795  -8.173 -0.19 -0.00    +0.000 A 
DOCKED: ATOM     11  C   UNL     1      21.756  -9.448  -7.896 -0.16 -0.00    +0.000 A 
DOCKED: BRANCH   7  12
DOCKED: ATOM     12  C   UNL     1      27.180 -10.882  -9.030 -0.38 -0.00    +0.000 C 
DOCKED: BRANCH  12  13
DOCKED: ATOM     13  N   UNL     1      28.075 -10.453  -7.934 -0.48 -0.00    +0.000 N 
DOCKED: ATOM     14  H   UNL     1      28.257 -11.261  -7.340 -0.04 -0.00    +0.000 HD
DOCKED: BRANCH  13  15
DOCKED: ATOM     15  C   UNL     1      27.419  -9.453  -7.059 -0.47 -0.00    +0.000 C 
DOCKED: ATOM     16  C   UNL     1      28.419  -8.440  -6.501 -0.42 -0.00    +0.000 C 
DOCKED: ENDBRANCH  13  15
DOCKED: BRANCH  13  17
DOCKED: ATOM     17  C   UNL     1      29.411 -10.041  -8.433 -0.38 -0.00    +0.000 C 
DOCKED: ATOM     18  C   UNL     1      29.629 -10.289  -9.933 -0.30 -0.00    +0.000 C 
DOCKED: ENDBRANCH  13  17
DOCKED: ENDBRANCH  12  13
DOCKED: ENDBRANCH   7  12
DOCKED: ENDBRANCH   1   2
DOCKED: BRANCH   1  19
DOCKED: ATOM     19  O   UNL     1      19.593  -8.978  -5.482 -0.17 -0.00    +0.000 OA
DOCKED: BRANCH  19  21
DOCKED: ATOM     20  O   UNL     1      21.218  -9.397  -3.899 -0.43 -0.00    +0.000 OA
DOCKED: ATOM     21  C   UNL     1      20.002  -9.449  -4.232 -0.32 -0.00    +0.000 C 
DOCKED: ATOM     22  N   UNL     1      19.029 -10.030  -3.354 -0.31 -0.00    +0.000 N 
DOCKED: ATOM     23  H   UNL     1      18.126 -10.194  -3.713 -0.01 -0.00    +0.000 HD
DOCKED: BRANCH  22  24
DOCKED: ATOM     24  C   UNL     1      19.282 -10.388  -1.985 -0.35 -0.00    +0.000 A 
DOCKED: ATOM     25  C   UNL     1      20.575 -10.242  -1.464 -0.52 -0.00    +0.000 A 
DOCKED: ATOM     26  C   UNL     1      20.853 -10.604  -0.143 -0.61 -0.00    +0.000 A 
DOCKED: ATOM     27  C   UNL     1      19.844 -11.127   0.683 -0.59 -0.00    +0.000 A 
DOCKED: ATOM     28  C   UNL     1      18.555 -11.306   0.149 -0.45 -0.00    +0.000 A 
DOCKED: ATOM     29  C   UNL     1      18.277 -10.944  -1.173 -0.36 -0.00    +0.000 A 
DOCKED: BRANCH  27  30
DOCKED: ATOM     30  C   UNL     1      20.155 -11.510   2.082 -0.77 -0.00    +0.000 C 
DOCKED: ATOM     31  N   UNL     1      20.468 -10.525   3.074 -0.66 -0.00    +0.000 N 
DOCKED: ATOM     32  O   UNL     1      20.158 -12.729   2.406 -1.25 -0.00    +0.000 OA
DOCKED: ATOM     33  H   UNL     1      20.553  -9.579   2.816 -0.56 -0.00    +0.000 HD
DOCKED: BRANCH  31  34
DOCKED: ATOM     34  O   UNL     1      20.649 -10.890   4.366 -0.74 -0.00    +0.000 OA
DOCKED: ATOM     35  H   UNL     1      20.624 -11.857   4.435 -0.43 -0.00    +0.000 HD
DOCKED: ENDBRANCH  31  34
DOCKED: ENDBRANCH  27  30
DOCKED: ENDBRANCH  22  24
DOCKED: ENDBRANCH  19  21
DOCKED: ENDBRANCH   1  19
DOCKED: TORSDOF 10
DOCKED: TER
DOCKED: ENDMDL
________________________________________________________________________________


	BEGINNING GENETIC ALGORITHM DOCKING 40 of 100
Run: 40 Seed: 1149365504 455012853 [ Run 40 of 100 GA/GALS ]
Beginning LAMARCKIAN GENETIC ALGORITHM (LGA), with a maximum of 2500000 energy evaluations.

Final-Value: -15.458


	FINAL GENETIC ALGORITHM DOCKED STATE
	_______________________________________________


Detailed state:  trans 21.418 -9.799 -6.008 quatxyzw -0.493494 -0.503091 -0.686102 0.180628 center 1.858 0.218 -0.021 ntor 10 60.1117 176.8306 40.5825 -113.9049 -139.3407 160.7137 -126.4380 -28.8346 179.8364 -100.7722
State:	 21.418  -9.799  -6.008  -0.502 -0.512 -0.698 159.187     60.11  176.83   40.58 -113.90 -139.34  160.71 -126.44  -28.83  179.84 -100.77

DOCKED: MODEL       40
DOCKED: USER    Run = 40
DOCKED: USER    DPF = ligand_dock.biased.dpf
DOCKED: USER  
DOCKED: USER    Estimated Free Energy of Binding    =  -10.71 kcal/mol  [=(1)+(2)+(3)-(4)]
DOCKED: USER    Estimated Inhibition Constant, Ki   =   13.99 nM (nanomolar)  [Temperature = 298.15 K]
DOCKED: USER    
DOCKED: USER    (1) Final Intermolecular Energy     =  -13.70 kcal/mol
DOCKED: USER        vdW + Hbond + desolv Energy     =  -13.70 kcal/mol
DOCKED: USER        Electrostatic Energy            =   +0.00 kcal/mol
DOCKED: USER    (2) Final Total Internal Energy     =   -1.76 kcal/mol
DOCKED: USER    (3) Torsional Free Energy           =   +2.98 kcal/mol
DOCKED: USER    (4) Unbound System's Energy  [=(2)] =   -1.76 kcal/mol
DOCKED: USER    
DOCKED: USER    
DOCKED: USER    NEWDPF move ligand.pdbqt
DOCKED: USER    NEWDPF about 1.858000 0.218000 -0.021000
DOCKED: USER    NEWDPF tran0 21.418220 -9.798608 -6.008048
DOCKED: USER    NEWDPF quaternion0 -0.493494 -0.503091 -0.686102 0.180628
DOCKED: USER    NEWDPF axisangle0 -0.501747 -0.511505 -0.697577 159.187277
DOCKED: USER    NEWDPF quat0 -0.501747 -0.511505 -0.697577 159.187277
DOCKED: USER    NEWDPF dihe0 60.11 176.83 40.58 -113.90 -139.34 160.71 -126.44 -28.83 179.84 -100.77 
DOCKED: USER  keepresnum = 1 
DOCKED: USER  
DOCKED: REMARK  Name = 
DOCKED: REMARK  12 active torsions:
DOCKED: REMARK  status: ('A' for Active; 'I' for Inactive)
DOCKED: REMARK    1  A    between atoms: C_2  and  O_3
DOCKED: REMARK    2  A    between atoms: O_3  and  C_4
DOCKED: REMARK    3  A    between atoms: C_4  and  C_5
DOCKED: REMARK    4  A    between atoms: C_10  and  C_11
DOCKED: REMARK    5  A    between atoms: C_11  and  N_12
DOCKED: REMARK    6  A    between atoms: N_12  and  C_13
DOCKED: REMARK    7  A    between atoms: N_12  and  C_15
DOCKED: REMARK    8  A    between atoms: C_13  and  C_14
DOCKED: REMARK    9  A    between atoms: C_15  and  C_16
DOCKED: REMARK   10  A    between atoms: N_21  and  C_22
DOCKED: REMARK   11  A    between atoms: C_25  and  C_26
DOCKED: REMARK   12  A    between atoms: N_27  and  O_28
DOCKED: REMARK                            x       y       z     vdW  Elec       q    Type
DOCKED: REMARK                         _______ _______ _______ _____ _____    ______ ____
DOCKED: USER                              x       y       z     vdW  Elec       q    Type
DOCKED: USER                           _______ _______ _______ _____ _____    ______ ____
DOCKED: ROOT
DOCKED: ATOM      1  C   UNL     1      22.613  -8.865  -6.647 -0.24 -0.00    +0.000 C 
DOCKED: ENDROOT
DOCKED: BRANCH   1   2
DOCKED: ATOM      2  C   UNL     1      22.766 -10.131  -7.439 -0.27 -0.00    +0.000 A 
DOCKED: ATOM      3  C   UNL     1      23.442 -11.231  -6.888 -0.27 -0.00    +0.000 A 
DOCKED: ATOM      4  C   UNL     1      23.619 -12.399  -7.633 -0.41 -0.00    +0.000 A 
DOCKED: ATOM      5  C   UNL     1      23.134 -12.479  -8.947 -0.36 -0.00    +0.000 A 
DOCKED: ATOM      6  C   UNL     1      23.308 -13.648  -9.703 -0.34 -0.00    +0.000 A 
DOCKED: ATOM      7  C   UNL     1      22.825 -13.720 -11.019 -0.32 -0.00    +0.000 A 
DOCKED: ATOM      8  C   UNL     1      22.161 -12.615 -11.575 -0.18 -0.00    +0.000 A 
DOCKED: ATOM      9  C   UNL     1      21.985 -11.447 -10.829 -0.14 -0.00    +0.000 A 
DOCKED: ATOM     10  C   UNL     1      22.466 -11.369  -9.515 -0.23 -0.00    +0.000 A 
DOCKED: ATOM     11  C   UNL     1      22.293 -10.200  -8.759 -0.18 -0.00    +0.000 A 
DOCKED: BRANCH   7  12
DOCKED: ATOM     12  C   UNL     1      22.991 -14.978 -11.831 -0.39 +0.00    +0.000 C 
DOCKED: BRANCH  12  13
DOCKED: ATOM     13  N   UNL     1      24.288 -14.958 -12.540 -0.19 -0.00    +0.000 N 
DOCKED: ATOM     14  H   UNL     1      24.192 -14.360 -13.360 +0.01 -0.00    +0.000 HD
DOCKED: BRANCH  13  15
DOCKED: ATOM     15  C   UNL     1      24.640 -16.299 -13.063 -0.22 +0.00    +0.000 C 
DOCKED: ATOM     16  C   UNL     1      26.091 -16.669 -12.756 -0.29 -0.00    +0.000 C 
DOCKED: ENDBRANCH  13  15
DOCKED: BRANCH  13  17
DOCKED: ATOM     17  C   UNL     1      25.357 -14.322 -11.730 -0.27 -0.00    +0.000 C 
DOCKED: ATOM     18  C   UNL     1      25.931 -13.035 -12.340 -0.16 -0.00    +0.000 C 
DOCKED: ENDBRANCH  13  17
DOCKED: ENDBRANCH  12  13
DOCKED: ENDBRANCH   7  12
DOCKED: ENDBRANCH   1   2
DOCKED: BRANCH   1  19
DOCKED: ATOM     19  O   UNL     1      21.406  -8.926  -5.894 -0.24 -0.00    +0.000 OA
DOCKED: BRANCH  19  21
DOCKED: ATOM     20  O   UNL     1      22.002 -10.670  -4.506 -0.52 -0.00    +0.000 OA
DOCKED: ATOM     21  C   UNL     1      21.298  -9.640  -4.698 -0.39 -0.00    +0.000 C 
DOCKED: ATOM     22  N   UNL     1      20.347  -9.212  -3.715 -0.32 -0.00    +0.000 N 
DOCKED: ATOM     23  H   UNL     1      19.711  -8.505  -3.967 -0.01 -0.00    +0.000 HD
DOCKED: BRANCH  22  24
DOCKED: ATOM     24  C   UNL     1      20.261  -9.747  -2.383 -0.43 -0.00    +0.000 A 
DOCKED: ATOM     25  C   UNL     1      21.069  -9.209  -1.372 -0.54 -0.00    +0.000 A 
DOCKED: ATOM     26  C   UNL     1      21.020  -9.725  -0.074 -0.60 -0.00    +0.000 A 
DOCKED: ATOM     27  C   UNL     1      20.167 -10.796   0.239 -0.58 -0.00    +0.000 A 
DOCKED: ATOM     28  C   UNL     1      19.382 -11.358  -0.784 -0.36 -0.00    +0.000 A 
DOCKED: ATOM     29  C   UNL     1      19.431 -10.842  -2.083 -0.39 -0.00    +0.000 A 
DOCKED: BRANCH  27  30
DOCKED: ATOM     30  C   UNL     1      20.129 -11.336   1.620 -0.75 -0.00    +0.000 C 
DOCKED: ATOM     31  N   UNL     1      20.634 -10.584   2.730 -0.62 -0.00    +0.000 N 
DOCKED: ATOM     32  O   UNL     1      19.655 -12.487   1.824 -1.62 -0.00    +0.000 OA
DOCKED: ATOM     33  H   UNL     1      21.083  -9.721   2.574 -0.58 -0.00    +0.000 HD
DOCKED: BRANCH  31  34
DOCKED: ATOM     34  O   UNL     1      20.496 -11.054   3.993 -0.77 -0.00    +0.000 OA
DOCKED: ATOM     35  H   UNL     1      20.661 -12.009   4.002 -0.54 -0.00    +0.000 HD
DOCKED: ENDBRANCH  31  34
DOCKED: ENDBRANCH  27  30
DOCKED: ENDBRANCH  22  24
DOCKED: ENDBRANCH  19  21
DOCKED: ENDBRANCH   1  19
DOCKED: TORSDOF 10
DOCKED: TER
DOCKED: ENDMDL
________________________________________________________________________________


	BEGINNING GENETIC ALGORITHM DOCKING 41 of 100
Run: 41 Seed: 1567168814 976979274 [ Run 41 of 100 GA/GALS ]
Beginning LAMARCKIAN GENETIC ALGORITHM (LGA), with a maximum of 2500000 energy evaluations.

Final-Value: -15.339


	FINAL GENETIC ALGORITHM DOCKED STATE
	_______________________________________________


Detailed state:  trans 19.990 -11.112 -5.731 quatxyzw 0.982441 -0.137601 -0.125804 -0.007051 center 1.858 0.218 -0.021 ntor 10 -13.8877 -145.3236 -54.8321 -180.0000 -57.0353 -180.0000 67.6031 104.6686 3.3835 -168.2400
State:	 19.990 -11.112  -5.731   0.982 -0.138 -0.126 -179.192    -13.89 -145.32  -54.83 -180.00  -57.04 -180.00   67.60  104.67    3.38 -168.24

DOCKED: MODEL       41
DOCKED: USER    Run = 41
DOCKED: USER    DPF = ligand_dock.biased.dpf
DOCKED: USER  
DOCKED: USER    Estimated Free Energy of Binding    =   -9.57 kcal/mol  [=(1)+(2)+(3)-(4)]
DOCKED: USER    Estimated Inhibition Constant, Ki   =   97.29 nM (nanomolar)  [Temperature = 298.15 K]
DOCKED: USER    
DOCKED: USER    (1) Final Intermolecular Energy     =  -12.55 kcal/mol
DOCKED: USER        vdW + Hbond + desolv Energy     =  -12.55 kcal/mol
DOCKED: USER        Electrostatic Energy            =   +0.00 kcal/mol
DOCKED: USER    (2) Final Total Internal Energy     =   -2.79 kcal/mol
DOCKED: USER    (3) Torsional Free Energy           =   +2.98 kcal/mol
DOCKED: USER    (4) Unbound System's Energy  [=(2)] =   -2.79 kcal/mol
DOCKED: USER    
DOCKED: USER    
DOCKED: USER    NEWDPF move ligand.pdbqt
DOCKED: USER    NEWDPF about 1.858000 0.218000 -0.021000
DOCKED: USER    NEWDPF tran0 19.989871 -11.112083 -5.730527
DOCKED: USER    NEWDPF quaternion0 0.982441 -0.137601 -0.125804 -0.007051
DOCKED: USER    NEWDPF axisangle0 0.982465 -0.137605 -0.125807 -179.192013
DOCKED: USER    NEWDPF quat0 0.982465 -0.137605 -0.125807 -179.192013
DOCKED: USER    NEWDPF dihe0 -13.89 -145.32 -54.83 -180.00 -57.04 -180.00 67.60 104.67 3.38 -168.24 
DOCKED: USER  keepresnum = 1 
DOCKED: USER  
DOCKED: REMARK  Name = 
DOCKED: REMARK  12 active torsions:
DOCKED: REMARK  status: ('A' for Active; 'I' for Inactive)
DOCKED: REMARK    1  A    between atoms: C_2  and  O_3
DOCKED: REMARK    2  A    between atoms: O_3  and  C_4
DOCKED: REMARK    3  A    between atoms: C_4  and  C_5
DOCKED: REMARK    4  A    between atoms: C_10  and  C_11
DOCKED: REMARK    5  A    between atoms: C_11  and  N_12
DOCKED: REMARK    6  A    between atoms: N_12  and  C_13
DOCKED: REMARK    7  A    between atoms: N_12  and  C_15
DOCKED: REMARK    8  A    between atoms: C_13  and  C_14
DOCKED: REMARK    9  A    between atoms: C_15  and  C_16
DOCKED: REMARK   10  A    between atoms: N_21  and  C_22
DOCKED: REMARK   11  A    between atoms: C_25  and  C_26
DOCKED: REMARK   12  A    between atoms: N_27  and  O_28
DOCKED: REMARK                            x       y       z     vdW  Elec       q    Type
DOCKED: REMARK                         _______ _______ _______ _____ _____    ______ ____
DOCKED: USER                              x       y       z     vdW  Elec       q    Type
DOCKED: USER                           _______ _______ _______ _____ _____    ______ ____
DOCKED: ROOT
DOCKED: ATOM      1  C   UNL     1      19.647 -10.405  -7.176 -0.29 -0.00    +0.000 C 
DOCKED: ENDROOT
DOCKED: BRANCH   1   2
DOCKED: ATOM      2  C   UNL     1      18.500  -9.931  -6.332 -0.20 -0.00    +0.000 A 
DOCKED: ATOM      3  C   UNL     1      18.481  -8.617  -5.841 -0.12 -0.00    +0.000 A 
DOCKED: ATOM      4  C   UNL     1      17.434  -8.181  -5.025 -0.14 -0.00    +0.000 A 
DOCKED: ATOM      5  C   UNL     1      16.398  -9.059  -4.677 -0.16 -0.00    +0.000 A 
DOCKED: ATOM      6  C   UNL     1      15.343  -8.630  -3.857 -0.15 -0.00    +0.000 A 
DOCKED: ATOM      7  C   UNL     1      14.310  -9.515  -3.508 -0.18 -0.00    +0.000 A 
DOCKED: ATOM      8  C   UNL     1      14.337 -10.834  -3.987 -0.26 -0.00    +0.000 A 
DOCKED: ATOM      9  C   UNL     1      15.384 -11.270  -4.803 -0.19 -0.00    +0.000 A 
DOCKED: ATOM     10  C   UNL     1      16.418 -10.391  -5.154 -0.21 -0.00    +0.000 A 
DOCKED: ATOM     11  C   UNL     1      17.474 -10.819  -5.974 -0.29 -0.00    +0.000 A 
DOCKED: BRANCH   7  12
DOCKED: ATOM     12  C   UNL     1      13.165  -9.057  -2.643 -0.18 -0.00    +0.000 C 
DOCKED: BRANCH  12  13
DOCKED: ATOM     13  N   UNL     1      13.640  -8.791  -1.269 -0.16 -0.00    +0.000 N 
DOCKED: ATOM     14  H   UNL     1      12.900  -9.060  -0.621 +0.00 -0.00    +0.000 HD
DOCKED: BRANCH  13  15
DOCKED: ATOM     15  C   UNL     1      13.863  -7.344  -1.043 -0.20 -0.00    +0.000 C 
DOCKED: ATOM     16  C   UNL     1      13.685  -6.960   0.425 -0.20 -0.00    +0.000 C 
DOCKED: ENDBRANCH  13  15
DOCKED: BRANCH  13  17
DOCKED: ATOM     17  C   UNL     1      14.795  -9.648  -0.902 -0.26 -0.00    +0.000 C 
DOCKED: ATOM     18  C   UNL     1      14.417 -11.086  -0.515 -0.35 +0.00    +0.000 C 
DOCKED: ENDBRANCH  13  17
DOCKED: ENDBRANCH  12  13
DOCKED: ENDBRANCH   7  12
DOCKED: ENDBRANCH   1   2
DOCKED: BRANCH   1  19
DOCKED: ATOM     19  O   UNL     1      20.617 -11.029  -6.341 -0.38 -0.00    +0.000 OA
DOCKED: BRANCH  19  21
DOCKED: ATOM     20  O   UNL     1      20.134 -12.558  -4.683 -0.66 -0.00    +0.000 OA
DOCKED: ATOM     21  C   UNL     1      20.365 -11.360  -5.008 -0.52 -0.00    +0.000 C 
DOCKED: ATOM     22  N   UNL     1      20.328 -10.317  -4.026 -0.38 -0.00    +0.000 N 
DOCKED: ATOM     23  H   UNL     1      20.355  -9.386  -4.343 +0.00 -0.00    +0.000 HD
DOCKED: BRANCH  22  24
DOCKED: ATOM     24  C   UNL     1      20.254 -10.540  -2.607 -0.44 -0.00    +0.000 A 
DOCKED: ATOM     25  C   UNL     1      19.016 -10.843  -2.022 -0.37 -0.00    +0.000 A 
DOCKED: ATOM     26  C   UNL     1      18.913 -11.043  -0.643 -0.43 -0.00    +0.000 A 
DOCKED: ATOM     27  C   UNL     1      20.045 -10.936   0.182 -0.57 -0.00    +0.000 A 
DOCKED: ATOM     28  C   UNL     1      21.280 -10.597  -0.401 -0.61 -0.00    +0.000 A 
DOCKED: ATOM     29  C   UNL     1      21.382 -10.398  -1.781 -0.53 -0.00    +0.000 A 
DOCKED: BRANCH  27  30
DOCKED: ATOM     30  C   UNL     1      19.919 -11.147   1.645 -0.71 -0.00    +0.000 C 
DOCKED: ATOM     31  N   UNL     1      20.290 -12.388   2.256 -0.70 -0.00    +0.000 N 
DOCKED: ATOM     32  O   UNL     1      19.463 -10.221   2.369 -0.71 -0.00    +0.000 OA
DOCKED: ATOM     33  H   UNL     1      20.567 -13.148   1.694 -0.63 -0.00    +0.000 HD
DOCKED: BRANCH  31  34
DOCKED: ATOM     34  O   UNL     1      20.262 -12.523   3.604 -0.87 -0.00    +0.000 OA
DOCKED: ATOM     35  H   UNL     1      20.801 -11.826   4.009 -0.52 -0.00    +0.000 HD
DOCKED: ENDBRANCH  31  34
DOCKED: ENDBRANCH  27  30
DOCKED: ENDBRANCH  22  24
DOCKED: ENDBRANCH  19  21
DOCKED: ENDBRANCH   1  19
DOCKED: TORSDOF 10
DOCKED: TER
DOCKED: ENDMDL
________________________________________________________________________________


	BEGINNING GENETIC ALGORITHM DOCKING 42 of 100
Run: 42 Seed: 1253232116 1155661959 [ Run 42 of 100 GA/GALS ]
Beginning LAMARCKIAN GENETIC ALGORITHM (LGA), with a maximum of 2500000 energy evaluations.

Final-Value: -16.166


	FINAL GENETIC ALGORITHM DOCKED STATE
	_______________________________________________


Detailed state:  trans 19.550 -8.429 -5.080 quatxyzw -0.923282 -0.314372 0.173137 -0.136907 center 1.858 0.218 -0.021 ntor 10 152.6977 -134.4889 22.3122 13.1374 62.0687 1.8080 -98.3424 -100.1224 -179.7605 163.4288
State:	 19.550  -8.429  -5.080  -0.932 -0.317  0.175 -164.262    152.70 -134.49   22.31   13.14   62.07    1.81  -98.34 -100.12 -179.76  163.43

DOCKED: MODEL       42
DOCKED: USER    Run = 42
DOCKED: USER    DPF = ligand_dock.biased.dpf
DOCKED: USER  
DOCKED: USER    Estimated Free Energy of Binding    =   -9.96 kcal/mol  [=(1)+(2)+(3)-(4)]
DOCKED: USER    Estimated Inhibition Constant, Ki   =   50.25 nM (nanomolar)  [Temperature = 298.15 K]
DOCKED: USER    
DOCKED: USER    (1) Final Intermolecular Energy     =  -12.94 kcal/mol
DOCKED: USER        vdW + Hbond + desolv Energy     =  -12.94 kcal/mol
DOCKED: USER        Electrostatic Energy            =   +0.00 kcal/mol
DOCKED: USER    (2) Final Total Internal Energy     =   -3.23 kcal/mol
DOCKED: USER    (3) Torsional Free Energy           =   +2.98 kcal/mol
DOCKED: USER    (4) Unbound System's Energy  [=(2)] =   -3.23 kcal/mol
DOCKED: USER    
DOCKED: USER    
DOCKED: USER    NEWDPF move ligand.pdbqt
DOCKED: USER    NEWDPF about 1.858000 0.218000 -0.021000
DOCKED: USER    NEWDPF tran0 19.550017 -8.429094 -5.079758
DOCKED: USER    NEWDPF quaternion0 -0.923282 -0.314372 0.173137 -0.136907
DOCKED: USER    NEWDPF axisangle0 -0.932059 -0.317360 0.174783 -164.262221
DOCKED: USER    NEWDPF quat0 -0.932059 -0.317360 0.174783 -164.262221
DOCKED: USER    NEWDPF dihe0 152.70 -134.49 22.31 13.14 62.07 1.81 -98.34 -100.12 -179.76 163.43 
DOCKED: USER  keepresnum = 1 
DOCKED: USER  
DOCKED: REMARK  Name = 
DOCKED: REMARK  12 active torsions:
DOCKED: REMARK  status: ('A' for Active; 'I' for Inactive)
DOCKED: REMARK    1  A    between atoms: C_2  and  O_3
DOCKED: REMARK    2  A    between atoms: O_3  and  C_4
DOCKED: REMARK    3  A    between atoms: C_4  and  C_5
DOCKED: REMARK    4  A    between atoms: C_10  and  C_11
DOCKED: REMARK    5  A    between atoms: C_11  and  N_12
DOCKED: REMARK    6  A    between atoms: N_12  and  C_13
DOCKED: REMARK    7  A    between atoms: N_12  and  C_15
DOCKED: REMARK    8  A    between atoms: C_13  and  C_14
DOCKED: REMARK    9  A    between atoms: C_15  and  C_16
DOCKED: REMARK   10  A    between atoms: N_21  and  C_22
DOCKED: REMARK   11  A    between atoms: C_25  and  C_26
DOCKED: REMARK   12  A    between atoms: N_27  and  O_28
DOCKED: REMARK                            x       y       z     vdW  Elec       q    Type
DOCKED: REMARK                         _______ _______ _______ _____ _____    ______ ____
DOCKED: USER                              x       y       z     vdW  Elec       q    Type
DOCKED: USER                           _______ _______ _______ _____ _____    ______ ____
DOCKED: ROOT
DOCKED: ATOM      1  C   UNL     1      18.474  -7.808  -6.159 -0.11 -0.00    +0.000 C 
DOCKED: ENDROOT
DOCKED: BRANCH   1   2
DOCKED: ATOM      2  C   UNL     1      17.587  -8.683  -5.321 -0.14 -0.00    +0.000 A 
DOCKED: ATOM      3  C   UNL     1      17.551 -10.068  -5.541 -0.21 -0.00    +0.000 A 
DOCKED: ATOM      4  C   UNL     1      16.701 -10.883  -4.788 -0.09 -0.00    +0.000 A 
DOCKED: ATOM      5  C   UNL     1      15.864 -10.320  -3.814 -0.21 -0.00    +0.000 A 
DOCKED: ATOM      6  C   UNL     1      15.006 -11.130  -3.055 -0.21 -0.00    +0.000 A 
DOCKED: ATOM      7  C   UNL     1      14.167 -10.560  -2.084 -0.27 -0.00    +0.000 A 
DOCKED: ATOM      8  C   UNL     1      14.192  -9.173  -1.875 -0.19 -0.00    +0.000 A 
DOCKED: ATOM      9  C   UNL     1      15.042  -8.359  -2.627 -0.14 -0.00    +0.000 A 
DOCKED: ATOM     10  C   UNL     1      15.882  -8.921  -3.598 -0.17 -0.00    +0.000 A 
DOCKED: ATOM     11  C   UNL     1      16.740  -8.112  -4.359 -0.09 -0.00    +0.000 A 
DOCKED: BRANCH   7  12
DOCKED: ATOM     12  C   UNL     1      13.257 -11.425  -1.252 -0.25 +0.00    +0.000 C 
DOCKED: BRANCH  12  13
DOCKED: ATOM     13  N   UNL     1      13.688 -11.403   0.162 -0.35 +0.00    +0.000 N 
DOCKED: ATOM     14  H   UNL     1      13.835 -10.432   0.434 +0.01 +0.00    +0.000 HD
DOCKED: BRANCH  13  15
DOCKED: ATOM     15  C   UNL     1      14.999 -12.070   0.339 -0.48 +0.00    +0.000 C 
DOCKED: ATOM     16  C   UNL     1      15.108 -13.345  -0.496 -0.55 +0.00    +0.000 C 
DOCKED: ENDBRANCH  13  15
DOCKED: BRANCH  13  17
DOCKED: ATOM     17  C   UNL     1      12.628 -11.897   1.077 -0.41 +0.00    +0.000 C 
DOCKED: ATOM     18  C   UNL     1      11.399 -10.981   1.171 -0.35 +0.00    +0.000 C 
DOCKED: ENDBRANCH  13  17
DOCKED: ENDBRANCH  12  13
DOCKED: ENDBRANCH   7  12
DOCKED: ENDBRANCH   1   2
DOCKED: BRANCH   1  19
DOCKED: ATOM     19  O   UNL     1      19.752  -7.707  -5.540 -0.14 -0.00    +0.000 OA
DOCKED: BRANCH  19  21
DOCKED: ATOM     20  O   UNL     1      20.057  -7.151  -3.321 -0.26 -0.00    +0.000 OA
DOCKED: ATOM     21  C   UNL     1      19.973  -8.050  -4.204 -0.25 -0.00    +0.000 C 
DOCKED: ATOM     22  N   UNL     1      20.146  -9.430  -3.858 -0.30 -0.00    +0.000 N 
DOCKED: ATOM     23  H   UNL     1      20.231 -10.081  -4.592 +0.00 -0.00    +0.000 HD
DOCKED: BRANCH  22  24
DOCKED: ATOM     24  C   UNL     1      20.203  -9.929  -2.510 -0.43 -0.00    +0.000 A 
DOCKED: ATOM     25  C   UNL     1      19.184 -10.771  -2.045 -0.38 -0.00    +0.000 A 
DOCKED: ATOM     26  C   UNL     1      19.204 -11.252  -0.733 -0.44 -0.00    +0.000 A 
DOCKED: ATOM     27  C   UNL     1      20.241 -10.893   0.145 -0.58 -0.00    +0.000 A 
DOCKED: ATOM     28  C   UNL     1      21.244 -10.020  -0.312 -0.63 -0.00    +0.000 A 
DOCKED: ATOM     29  C   UNL     1      21.224  -9.540  -1.626 -0.53 -0.00    +0.000 A 
DOCKED: BRANCH  27  30
DOCKED: ATOM     30  C   UNL     1      20.247 -11.408   1.536 -0.76 -0.00    +0.000 C 
DOCKED: ATOM     31  N   UNL     1      20.644 -10.582   2.637 -0.61 -0.00    +0.000 N 
DOCKED: ATOM     32  O   UNL     1      19.909 -12.603   1.757 -1.65 -0.00    +0.000 OA
DOCKED: ATOM     33  H   UNL     1      20.991  -9.676   2.470 -0.57 -0.00    +0.000 HD
DOCKED: BRANCH  31  34
DOCKED: ATOM     34  O   UNL     1      20.544 -11.042   3.907 -0.78 -0.00    +0.000 OA
DOCKED: ATOM     35  H   UNL     1      20.534 -12.011   3.900 -0.44 -0.00    +0.000 HD
DOCKED: ENDBRANCH  31  34
DOCKED: ENDBRANCH  27  30
DOCKED: ENDBRANCH  22  24
DOCKED: ENDBRANCH  19  21
DOCKED: ENDBRANCH   1  19
DOCKED: TORSDOF 10
DOCKED: TER
DOCKED: ENDMDL
________________________________________________________________________________


	BEGINNING GENETIC ALGORITHM DOCKING 43 of 100
Run: 43 Seed: 38057170 130807355 [ Run 43 of 100 GA/GALS ]
Beginning LAMARCKIAN GENETIC ALGORITHM (LGA), with a maximum of 2500000 energy evaluations.

Final-Value: -14.997


	FINAL GENETIC ALGORITHM DOCKED STATE
	_______________________________________________


Detailed state:  trans 12.427 -6.192 3.409 quatxyzw 0.346387 -0.767856 -0.464183 -0.273764 center 1.858 0.218 -0.021 ntor 10 -158.4184 142.2348 7.4339 -43.4679 -29.3571 -180.0000 -178.2692 -87.7982 51.3658 108.7396
State:	 12.427  -6.192   3.409   0.360 -0.798 -0.483 -148.223   -158.42  142.23    7.43  -43.47  -29.36 -180.00 -178.27  -87.80   51.37  108.74

DOCKED: MODEL       43
DOCKED: USER    Run = 43
DOCKED: USER    DPF = ligand_dock.biased.dpf
DOCKED: USER  
DOCKED: USER    Estimated Free Energy of Binding    =   -9.50 kcal/mol  [=(1)+(2)+(3)-(4)]
DOCKED: USER    Estimated Inhibition Constant, Ki   =  107.85 nM (nanomolar)  [Temperature = 298.15 K]
DOCKED: USER    
DOCKED: USER    (1) Final Intermolecular Energy     =  -12.49 kcal/mol
DOCKED: USER        vdW + Hbond + desolv Energy     =  -12.49 kcal/mol
DOCKED: USER        Electrostatic Energy            =   +0.00 kcal/mol
DOCKED: USER    (2) Final Total Internal Energy     =   -2.51 kcal/mol
DOCKED: USER    (3) Torsional Free Energy           =   +2.98 kcal/mol
DOCKED: USER    (4) Unbound System's Energy  [=(2)] =   -2.51 kcal/mol
DOCKED: USER    
DOCKED: USER    
DOCKED: USER    NEWDPF move ligand.pdbqt
DOCKED: USER    NEWDPF about 1.858000 0.218000 -0.021000
DOCKED: USER    NEWDPF tran0 12.427358 -6.192025 3.409090
DOCKED: USER    NEWDPF quaternion0 0.346387 -0.767856 -0.464183 -0.273764
DOCKED: USER    NEWDPF axisangle0 0.360146 -0.798356 -0.482620 -148.223222
DOCKED: USER    NEWDPF quat0 0.360146 -0.798356 -0.482620 -148.223222
DOCKED: USER    NEWDPF dihe0 -158.42 142.23 7.43 -43.47 -29.36 -180.00 -178.27 -87.80 51.37 108.74 
DOCKED: USER  keepresnum = 1 
DOCKED: USER  
DOCKED: REMARK  Name = 
DOCKED: REMARK  12 active torsions:
DOCKED: REMARK  status: ('A' for Active; 'I' for Inactive)
DOCKED: REMARK    1  A    between atoms: C_2  and  O_3
DOCKED: REMARK    2  A    between atoms: O_3  and  C_4
DOCKED: REMARK    3  A    between atoms: C_4  and  C_5
DOCKED: REMARK    4  A    between atoms: C_10  and  C_11
DOCKED: REMARK    5  A    between atoms: C_11  and  N_12
DOCKED: REMARK    6  A    between atoms: N_12  and  C_13
DOCKED: REMARK    7  A    between atoms: N_12  and  C_15
DOCKED: REMARK    8  A    between atoms: C_13  and  C_14
DOCKED: REMARK    9  A    between atoms: C_15  and  C_16
DOCKED: REMARK   10  A    between atoms: N_21  and  C_22
DOCKED: REMARK   11  A    between atoms: C_25  and  C_26
DOCKED: REMARK   12  A    between atoms: N_27  and  O_28
DOCKED: REMARK                            x       y       z     vdW  Elec       q    Type
DOCKED: REMARK                         _______ _______ _______ _____ _____    ______ ____
DOCKED: USER                              x       y       z     vdW  Elec       q    Type
DOCKED: USER                           _______ _______ _______ _____ _____    ______ ____
DOCKED: ROOT
DOCKED: ATOM      1  C   UNL     1      11.593  -5.500   2.171 -0.07 +0.00    +0.000 C 
DOCKED: ENDROOT
DOCKED: BRANCH   1   2
DOCKED: ATOM      2  C   UNL     1      12.866  -4.706   2.155 -0.11 -0.00    +0.000 A 
DOCKED: ATOM      3  C   UNL     1      13.330  -4.140   0.957 -0.12 -0.00    +0.000 A 
DOCKED: ATOM      4  C   UNL     1      14.532  -3.429   0.928 -0.14 -0.00    +0.000 A 
DOCKED: ATOM      5  C   UNL     1      15.296  -3.287   2.096 -0.20 -0.00    +0.000 A 
DOCKED: ATOM      6  C   UNL     1      16.506  -2.576   2.076 -0.26 -0.00    +0.000 A 
DOCKED: ATOM      7  C   UNL     1      17.269  -2.441   3.247 -0.44 -0.00    +0.000 A 
DOCKED: ATOM      8  C   UNL     1      16.812  -3.019   4.442 -0.41 -0.00    +0.000 A 
DOCKED: ATOM      9  C   UNL     1      15.609  -3.730   4.470 -0.43 -0.00    +0.000 A 
DOCKED: ATOM     10  C   UNL     1      14.844  -3.869   3.304 -0.28 -0.00    +0.000 A 
DOCKED: ATOM     11  C   UNL     1      13.634  -4.580   3.323 -0.19 +0.00    +0.000 A 
DOCKED: BRANCH   7  12
DOCKED: ATOM     12  C   UNL     1      18.559  -1.664   3.238 -0.46 -0.00    +0.000 C 
DOCKED: BRANCH  12  13
DOCKED: ATOM     13  N   UNL     1      19.580  -2.382   2.446 -0.50 -0.00    +0.000 N 
DOCKED: ATOM     14  H   UNL     1      19.208  -3.302   2.210 -0.02 +0.00    +0.000 HD
DOCKED: BRANCH  13  15
DOCKED: ATOM     15  C   UNL     1      20.803  -2.638   3.244 -0.73 -0.00    +0.000 C 
DOCKED: ATOM     16  C   UNL     1      20.613  -2.266   4.714 -0.61 -0.00    +0.000 C 
DOCKED: ENDBRANCH  13  15
DOCKED: BRANCH  13  17
DOCKED: ATOM     17  C   UNL     1      19.834  -1.728   1.138 -0.38 -0.00    +0.000 C 
DOCKED: ATOM     18  C   UNL     1      20.283  -2.689   0.028 -0.41 -0.00    +0.000 C 
DOCKED: ENDBRANCH  13  17
DOCKED: ENDBRANCH  12  13
DOCKED: ENDBRANCH   7  12
DOCKED: ENDBRANCH   1   2
DOCKED: BRANCH   1  19
DOCKED: ATOM     19  O   UNL     1      11.747  -6.614   3.045 -0.10 +0.00    +0.000 OA
DOCKED: BRANCH  19  21
DOCKED: ATOM     20  O   UNL     1      12.077  -8.693   2.101 -0.15 +0.00    +0.000 OA
DOCKED: ATOM     21  C   UNL     1      12.554  -7.711   2.735 -0.13 +0.00    +0.000 C 
DOCKED: ATOM     22  N   UNL     1      13.915  -7.725   3.185 -0.21 +0.00    +0.000 N 
DOCKED: ATOM     23  H   UNL     1      14.200  -7.017   3.808 +0.00 +0.00    +0.000 HD
DOCKED: BRANCH  22  24
DOCKED: ATOM     24  C   UNL     1      14.891  -8.702   2.787 -0.29 +0.00    +0.000 A 
DOCKED: ATOM     25  C   UNL     1      14.845  -9.232   1.490 -0.25 +0.00    +0.000 A 
DOCKED: ATOM     26  C   UNL     1      15.769 -10.198   1.085 -0.29 +0.00    +0.000 A 
DOCKED: ATOM     27  C   UNL     1      16.755 -10.662   1.972 -0.39 +0.00    +0.000 A 
DOCKED: ATOM     28  C   UNL     1      16.779 -10.156   3.284 -0.38 +0.00    +0.000 A 
DOCKED: ATOM     29  C   UNL     1      15.854  -9.188   3.689 -0.32 +0.00    +0.000 A 
DOCKED: BRANCH  27  30
DOCKED: ATOM     30  C   UNL     1      17.727 -11.692   1.529 -0.49 +0.00    +0.000 C 
DOCKED: ATOM     31  N   UNL     1      19.138 -11.502   1.683 -0.56 -0.00    +0.000 N 
DOCKED: ATOM     32  O   UNL     1      17.306 -12.753   0.992 -1.06 +0.00    +0.000 OA
DOCKED: ATOM     33  H   UNL     1      19.484 -10.645   2.021 -0.03 -0.00    +0.000 HD
DOCKED: BRANCH  31  34
DOCKED: ATOM     34  O   UNL     1      20.000 -12.498   1.364 -1.56 -0.00    +0.000 OA
DOCKED: ATOM     35  H   UNL     1      19.515 -13.223   0.941 -0.54 -0.00    +0.000 HD
DOCKED: ENDBRANCH  31  34
DOCKED: ENDBRANCH  27  30
DOCKED: ENDBRANCH  22  24
DOCKED: ENDBRANCH  19  21
DOCKED: ENDBRANCH   1  19
DOCKED: TORSDOF 10
DOCKED: TER
DOCKED: ENDMDL
________________________________________________________________________________


	BEGINNING GENETIC ALGORITHM DOCKING 44 of 100
Run: 44 Seed: 1560703800 572496207 [ Run 44 of 100 GA/GALS ]
Beginning LAMARCKIAN GENETIC ALGORITHM (LGA), with a maximum of 2500000 energy evaluations.

Final-Value: -16.672


	FINAL GENETIC ALGORITHM DOCKED STATE
	_______________________________________________


Detailed state:  trans 19.146 -10.640 2.930 quatxyzw -0.637291 0.217602 -0.647813 0.356157 center 1.858 0.218 -0.021 ntor 10 -43.7518 -132.5575 -179.9518 4.2521 -109.0599 -179.6724 -119.4856 -81.9804 -172.9601 -153.1056
State:	 19.146 -10.640   2.930  -0.682  0.233 -0.693 138.271    -43.75 -132.56 -179.95    4.25 -109.06 -179.67 -119.49  -81.98 -172.96 -153.11

DOCKED: MODEL       44
DOCKED: USER    Run = 44
DOCKED: USER    DPF = ligand_dock.biased.dpf
DOCKED: USER  
DOCKED: USER    Estimated Free Energy of Binding    =  -11.72 kcal/mol  [=(1)+(2)+(3)-(4)]
DOCKED: USER    Estimated Inhibition Constant, Ki   =    2.59 nM (nanomolar)  [Temperature = 298.15 K]
DOCKED: USER    
DOCKED: USER    (1) Final Intermolecular Energy     =  -14.70 kcal/mol
DOCKED: USER        vdW + Hbond + desolv Energy     =  -14.70 kcal/mol
DOCKED: USER        Electrostatic Energy            =   +0.00 kcal/mol
DOCKED: USER    (2) Final Total Internal Energy     =   -1.97 kcal/mol
DOCKED: USER    (3) Torsional Free Energy           =   +2.98 kcal/mol
DOCKED: USER    (4) Unbound System's Energy  [=(2)] =   -1.97 kcal/mol
DOCKED: USER    
DOCKED: USER    
DOCKED: USER    NEWDPF move ligand.pdbqt
DOCKED: USER    NEWDPF about 1.858000 0.218000 -0.021000
DOCKED: USER    NEWDPF tran0 19.145755 -10.639538 2.929970
DOCKED: USER    NEWDPF quaternion0 -0.637291 0.217602 -0.647813 0.356157
DOCKED: USER    NEWDPF axisangle0 -0.682013 0.232873 -0.693273 138.271229
DOCKED: USER    NEWDPF quat0 -0.682013 0.232873 -0.693273 138.271229
DOCKED: USER    NEWDPF dihe0 -43.75 -132.56 -179.95 4.25 -109.06 -179.67 -119.49 -81.98 -172.96 -153.11 
DOCKED: USER  keepresnum = 1 
DOCKED: USER  
DOCKED: REMARK  Name = 
DOCKED: REMARK  12 active torsions:
DOCKED: REMARK  status: ('A' for Active; 'I' for Inactive)
DOCKED: REMARK    1  A    between atoms: C_2  and  O_3
DOCKED: REMARK    2  A    between atoms: O_3  and  C_4
DOCKED: REMARK    3  A    between atoms: C_4  and  C_5
DOCKED: REMARK    4  A    between atoms: C_10  and  C_11
DOCKED: REMARK    5  A    between atoms: C_11  and  N_12
DOCKED: REMARK    6  A    between atoms: N_12  and  C_13
DOCKED: REMARK    7  A    between atoms: N_12  and  C_15
DOCKED: REMARK    8  A    between atoms: C_13  and  C_14
DOCKED: REMARK    9  A    between atoms: C_15  and  C_16
DOCKED: REMARK   10  A    between atoms: N_21  and  C_22
DOCKED: REMARK   11  A    between atoms: C_25  and  C_26
DOCKED: REMARK   12  A    between atoms: N_27  and  O_28
DOCKED: REMARK                            x       y       z     vdW  Elec       q    Type
DOCKED: REMARK                         _______ _______ _______ _____ _____    ______ ____
DOCKED: USER                              x       y       z     vdW  Elec       q    Type
DOCKED: USER                           _______ _______ _______ _____ _____    ______ ____
DOCKED: ROOT
DOCKED: ATOM      1  C   UNL     1      20.628 -11.344   2.802 -0.67 -0.00    +0.000 C 
DOCKED: ENDROOT
DOCKED: BRANCH   1   2
DOCKED: ATOM      2  C   UNL     1      20.264 -11.148   1.359 -0.65 -0.00    +0.000 A 
DOCKED: ATOM      3  C   UNL     1      19.283 -11.955   0.763 -0.57 -0.00    +0.000 A 
DOCKED: ATOM      4  C   UNL     1      18.965 -11.801  -0.589 -0.35 -0.00    +0.000 A 
DOCKED: ATOM      5  C   UNL     1      19.636 -10.847  -1.367 -0.42 -0.00    +0.000 A 
DOCKED: ATOM      6  C   UNL     1      19.324 -10.687  -2.726 -0.38 -0.00    +0.000 A 
DOCKED: ATOM      7  C   UNL     1      20.003  -9.733  -3.502 -0.35 -0.00    +0.000 A 
DOCKED: ATOM      8  C   UNL     1      20.994  -8.936  -2.909 -0.42 -0.00    +0.000 A 
DOCKED: ATOM      9  C   UNL     1      21.311  -9.090  -1.557 -0.50 -0.00    +0.000 A 
DOCKED: ATOM     10  C   UNL     1      20.638 -10.041  -0.777 -0.57 -0.00    +0.000 A 
DOCKED: ATOM     11  C   UNL     1      20.950 -10.202   0.581 -0.59 -0.00    +0.000 A 
DOCKED: BRANCH   7  12
DOCKED: ATOM     12  C   UNL     1      19.661  -9.542  -4.957 -0.27 -0.00    +0.000 C 
DOCKED: BRANCH  12  13
DOCKED: ATOM     13  N   UNL     1      20.069 -10.731  -5.735 -0.34 -0.00    +0.000 N 
DOCKED: ATOM     14  H   UNL     1      19.860 -11.560  -5.180 -0.06 -0.00    +0.000 HD
DOCKED: BRANCH  13  15
DOCKED: ATOM     15  C   UNL     1      21.534 -10.757  -5.957 -0.44 -0.00    +0.000 C 
DOCKED: ATOM     16  C   UNL     1      22.171 -12.034  -5.412 -0.55 -0.00    +0.000 C 
DOCKED: ENDBRANCH  13  15
DOCKED: BRANCH  13  17
DOCKED: ATOM     17  C   UNL     1      19.264 -10.891  -6.972 -0.33 -0.00    +0.000 C 
DOCKED: ATOM     18  C   UNL     1      17.779 -11.195  -6.725 -0.37 -0.00    +0.000 C 
DOCKED: ENDBRANCH  13  17
DOCKED: ENDBRANCH  12  13
DOCKED: ENDBRANCH   7  12
DOCKED: ENDBRANCH   1   2
DOCKED: BRANCH   1  19
DOCKED: ATOM     19  O   UNL     1      19.691 -10.649   3.620 -0.74 -0.00    +0.000 OA
DOCKED: BRANCH  19  21
DOCKED: ATOM     20  O   UNL     1      18.124  -9.395   2.482 -0.54 -0.00    +0.000 OA
DOCKED: ATOM     21  C   UNL     1      18.380 -10.391   3.214 -0.31 -0.00    +0.000 C 
DOCKED: ATOM     22  N   UNL     1      17.326 -11.247   3.674 -0.33 +0.00    +0.000 N 
DOCKED: ATOM     23  H   UNL     1      17.544 -11.914   4.366 +0.04 +0.00    +0.000 HD
DOCKED: BRANCH  22  24
DOCKED: ATOM     24  C   UNL     1      15.972 -11.199   3.194 -0.44 +0.00    +0.000 A 
DOCKED: ATOM     25  C   UNL     1      15.588 -12.033   2.135 -0.38 +0.00    +0.000 A 
DOCKED: ATOM     26  C   UNL     1      14.284 -11.990   1.634 -0.41 +0.00    +0.000 A 
DOCKED: ATOM     27  C   UNL     1      13.337 -11.105   2.178 -0.33 +0.00    +0.000 A 
DOCKED: ATOM     28  C   UNL     1      13.734 -10.243   3.217 -0.29 +0.00    +0.000 A 
DOCKED: ATOM     29  C   UNL     1      15.039 -10.287   3.717 -0.42 +0.00    +0.000 A 
DOCKED: BRANCH  27  30
DOCKED: ATOM     30  C   UNL     1      11.958 -11.067   1.634 -0.34 +0.00    +0.000 C 
DOCKED: ATOM     31  N   UNL     1      11.205 -12.268   1.423 -0.45 +0.00    +0.000 N 
DOCKED: ATOM     32  O   UNL     1      11.438  -9.958   1.335 -0.21 +0.00    +0.000 OA
DOCKED: ATOM     33  H   UNL     1      11.628 -13.145   1.571 -0.58 +0.00    +0.000 HD
DOCKED: BRANCH  31  34
DOCKED: ATOM     34  O   UNL     1       9.913 -12.203   1.022 -0.49 +0.00    +0.000 OA
DOCKED: ATOM     35  H   UNL     1       9.558 -13.100   0.929 -0.62 -0.00    +0.000 HD
DOCKED: ENDBRANCH  31  34
DOCKED: ENDBRANCH  27  30
DOCKED: ENDBRANCH  22  24
DOCKED: ENDBRANCH  19  21
DOCKED: ENDBRANCH   1  19
DOCKED: TORSDOF 10
DOCKED: TER
DOCKED: ENDMDL
________________________________________________________________________________


	BEGINNING GENETIC ALGORITHM DOCKING 45 of 100
Run: 45 Seed: 1567563348 886215168 [ Run 45 of 100 GA/GALS ]
Beginning LAMARCKIAN GENETIC ALGORITHM (LGA), with a maximum of 2500000 energy evaluations.

Final-Value: -16.201


	FINAL GENETIC ALGORITHM DOCKED STATE
	_______________________________________________


Detailed state:  trans 19.446 -10.265 2.066 quatxyzw -0.578400 0.420749 -0.595070 0.366492 center 1.858 0.218 -0.021 ntor 10 -56.1398 -177.4924 64.2371 178.8370 152.8724 4.4827 84.7398 -154.2873 -8.2832 -110.0873
State:	 19.446 -10.265   2.066  -0.622  0.452 -0.640 137.001    -56.14 -177.49   64.24  178.84  152.87    4.48   84.74 -154.29   -8.28 -110.09

DOCKED: MODEL       45
DOCKED: USER    Run = 45
DOCKED: USER    DPF = ligand_dock.biased.dpf
DOCKED: USER  
DOCKED: USER    Estimated Free Energy of Binding    =  -11.12 kcal/mol  [=(1)+(2)+(3)-(4)]
DOCKED: USER    Estimated Inhibition Constant, Ki   =    7.07 nM (nanomolar)  [Temperature = 298.15 K]
DOCKED: USER    
DOCKED: USER    (1) Final Intermolecular Energy     =  -14.10 kcal/mol
DOCKED: USER        vdW + Hbond + desolv Energy     =  -14.10 kcal/mol
DOCKED: USER        Electrostatic Energy            =   +0.00 kcal/mol
DOCKED: USER    (2) Final Total Internal Energy     =   -2.10 kcal/mol
DOCKED: USER    (3) Torsional Free Energy           =   +2.98 kcal/mol
DOCKED: USER    (4) Unbound System's Energy  [=(2)] =   -2.10 kcal/mol
DOCKED: USER    
DOCKED: USER    
DOCKED: USER    NEWDPF move ligand.pdbqt
DOCKED: USER    NEWDPF about 1.858000 0.218000 -0.021000
DOCKED: USER    NEWDPF tran0 19.445761 -10.264965 2.066435
DOCKED: USER    NEWDPF quaternion0 -0.578400 0.420749 -0.595070 0.366492
DOCKED: USER    NEWDPF axisangle0 -0.621654 0.452213 -0.639570 137.001171
DOCKED: USER    NEWDPF quat0 -0.621654 0.452213 -0.639570 137.001171
DOCKED: USER    NEWDPF dihe0 -56.14 -177.49 64.24 178.84 152.87 4.48 84.74 -154.29 -8.28 -110.09 
DOCKED: USER  keepresnum = 1 
DOCKED: USER  
DOCKED: REMARK  Name = 
DOCKED: REMARK  12 active torsions:
DOCKED: REMARK  status: ('A' for Active; 'I' for Inactive)
DOCKED: REMARK    1  A    between atoms: C_2  and  O_3
DOCKED: REMARK    2  A    between atoms: O_3  and  C_4
DOCKED: REMARK    3  A    between atoms: C_4  and  C_5
DOCKED: REMARK    4  A    between atoms: C_10  and  C_11
DOCKED: REMARK    5  A    between atoms: C_11  and  N_12
DOCKED: REMARK    6  A    between atoms: N_12  and  C_13
DOCKED: REMARK    7  A    between atoms: N_12  and  C_15
DOCKED: REMARK    8  A    between atoms: C_13  and  C_14
DOCKED: REMARK    9  A    between atoms: C_15  and  C_16
DOCKED: REMARK   10  A    between atoms: N_21  and  C_22
DOCKED: REMARK   11  A    between atoms: C_25  and  C_26
DOCKED: REMARK   12  A    between atoms: N_27  and  O_28
DOCKED: REMARK                            x       y       z     vdW  Elec       q    Type
DOCKED: REMARK                         _______ _______ _______ _____ _____    ______ ____
DOCKED: USER                              x       y       z     vdW  Elec       q    Type
DOCKED: USER                           _______ _______ _______ _____ _____    ______ ____
DOCKED: ROOT
DOCKED: ATOM      1  C   UNL     1      20.633 -11.396   1.926 -0.75 -0.00    +0.000 C 
DOCKED: ENDROOT
DOCKED: BRANCH   1   2
DOCKED: ATOM      2  C   UNL     1      20.621 -10.802   0.548 -0.63 -0.00    +0.000 A 
DOCKED: ATOM      3  C   UNL     1      21.466  -9.727   0.234 -0.51 -0.00    +0.000 A 
DOCKED: ATOM      4  C   UNL     1      21.434  -9.146  -1.036 -0.49 -0.00    +0.000 A 
DOCKED: ATOM      5  C   UNL     1      20.544  -9.625  -2.008 -0.47 -0.00    +0.000 A 
DOCKED: ATOM      6  C   UNL     1      20.504  -9.047  -3.286 -0.37 -0.00    +0.000 A 
DOCKED: ATOM      7  C   UNL     1      19.606  -9.528  -4.254 -0.27 -0.00    +0.000 A 
DOCKED: ATOM      8  C   UNL     1      18.750 -10.594  -3.936 -0.30 -0.00    +0.000 A 
DOCKED: ATOM      9  C   UNL     1      18.783 -11.174  -2.666 -0.09 -0.00    +0.000 A 
DOCKED: ATOM     10  C   UNL     1      19.676 -10.698  -1.695 -0.41 -0.00    +0.000 A 
DOCKED: ATOM     11  C   UNL     1      19.716 -11.275  -0.416 -0.45 -0.00    +0.000 A 
DOCKED: BRANCH   7  12
DOCKED: ATOM     12  C   UNL     1      19.570  -8.926  -5.634 -0.18 -0.00    +0.000 C 
DOCKED: BRANCH  12  13
DOCKED: ATOM     13  N   UNL     1      19.974  -9.933  -6.639 -0.21 -0.00    +0.000 N 
DOCKED: ATOM     14  H   UNL     1      20.476  -9.452  -7.385 +0.00 -0.00    +0.000 HD
DOCKED: BRANCH  13  15
DOCKED: ATOM     15  C   UNL     1      18.794 -10.554  -7.286 -0.30 -0.00    +0.000 C 
DOCKED: ATOM     16  C   UNL     1      18.652 -10.125  -8.746 -0.19 -0.00    +0.000 C 
DOCKED: ENDBRANCH  13  15
DOCKED: BRANCH  13  17
DOCKED: ATOM     17  C   UNL     1      20.950 -10.908  -6.091 -0.41 -0.00    +0.000 C 
DOCKED: ATOM     18  C   UNL     1      22.364 -10.781  -6.674 -0.42 -0.00    +0.000 C 
DOCKED: ENDBRANCH  13  17
DOCKED: ENDBRANCH  12  13
DOCKED: ENDBRANCH   7  12
DOCKED: ENDBRANCH   1   2
DOCKED: BRANCH   1  19
DOCKED: ATOM     19  O   UNL     1      19.824 -10.600   2.786 -0.81 -0.00    +0.000 OA
DOCKED: BRANCH  19  21
DOCKED: ATOM     20  O   UNL     1      17.800  -9.538   3.101 -0.51 -0.00    +0.000 OA
DOCKED: ATOM     21  C   UNL     1      18.432 -10.545   2.677 -0.58 -0.00    +0.000 C 
DOCKED: ATOM     22  N   UNL     1      17.733 -11.664   2.117 -0.40 +0.00    +0.000 N 
DOCKED: ATOM     23  H   UNL     1      18.244 -12.488   1.946 -0.02 +0.00    +0.000 HD
DOCKED: BRANCH  22  24
DOCKED: ATOM     24  C   UNL     1      16.333 -11.664   1.789 -0.39 +0.00    +0.000 A 
DOCKED: ATOM     25  C   UNL     1      15.387 -11.490   2.809 -0.47 +0.00    +0.000 A 
DOCKED: ATOM     26  C   UNL     1      14.020 -11.508   2.520 -0.38 +0.00    +0.000 A 
DOCKED: ATOM     27  C   UNL     1      13.569 -11.709   1.204 -0.40 +0.00    +0.000 A 
DOCKED: ATOM     28  C   UNL     1      14.518 -11.919   0.187 -0.41 +0.00    +0.000 A 
DOCKED: ATOM     29  C   UNL     1      15.886 -11.900   0.477 -0.41 +0.00    +0.000 A 
DOCKED: BRANCH  27  30
DOCKED: ATOM     30  C   UNL     1      12.115 -11.730   0.913 -0.42 +0.00    +0.000 C 
DOCKED: ATOM     31  N   UNL     1      11.212 -12.538   1.677 -0.40 +0.00    +0.000 N 
DOCKED: ATOM     32  O   UNL     1      11.661 -11.033  -0.035 -0.35 +0.00    +0.000 OA
DOCKED: ATOM     33  H   UNL     1      11.562 -13.150   2.364 -0.64 +0.00    +0.000 HD
DOCKED: BRANCH  31  34
DOCKED: ATOM     34  O   UNL     1       9.877 -12.463   1.460 -0.51 +0.00    +0.000 OA
DOCKED: ATOM     35  H   UNL     1       9.678 -12.770   0.562 -0.57 -0.00    +0.000 HD
DOCKED: ENDBRANCH  31  34
DOCKED: ENDBRANCH  27  30
DOCKED: ENDBRANCH  22  24
DOCKED: ENDBRANCH  19  21
DOCKED: ENDBRANCH   1  19
DOCKED: TORSDOF 10
DOCKED: TER
DOCKED: ENDMDL
________________________________________________________________________________


	BEGINNING GENETIC ALGORITHM DOCKING 46 of 100
Run: 46 Seed: 1259924957 498522688 [ Run 46 of 100 GA/GALS ]
Beginning LAMARCKIAN GENETIC ALGORITHM (LGA), with a maximum of 2500000 energy evaluations.

Final-Value: -16.166


	FINAL GENETIC ALGORITHM DOCKED STATE
	_______________________________________________


Detailed state:  trans 20.992 -10.134 -5.556 quatxyzw -0.997112 -0.025732 0.069539 -0.016410 center 1.858 0.218 -0.021 ntor 10 87.2482 150.3624 27.7424 -179.7080 -99.4528 171.7854 -136.9661 106.4930 -10.6870 -163.5977
State:	 20.992 -10.134  -5.556  -0.997 -0.026  0.070 -178.119     87.25  150.36   27.74 -179.71  -99.45  171.79 -136.97  106.49  -10.69 -163.60

DOCKED: MODEL       46
DOCKED: USER    Run = 46
DOCKED: USER    DPF = ligand_dock.biased.dpf
DOCKED: USER  
DOCKED: USER    Estimated Free Energy of Binding    =  -10.24 kcal/mol  [=(1)+(2)+(3)-(4)]
DOCKED: USER    Estimated Inhibition Constant, Ki   =   31.28 nM (nanomolar)  [Temperature = 298.15 K]
DOCKED: USER    
DOCKED: USER    (1) Final Intermolecular Energy     =  -13.22 kcal/mol
DOCKED: USER        vdW + Hbond + desolv Energy     =  -13.22 kcal/mol
DOCKED: USER        Electrostatic Energy            =   +0.00 kcal/mol
DOCKED: USER    (2) Final Total Internal Energy     =   -2.94 kcal/mol
DOCKED: USER    (3) Torsional Free Energy           =   +2.98 kcal/mol
DOCKED: USER    (4) Unbound System's Energy  [=(2)] =   -2.94 kcal/mol
DOCKED: USER    
DOCKED: USER    
DOCKED: USER    NEWDPF move ligand.pdbqt
DOCKED: USER    NEWDPF about 1.858000 0.218000 -0.021000
DOCKED: USER    NEWDPF tran0 20.991667 -10.134277 -5.556357
DOCKED: USER    NEWDPF quaternion0 -0.997112 -0.025732 0.069539 -0.016410
DOCKED: USER    NEWDPF axisangle0 -0.997247 -0.025735 0.069548 -178.119469
DOCKED: USER    NEWDPF quat0 -0.997247 -0.025735 0.069548 -178.119469
DOCKED: USER    NEWDPF dihe0 87.25 150.36 27.74 -179.71 -99.45 171.79 -136.97 106.49 -10.69 -163.60 
DOCKED: USER  keepresnum = 1 
DOCKED: USER  
DOCKED: REMARK  Name = 
DOCKED: REMARK  12 active torsions:
DOCKED: REMARK  status: ('A' for Active; 'I' for Inactive)
DOCKED: REMARK    1  A    between atoms: C_2  and  O_3
DOCKED: REMARK    2  A    between atoms: O_3  and  C_4
DOCKED: REMARK    3  A    between atoms: C_4  and  C_5
DOCKED: REMARK    4  A    between atoms: C_10  and  C_11
DOCKED: REMARK    5  A    between atoms: C_11  and  N_12
DOCKED: REMARK    6  A    between atoms: N_12  and  C_13
DOCKED: REMARK    7  A    between atoms: N_12  and  C_15
DOCKED: REMARK    8  A    between atoms: C_13  and  C_14
DOCKED: REMARK    9  A    between atoms: C_15  and  C_16
DOCKED: REMARK   10  A    between atoms: N_21  and  C_22
DOCKED: REMARK   11  A    between atoms: C_25  and  C_26
DOCKED: REMARK   12  A    between atoms: N_27  and  O_28
DOCKED: REMARK                            x       y       z     vdW  Elec       q    Type
DOCKED: REMARK                         _______ _______ _______ _____ _____    ______ ____
DOCKED: USER                              x       y       z     vdW  Elec       q    Type
DOCKED: USER                           _______ _______ _______ _____ _____    ______ ____
DOCKED: ROOT
DOCKED: ATOM      1  C   UNL     1      20.595  -9.442  -6.996 -0.20 -0.00    +0.000 C 
DOCKED: ENDROOT
DOCKED: BRANCH   1   2
DOCKED: ATOM      2  C   UNL     1      19.275  -9.426  -6.282 -0.16 -0.00    +0.000 A 
DOCKED: ATOM      3  C   UNL     1      18.918  -8.329  -5.482 -0.14 -0.00    +0.000 A 
DOCKED: ATOM      4  C   UNL     1      17.706  -8.324  -4.787 -0.15 -0.00    +0.000 A 
DOCKED: ATOM      5  C   UNL     1      16.840  -9.423  -4.870 -0.17 -0.00    +0.000 A 
DOCKED: ATOM      6  C   UNL     1      15.621  -9.427  -4.174 -0.18 -0.00    +0.000 A 
DOCKED: ATOM      7  C   UNL     1      14.760 -10.533  -4.258 -0.23 -0.00    +0.000 A 
DOCKED: ATOM      8  C   UNL     1      15.123 -11.636  -5.046 -0.19 -0.00    +0.000 A 
DOCKED: ATOM      9  C   UNL     1      16.335 -11.641  -5.741 -0.14 -0.00    +0.000 A 
DOCKED: ATOM     10  C   UNL     1      17.200 -10.540  -5.661 -0.24 -0.00    +0.000 A 
DOCKED: ATOM     11  C   UNL     1      18.419 -10.536  -6.356 -0.28 -0.00    +0.000 A 
DOCKED: BRANCH   7  12
DOCKED: ATOM     12  C   UNL     1      13.442 -10.537  -3.529 -0.22 -0.00    +0.000 C 
DOCKED: BRANCH  12  13
DOCKED: ATOM     13  N   UNL     1      13.658 -10.799  -2.090 -0.29 -0.00    +0.000 N 
DOCKED: ATOM     14  H   UNL     1      12.876 -11.358  -1.749 -0.03 -0.00    +0.000 HD
DOCKED: BRANCH  13  15
DOCKED: ATOM     15  C   UNL     1      13.626  -9.545  -1.300 -0.22 -0.00    +0.000 C 
DOCKED: ATOM     16  C   UNL     1      15.021  -9.131  -0.833 -0.25 -0.00    +0.000 C 
DOCKED: ENDBRANCH  13  15
DOCKED: BRANCH  13  17
DOCKED: ATOM     17  C   UNL     1      14.858 -11.639  -1.849 -0.34 -0.00    +0.000 C 
DOCKED: ATOM     18  C   UNL     1      14.702 -12.650  -0.704 -0.48 +0.00    +0.000 C 
DOCKED: ENDBRANCH  13  17
DOCKED: ENDBRANCH  12  13
DOCKED: ENDBRANCH   7  12
DOCKED: ENDBRANCH   1   2
DOCKED: BRANCH   1  19
DOCKED: ATOM     19  O   UNL     1      21.620  -9.806  -6.077 -0.31 -0.00    +0.000 OA
DOCKED: BRANCH  19  21
DOCKED: ATOM     20  O   UNL     1      21.575 -11.635  -4.671 -0.61 -0.00    +0.000 OA
DOCKED: ATOM     21  C   UNL     1      21.351 -10.405  -4.844 -0.47 -0.00    +0.000 C 
DOCKED: ATOM     22  N   UNL     1      20.777  -9.614  -3.795 -0.37 -0.00    +0.000 N 
DOCKED: ATOM     23  H   UNL     1      20.473  -8.704  -4.019 -0.00 -0.00    +0.000 HD
DOCKED: BRANCH  22  24
DOCKED: ATOM     24  C   UNL     1      20.617 -10.059  -2.437 -0.48 -0.00    +0.000 A 
DOCKED: ATOM     25  C   UNL     1      21.737 -10.118  -1.596 -0.32 -0.00    +0.000 A 
DOCKED: ATOM     26  C   UNL     1      21.612 -10.567  -0.279 -0.57 -0.00    +0.000 A 
DOCKED: ATOM     27  C   UNL     1      20.365 -10.976   0.223 -0.59 -0.00    +0.000 A 
DOCKED: ATOM     28  C   UNL     1      19.249 -10.951  -0.633 -0.45 -0.00    +0.000 A 
DOCKED: ATOM     29  C   UNL     1      19.374 -10.500  -1.951 -0.39 -0.00    +0.000 A 
DOCKED: BRANCH  27  30
DOCKED: ATOM     30  C   UNL     1      20.249 -11.455   1.622 -0.76 -0.00    +0.000 C 
DOCKED: ATOM     31  N   UNL     1      20.637 -10.632   2.728 -0.63 -0.00    +0.000 N 
DOCKED: ATOM     32  O   UNL     1      19.814 -12.617   1.847 -1.61 -0.00    +0.000 OA
DOCKED: ATOM     33  H   UNL     1      21.057  -9.756   2.564 -0.59 -0.00    +0.000 HD
DOCKED: BRANCH  31  34
DOCKED: ATOM     34  O   UNL     1      20.427 -11.051   3.999 -0.79 -0.00    +0.000 OA
DOCKED: ATOM     35  H   UNL     1      20.434 -12.020   4.025 -0.37 -0.00    +0.000 HD
DOCKED: ENDBRANCH  31  34
DOCKED: ENDBRANCH  27  30
DOCKED: ENDBRANCH  22  24
DOCKED: ENDBRANCH  19  21
DOCKED: ENDBRANCH   1  19
DOCKED: TORSDOF 10
DOCKED: TER
DOCKED: ENDMDL
________________________________________________________________________________


	BEGINNING GENETIC ALGORITHM DOCKING 47 of 100
Run: 47 Seed: 1045542106 1364753089 [ Run 47 of 100 GA/GALS ]
Beginning LAMARCKIAN GENETIC ALGORITHM (LGA), with a maximum of 2500000 energy evaluations.

Final-Value: -14.336


	FINAL GENETIC ALGORITHM DOCKED STATE
	_______________________________________________


Detailed state:  trans 20.462 -11.204 0.806 quatxyzw -0.070992 0.102826 -0.044540 -0.991163 center 1.858 0.218 -0.021 ntor 10 -152.3041 29.2675 9.7192 -136.6685 143.1307 154.6666 -174.7540 7.5315 -47.2547 -128.0773
State:	 20.462 -11.204   0.806  -0.535  0.775 -0.336 -15.246   -152.30   29.27    9.72 -136.67  143.13  154.67 -174.75    7.53  -47.25 -128.08

DOCKED: MODEL       47
DOCKED: USER    Run = 47
DOCKED: USER    DPF = ligand_dock.biased.dpf
DOCKED: USER  
DOCKED: USER    Estimated Free Energy of Binding    =   -9.19 kcal/mol  [=(1)+(2)+(3)-(4)]
DOCKED: USER    Estimated Inhibition Constant, Ki   =  182.07 nM (nanomolar)  [Temperature = 298.15 K]
DOCKED: USER    
DOCKED: USER    (1) Final Intermolecular Energy     =  -12.18 kcal/mol
DOCKED: USER        vdW + Hbond + desolv Energy     =  -12.18 kcal/mol
DOCKED: USER        Electrostatic Energy            =   +0.00 kcal/mol
DOCKED: USER    (2) Final Total Internal Energy     =   -2.16 kcal/mol
DOCKED: USER    (3) Torsional Free Energy           =   +2.98 kcal/mol
DOCKED: USER    (4) Unbound System's Energy  [=(2)] =   -2.16 kcal/mol
DOCKED: USER    
DOCKED: USER    
DOCKED: USER    NEWDPF move ligand.pdbqt
DOCKED: USER    NEWDPF about 1.858000 0.218000 -0.021000
DOCKED: USER    NEWDPF tran0 20.462000 -11.203925 0.805792
DOCKED: USER    NEWDPF quaternion0 -0.070992 0.102826 -0.044540 -0.991163
DOCKED: USER    NEWDPF axisangle0 -0.535169 0.775150 -0.335763 -15.245877
DOCKED: USER    NEWDPF quat0 -0.535169 0.775150 -0.335763 -15.245877
DOCKED: USER    NEWDPF dihe0 -152.30 29.27 9.72 -136.67 143.13 154.67 -174.75 7.53 -47.25 -128.08 
DOCKED: USER  keepresnum = 1 
DOCKED: USER  
DOCKED: REMARK  Name = 
DOCKED: REMARK  12 active torsions:
DOCKED: REMARK  status: ('A' for Active; 'I' for Inactive)
DOCKED: REMARK    1  A    between atoms: C_2  and  O_3
DOCKED: REMARK    2  A    between atoms: O_3  and  C_4
DOCKED: REMARK    3  A    between atoms: C_4  and  C_5
DOCKED: REMARK    4  A    between atoms: C_10  and  C_11
DOCKED: REMARK    5  A    between atoms: C_11  and  N_12
DOCKED: REMARK    6  A    between atoms: N_12  and  C_13
DOCKED: REMARK    7  A    between atoms: N_12  and  C_15
DOCKED: REMARK    8  A    between atoms: C_13  and  C_14
DOCKED: REMARK    9  A    between atoms: C_15  and  C_16
DOCKED: REMARK   10  A    between atoms: N_21  and  C_22
DOCKED: REMARK   11  A    between atoms: C_25  and  C_26
DOCKED: REMARK   12  A    between atoms: N_27  and  O_28
DOCKED: REMARK                            x       y       z     vdW  Elec       q    Type
DOCKED: REMARK                         _______ _______ _______ _____ _____    ______ ____
DOCKED: USER                              x       y       z     vdW  Elec       q    Type
DOCKED: USER                           _______ _______ _______ _____ _____    ______ ____
DOCKED: ROOT
DOCKED: ATOM      1  C   UNL     1      20.576 -11.639   2.389 -0.77 -0.00    +0.000 C 
DOCKED: ENDROOT
DOCKED: BRANCH   1   2
DOCKED: ATOM      2  C   UNL     1      19.090 -11.669   2.176 -0.57 -0.00    +0.000 A 
DOCKED: ATOM      3  C   UNL     1      18.543 -12.412   1.119 -0.47 -0.00    +0.000 A 
DOCKED: ATOM      4  C   UNL     1      17.164 -12.416   0.895 -0.45 +0.00    +0.000 A 
DOCKED: ATOM      5  C   UNL     1      16.314 -11.662   1.717 -0.40 +0.00    +0.000 A 
DOCKED: ATOM      6  C   UNL     1      14.928 -11.658   1.497 -0.41 +0.00    +0.000 A 
DOCKED: ATOM      7  C   UNL     1      14.081 -10.898   2.321 -0.36 +0.00    +0.000 A 
DOCKED: ATOM      8  C   UNL     1      14.630 -10.143   3.369 -0.37 +0.00    +0.000 A 
DOCKED: ATOM      9  C   UNL     1      16.009 -10.141   3.593 -0.42 +0.00    +0.000 A 
DOCKED: ATOM     10  C   UNL     1      16.859 -10.897   2.774 -0.44 +0.00    +0.000 A 
DOCKED: ATOM     11  C   UNL     1      18.245 -10.901   2.992 -0.46 -0.00    +0.000 A 
DOCKED: BRANCH   7  12
DOCKED: ATOM     12  C   UNL     1      12.591 -10.903   2.104 -0.29 +0.00    +0.000 C 
DOCKED: BRANCH  12  13
DOCKED: ATOM     13  N   UNL     1      12.199  -9.770   1.240 -0.17 +0.00    +0.000 N 
DOCKED: ATOM     14  H   UNL     1      11.816  -9.036   1.835 +0.00 +0.00    +0.000 HD
DOCKED: BRANCH  13  15
DOCKED: ATOM     15  C   UNL     1      11.103 -10.148   0.316 -0.23 +0.00    +0.000 C 
DOCKED: ATOM     16  C   UNL     1      10.446 -11.466   0.719 -0.37 +0.00    +0.000 C 
DOCKED: ENDBRANCH  13  15
DOCKED: BRANCH  13  17
DOCKED: ATOM     17  C   UNL     1      13.369  -9.146   0.572 -0.18 +0.00    +0.000 C 
DOCKED: ATOM     18  C   UNL     1      13.628  -9.656  -0.853 -0.22 -0.00    +0.000 C 
DOCKED: ENDBRANCH  13  17
DOCKED: ENDBRANCH  12  13
DOCKED: ENDBRANCH   7  12
DOCKED: ENDBRANCH   1   2
DOCKED: BRANCH   1  19
DOCKED: ATOM     19  O   UNL     1      21.226 -11.494   1.130 -0.89 -0.00    +0.000 OA
DOCKED: BRANCH  19  21
DOCKED: ATOM     20  O   UNL     1      20.072  -9.584   0.543 -0.50 -0.00    +0.000 OA
DOCKED: ATOM     21  C   UNL     1      20.895 -10.486   0.221 -0.70 -0.00    +0.000 C 
DOCKED: ATOM     22  N   UNL     1      21.466 -10.517  -1.093 -0.63 -0.00    +0.000 N 
DOCKED: ATOM     23  H   UNL     1      21.975 -11.319  -1.354 -0.05 -0.00    +0.000 HD
DOCKED: BRANCH  22  24
DOCKED: ATOM     24  C   UNL     1      21.347  -9.456  -2.055 -0.49 -0.00    +0.000 A 
DOCKED: ATOM     25  C   UNL     1      21.394  -8.124  -1.620 -0.43 -0.00    +0.000 A 
DOCKED: ATOM     26  C   UNL     1      21.259  -7.074  -2.531 -0.40 -0.00    +0.000 A 
DOCKED: ATOM     27  C   UNL     1      21.066  -7.334  -3.899 -0.29 -0.00    +0.000 A 
DOCKED: ATOM     28  C   UNL     1      20.984  -8.670  -4.330 -0.30 -0.00    +0.000 A 
DOCKED: ATOM     29  C   UNL     1      21.119  -9.721  -3.417 -0.44 -0.00    +0.000 A 
DOCKED: BRANCH  27  30
DOCKED: ATOM     30  C   UNL     1      20.920  -6.209  -4.854 -0.18 -0.00    +0.000 C 
DOCKED: ATOM     31  N   UNL     1      19.866  -5.247  -4.721 -0.13 -0.00    +0.000 N 
DOCKED: ATOM     32  O   UNL     1      21.729  -6.100  -5.815 -0.12 -0.00    +0.000 OA
DOCKED: ATOM     33  H   UNL     1      19.178  -5.367  -4.027 -0.02 -0.00    +0.000 HD
DOCKED: BRANCH  31  34
DOCKED: ATOM     34  O   UNL     1      19.813  -4.172  -5.544 -0.06 -0.00    +0.000 OA
DOCKED: ATOM     35  H   UNL     1      20.462  -4.279  -6.257 +0.00 -0.00    +0.000 HD
DOCKED: ENDBRANCH  31  34
DOCKED: ENDBRANCH  27  30
DOCKED: ENDBRANCH  22  24
DOCKED: ENDBRANCH  19  21
DOCKED: ENDBRANCH   1  19
DOCKED: TORSDOF 10
DOCKED: TER
DOCKED: ENDMDL
________________________________________________________________________________


	BEGINNING GENETIC ALGORITHM DOCKING 48 of 100
Run: 48 Seed: 1823745339 8116059 [ Run 48 of 100 GA/GALS ]
Beginning LAMARCKIAN GENETIC ALGORITHM (LGA), with a maximum of 2500000 energy evaluations.

Final-Value: -15.666


	FINAL GENETIC ALGORITHM DOCKED STATE
	_______________________________________________


Detailed state:  trans 21.025 -9.103 -4.850 quatxyzw 0.698420 -0.523662 -0.485751 -0.045094 center 1.858 0.218 -0.021 ntor 10 146.7438 -145.6477 25.3882 -34.4793 -113.3199 176.4359 180.0000 -123.2780 -172.9029 -144.3358
State:	 21.025  -9.103  -4.850   0.699 -0.524 -0.486 -174.831    146.74 -145.65   25.39  -34.48 -113.32  176.44  180.00 -123.28 -172.90 -144.34

DOCKED: MODEL       48
DOCKED: USER    Run = 48
DOCKED: USER    DPF = ligand_dock.biased.dpf
DOCKED: USER  
DOCKED: USER    Estimated Free Energy of Binding    =  -10.30 kcal/mol  [=(1)+(2)+(3)-(4)]
DOCKED: USER    Estimated Inhibition Constant, Ki   =   28.20 nM (nanomolar)  [Temperature = 298.15 K]
DOCKED: USER    
DOCKED: USER    (1) Final Intermolecular Energy     =  -13.28 kcal/mol
DOCKED: USER        vdW + Hbond + desolv Energy     =  -13.28 kcal/mol
DOCKED: USER        Electrostatic Energy            =   +0.00 kcal/mol
DOCKED: USER    (2) Final Total Internal Energy     =   -2.38 kcal/mol
DOCKED: USER    (3) Torsional Free Energy           =   +2.98 kcal/mol
DOCKED: USER    (4) Unbound System's Energy  [=(2)] =   -2.38 kcal/mol
DOCKED: USER    
DOCKED: USER    
DOCKED: USER    NEWDPF move ligand.pdbqt
DOCKED: USER    NEWDPF about 1.858000 0.218000 -0.021000
DOCKED: USER    NEWDPF tran0 21.024708 -9.103118 -4.850112
DOCKED: USER    NEWDPF quaternion0 0.698420 -0.523662 -0.485751 -0.045094
DOCKED: USER    NEWDPF axisangle0 0.699131 -0.524196 -0.486246 -174.830891
DOCKED: USER    NEWDPF quat0 0.699131 -0.524196 -0.486246 -174.830891
DOCKED: USER    NEWDPF dihe0 146.74 -145.65 25.39 -34.48 -113.32 176.44 180.00 -123.28 -172.90 -144.34 
DOCKED: USER  keepresnum = 1 
DOCKED: USER  
DOCKED: REMARK  Name = 
DOCKED: REMARK  12 active torsions:
DOCKED: REMARK  status: ('A' for Active; 'I' for Inactive)
DOCKED: REMARK    1  A    between atoms: C_2  and  O_3
DOCKED: REMARK    2  A    between atoms: O_3  and  C_4
DOCKED: REMARK    3  A    between atoms: C_4  and  C_5
DOCKED: REMARK    4  A    between atoms: C_10  and  C_11
DOCKED: REMARK    5  A    between atoms: C_11  and  N_12
DOCKED: REMARK    6  A    between atoms: N_12  and  C_13
DOCKED: REMARK    7  A    between atoms: N_12  and  C_15
DOCKED: REMARK    8  A    between atoms: C_13  and  C_14
DOCKED: REMARK    9  A    between atoms: C_15  and  C_16
DOCKED: REMARK   10  A    between atoms: N_21  and  C_22
DOCKED: REMARK   11  A    between atoms: C_25  and  C_26
DOCKED: REMARK   12  A    between atoms: N_27  and  O_28
DOCKED: REMARK                            x       y       z     vdW  Elec       q    Type
DOCKED: REMARK                         _______ _______ _______ _____ _____    ______ ____
DOCKED: USER                              x       y       z     vdW  Elec       q    Type
DOCKED: USER                           _______ _______ _______ _____ _____    ______ ____
DOCKED: ROOT
DOCKED: ATOM      1  C   UNL     1      20.392  -8.018  -5.913 -0.15 -0.00    +0.000 C 
DOCKED: ENDROOT
DOCKED: BRANCH   1   2
DOCKED: ATOM      2  C   UNL     1      20.873  -7.115  -4.815 -0.19 -0.00    +0.000 A 
DOCKED: ATOM      3  C   UNL     1      20.187  -7.064  -3.592 -0.20 -0.00    +0.000 A 
DOCKED: ATOM      4  C   UNL     1      20.609  -6.200  -2.579 -0.26 -0.00    +0.000 A 
DOCKED: ATOM      5  C   UNL     1      21.716  -5.363  -2.781 -0.33 -0.00    +0.000 A 
DOCKED: ATOM      6  C   UNL     1      22.145  -4.490  -1.770 -0.33 +0.00    +0.000 A 
DOCKED: ATOM      7  C   UNL     1      23.251  -3.650  -1.980 -0.28 -0.00    +0.000 A 
DOCKED: ATOM      8  C   UNL     1      23.928  -3.691  -3.209 -0.18 -0.00    +0.000 A 
DOCKED: ATOM      9  C   UNL     1      23.506  -4.556  -4.221 -0.13 -0.00    +0.000 A 
DOCKED: ATOM     10  C   UNL     1      22.402  -5.396  -4.018 -0.17 -0.00    +0.000 A 
DOCKED: ATOM     11  C   UNL     1      21.972  -6.268  -5.029 -0.17 -0.00    +0.000 A 
DOCKED: BRANCH   7  12
DOCKED: ATOM     12  C   UNL     1      23.731  -2.724  -0.893 -0.27 +0.00    +0.000 C 
DOCKED: BRANCH  12  13
DOCKED: ATOM     13  N   UNL     1      22.780  -1.605  -0.722 -0.24 -0.00    +0.000 N 
DOCKED: ATOM     14  H   UNL     1      22.014  -1.737  -1.382 +0.00 -0.00    +0.000 HD
DOCKED: BRANCH  13  15
DOCKED: ATOM     15  C   UNL     1      23.400  -0.308  -1.083 -0.15 -0.00    +0.000 C 
DOCKED: ATOM     16  C   UNL     1      24.783  -0.142  -0.454 -0.23 -0.00    +0.000 C 
DOCKED: ENDBRANCH  13  15
DOCKED: BRANCH  13  17
DOCKED: ATOM     17  C   UNL     1      22.136  -1.618   0.615 -0.32 -0.00    +0.000 C 
DOCKED: ATOM     18  C   UNL     1      20.989  -2.630   0.753 -0.49 +0.00    +0.000 C 
DOCKED: ENDBRANCH  13  17
DOCKED: ENDBRANCH  12  13
DOCKED: ENDBRANCH   7  12
DOCKED: ENDBRANCH   1   2
DOCKED: BRANCH   1  19
DOCKED: ATOM     19  O   UNL     1      20.884  -9.335  -5.687 -0.24 -0.00    +0.000 OA
DOCKED: BRANCH  19  21
DOCKED: ATOM     20  O   UNL     1      22.142 -10.328  -4.027 -0.48 -0.00    +0.000 OA
DOCKED: ATOM     21  C   UNL     1      21.025  -9.879  -4.408 -0.42 -0.00    +0.000 C 
DOCKED: ATOM     22  N   UNL     1      19.877  -9.958  -3.554 -0.34 -0.00    +0.000 N 
DOCKED: ATOM     23  H   UNL     1      18.998  -9.744  -3.943 -0.00 -0.00    +0.000 HD
DOCKED: BRANCH  22  24
DOCKED: ATOM     24  C   UNL     1      19.922 -10.329  -2.165 -0.43 -0.00    +0.000 A 
DOCKED: ATOM     25  C   UNL     1      21.046  -9.990  -1.399 -0.57 -0.00    +0.000 A 
DOCKED: ATOM     26  C   UNL     1      21.124 -10.357  -0.053 -0.63 -0.00    +0.000 A 
DOCKED: ATOM     27  C   UNL     1      20.083 -11.080   0.554 -0.60 -0.00    +0.000 A 
DOCKED: ATOM     28  C   UNL     1      18.971 -11.450  -0.225 -0.47 -0.00    +0.000 A 
DOCKED: ATOM     29  C   UNL     1      18.893 -11.082  -1.572 -0.37 -0.00    +0.000 A 
DOCKED: BRANCH  27  30
DOCKED: ATOM     30  C   UNL     1      20.182 -11.466   1.982 -0.77 -0.00    +0.000 C 
DOCKED: ATOM     31  N   UNL     1      20.643 -10.543   2.976 -0.63 -0.00    +0.000 N 
DOCKED: ATOM     32  O   UNL     1      19.868 -12.636   2.332 -1.46 -0.00    +0.000 OA
DOCKED: ATOM     33  H   UNL     1      20.972  -9.655   2.705 -0.58 -0.00    +0.000 HD
DOCKED: BRANCH  31  34
DOCKED: ATOM     34  O   UNL     1      20.629 -10.885   4.286 -0.76 -0.00    +0.000 OA
DOCKED: ATOM     35  H   UNL     1      20.675 -11.851   4.369 -0.46 -0.00    +0.000 HD
DOCKED: ENDBRANCH  31  34
DOCKED: ENDBRANCH  27  30
DOCKED: ENDBRANCH  22  24
DOCKED: ENDBRANCH  19  21
DOCKED: ENDBRANCH   1  19
DOCKED: TORSDOF 10
DOCKED: TER
DOCKED: ENDMDL
________________________________________________________________________________


	BEGINNING GENETIC ALGORITHM DOCKING 49 of 100
Run: 49 Seed: 136094515 1981256537 [ Run 49 of 100 GA/GALS ]
Beginning LAMARCKIAN GENETIC ALGORITHM (LGA), with a maximum of 2500000 energy evaluations.

Final-Value: -14.671


	FINAL GENETIC ALGORITHM DOCKED STATE
	_______________________________________________


Detailed state:  trans 21.505 -11.577 -7.177 quatxyzw 0.447240 0.168489 0.864445 -0.155954 center 1.858 0.218 -0.021 ntor 10 -52.5114 165.8029 2.7093 -25.5421 117.3242 32.6550 -83.2118 -118.6077 23.5466 -34.8874
State:	 21.505 -11.577  -7.177   0.453  0.171  0.875 -162.056    -52.51  165.80    2.71  -25.54  117.32   32.65  -83.21 -118.61   23.55  -34.89

DOCKED: MODEL       49
DOCKED: USER    Run = 49
DOCKED: USER    DPF = ligand_dock.biased.dpf
DOCKED: USER  
DOCKED: USER    Estimated Free Energy of Binding    =   -9.75 kcal/mol  [=(1)+(2)+(3)-(4)]
DOCKED: USER    Estimated Inhibition Constant, Ki   =   71.79 nM (nanomolar)  [Temperature = 298.15 K]
DOCKED: USER    
DOCKED: USER    (1) Final Intermolecular Energy     =  -12.73 kcal/mol
DOCKED: USER        vdW + Hbond + desolv Energy     =  -12.73 kcal/mol
DOCKED: USER        Electrostatic Energy            =   +0.00 kcal/mol
DOCKED: USER    (2) Final Total Internal Energy     =   -1.94 kcal/mol
DOCKED: USER    (3) Torsional Free Energy           =   +2.98 kcal/mol
DOCKED: USER    (4) Unbound System's Energy  [=(2)] =   -1.94 kcal/mol
DOCKED: USER    
DOCKED: USER    
DOCKED: USER    NEWDPF move ligand.pdbqt
DOCKED: USER    NEWDPF about 1.858000 0.218000 -0.021000
DOCKED: USER    NEWDPF tran0 21.505400 -11.576884 -7.176599
DOCKED: USER    NEWDPF quaternion0 0.447240 0.168489 0.864445 -0.155954
DOCKED: USER    NEWDPF axisangle0 0.452780 0.170576 0.875153 -162.055723
DOCKED: USER    NEWDPF quat0 0.452780 0.170576 0.875153 -162.055723
DOCKED: USER    NEWDPF dihe0 -52.51 165.80 2.71 -25.54 117.32 32.65 -83.21 -118.61 23.55 -34.89 
DOCKED: USER  keepresnum = 1 
DOCKED: USER  
DOCKED: REMARK  Name = 
DOCKED: REMARK  12 active torsions:
DOCKED: REMARK  status: ('A' for Active; 'I' for Inactive)
DOCKED: REMARK    1  A    between atoms: C_2  and  O_3
DOCKED: REMARK    2  A    between atoms: O_3  and  C_4
DOCKED: REMARK    3  A    between atoms: C_4  and  C_5
DOCKED: REMARK    4  A    between atoms: C_10  and  C_11
DOCKED: REMARK    5  A    between atoms: C_11  and  N_12
DOCKED: REMARK    6  A    between atoms: N_12  and  C_13
DOCKED: REMARK    7  A    between atoms: N_12  and  C_15
DOCKED: REMARK    8  A    between atoms: C_13  and  C_14
DOCKED: REMARK    9  A    between atoms: C_15  and  C_16
DOCKED: REMARK   10  A    between atoms: N_21  and  C_22
DOCKED: REMARK   11  A    between atoms: C_25  and  C_26
DOCKED: REMARK   12  A    between atoms: N_27  and  O_28
DOCKED: REMARK                            x       y       z     vdW  Elec       q    Type
DOCKED: REMARK                         _______ _______ _______ _____ _____    ______ ____
DOCKED: USER                              x       y       z     vdW  Elec       q    Type
DOCKED: USER                           _______ _______ _______ _____ _____    ______ ____
DOCKED: ROOT
DOCKED: ATOM      1  C   UNL     1      22.909 -10.827  -6.758 -0.38 -0.00    +0.000 C 
DOCKED: ENDROOT
DOCKED: BRANCH   1   2
DOCKED: ATOM      2  C   UNL     1      23.264 -11.400  -8.099 -0.36 -0.00    +0.000 A 
DOCKED: ATOM      3  C   UNL     1      23.730 -10.562  -9.124 -0.18 -0.00    +0.000 A 
DOCKED: ATOM      4  C   UNL     1      24.028 -11.084 -10.385 -0.13 -0.00    +0.000 A 
DOCKED: ATOM      5  C   UNL     1      23.851 -12.452 -10.643 -0.22 -0.00    +0.000 A 
DOCKED: ATOM      6  C   UNL     1      24.147 -12.984 -11.907 -0.14 -0.00    +0.000 A 
DOCKED: ATOM      7  C   UNL     1      23.963 -14.353 -12.160 -0.20 -0.00    +0.000 A 
DOCKED: ATOM      8  C   UNL     1      23.483 -15.189 -11.139 -0.36 +0.00    +0.000 A 
DOCKED: ATOM      9  C   UNL     1      23.185 -14.666  -9.879 -0.27 +0.00    +0.000 A 
DOCKED: ATOM     10  C   UNL     1      23.366 -13.300  -9.619 -0.36 -0.00    +0.000 A 
DOCKED: ATOM     11  C   UNL     1      23.070 -12.766  -8.356 -0.19 -0.00    +0.000 A 
DOCKED: BRANCH   7  12
DOCKED: ATOM     12  C   UNL     1      24.296 -14.937 -13.509 -0.12 -0.00    +0.000 C 
DOCKED: BRANCH  12  13
DOCKED: ATOM     13  N   UNL     1      24.852 -16.297 -13.351 -0.17 -0.00    +0.000 N 
DOCKED: ATOM     14  H   UNL     1      24.728 -16.579 -12.379 -0.01 +0.00    +0.000 HD
DOCKED: BRANCH  13  15
DOCKED: ATOM     15  C   UNL     1      26.314 -16.316 -13.590 -0.18 -0.00    +0.000 C 
DOCKED: ATOM     16  C   UNL     1      27.096 -16.651 -12.321 -0.38 -0.00    +0.000 C 
DOCKED: ENDBRANCH  13  15
DOCKED: BRANCH  13  17
DOCKED: ATOM     17  C   UNL     1      24.095 -17.304 -14.136 -0.17 -0.00    +0.000 C 
DOCKED: ATOM     18  C   UNL     1      23.623 -18.517 -13.320 -0.36 +0.00    +0.000 C 
DOCKED: ENDBRANCH  13  17
DOCKED: ENDBRANCH  12  13
DOCKED: ENDBRANCH   7  12
DOCKED: ENDBRANCH   1   2
DOCKED: BRANCH   1  19
DOCKED: ATOM     19  O   UNL     1      21.507 -10.963  -6.547 -0.39 -0.00    +0.000 OA
DOCKED: BRANCH  19  21
DOCKED: ATOM     20  O   UNL     1      20.275 -12.260  -5.090 -0.77 -0.00    +0.000 OA
DOCKED: ATOM     21  C   UNL     1      20.955 -11.215  -5.288 -0.52 -0.00    +0.000 C 
DOCKED: ATOM     22  N   UNL     1      21.135 -10.252  -4.242 -0.42 -0.00    +0.000 N 
DOCKED: ATOM     23  H   UNL     1      21.533  -9.383  -4.481 -0.02 -0.00    +0.000 HD
DOCKED: BRANCH  22  24
DOCKED: ATOM     24  C   UNL     1      20.773 -10.469  -2.868 -0.47 -0.00    +0.000 A 
DOCKED: ATOM     25  C   UNL     1      21.714 -10.212  -1.861 -0.31 -0.00    +0.000 A 
DOCKED: ATOM     26  C   UNL     1      21.395 -10.434  -0.518 -0.64 -0.00    +0.000 A 
DOCKED: ATOM     27  C   UNL     1      20.131 -10.928  -0.155 -0.55 -0.00    +0.000 A 
DOCKED: ATOM     28  C   UNL     1      19.200 -11.219  -1.169 -0.39 -0.00    +0.000 A 
DOCKED: ATOM     29  C   UNL     1      19.519 -10.996  -2.512 -0.36 -0.00    +0.000 A 
DOCKED: BRANCH  27  30
DOCKED: ATOM     30  C   UNL     1      19.808 -11.164   1.273 -0.69 -0.00    +0.000 C 
DOCKED: ATOM     31  N   UNL     1      20.155 -12.392   1.924 -0.71 -0.00    +0.000 N 
DOCKED: ATOM     32  O   UNL     1      19.204 -10.272   1.929 -0.67 -0.00    +0.000 OA
DOCKED: ATOM     33  H   UNL     1      20.550 -13.128   1.404 -0.61 -0.00    +0.000 HD
DOCKED: BRANCH  31  34
DOCKED: ATOM     34  O   UNL     1      19.942 -12.544   3.254 -0.98 -0.00    +0.000 OA
DOCKED: ATOM     35  H   UNL     1      19.512 -11.750   3.605 -0.04 -0.00    +0.000 HD
DOCKED: ENDBRANCH  31  34
DOCKED: ENDBRANCH  27  30
DOCKED: ENDBRANCH  22  24
DOCKED: ENDBRANCH  19  21
DOCKED: ENDBRANCH   1  19
DOCKED: TORSDOF 10
DOCKED: TER
DOCKED: ENDMDL
________________________________________________________________________________


	BEGINNING GENETIC ALGORITHM DOCKING 50 of 100
Run: 50 Seed: 1197377507 483125832 [ Run 50 of 100 GA/GALS ]
Beginning LAMARCKIAN GENETIC ALGORITHM (LGA), with a maximum of 2500000 energy evaluations.

Final-Value: -15.439


	FINAL GENETIC ALGORITHM DOCKED STATE
	_______________________________________________


Detailed state:  trans 21.223 -9.686 -5.898 quatxyzw -0.878544 -0.298762 -0.066183 -0.366771 center 1.858 0.218 -0.021 ntor 10 86.5214 -163.6878 51.3104 -179.6991 40.0854 178.4995 87.7866 104.8441 -175.8131 143.6194
State:	 21.223  -9.686  -5.898  -0.944 -0.321 -0.071 -136.967     86.52 -163.69   51.31 -179.70   40.09  178.50   87.79  104.84 -175.81  143.62

DOCKED: MODEL       50
DOCKED: USER    Run = 50
DOCKED: USER    DPF = ligand_dock.biased.dpf
DOCKED: USER  
DOCKED: USER    Estimated Free Energy of Binding    =  -10.11 kcal/mol  [=(1)+(2)+(3)-(4)]
DOCKED: USER    Estimated Inhibition Constant, Ki   =   38.94 nM (nanomolar)  [Temperature = 298.15 K]
DOCKED: USER    
DOCKED: USER    (1) Final Intermolecular Energy     =  -13.09 kcal/mol
DOCKED: USER        vdW + Hbond + desolv Energy     =  -13.09 kcal/mol
DOCKED: USER        Electrostatic Energy            =   +0.00 kcal/mol
DOCKED: USER    (2) Final Total Internal Energy     =   -2.35 kcal/mol
DOCKED: USER    (3) Torsional Free Energy           =   +2.98 kcal/mol
DOCKED: USER    (4) Unbound System's Energy  [=(2)] =   -2.35 kcal/mol
DOCKED: USER    
DOCKED: USER    
DOCKED: USER    NEWDPF move ligand.pdbqt
DOCKED: USER    NEWDPF about 1.858000 0.218000 -0.021000
DOCKED: USER    NEWDPF tran0 21.223408 -9.686488 -5.898350
DOCKED: USER    NEWDPF quaternion0 -0.878544 -0.298762 -0.066183 -0.366771
DOCKED: USER    NEWDPF axisangle0 -0.944355 -0.321143 -0.071140 -136.966769
DOCKED: USER    NEWDPF quat0 -0.944355 -0.321143 -0.071140 -136.966769
DOCKED: USER    NEWDPF dihe0 86.52 -163.69 51.31 -179.70 40.09 178.50 87.79 104.84 -175.81 143.62 
DOCKED: USER  keepresnum = 1 
DOCKED: USER  
DOCKED: REMARK  Name = 
DOCKED: REMARK  12 active torsions:
DOCKED: REMARK  status: ('A' for Active; 'I' for Inactive)
DOCKED: REMARK    1  A    between atoms: C_2  and  O_3
DOCKED: REMARK    2  A    between atoms: O_3  and  C_4
DOCKED: REMARK    3  A    between atoms: C_4  and  C_5
DOCKED: REMARK    4  A    between atoms: C_10  and  C_11
DOCKED: REMARK    5  A    between atoms: C_11  and  N_12
DOCKED: REMARK    6  A    between atoms: N_12  and  C_13
DOCKED: REMARK    7  A    between atoms: N_12  and  C_15
DOCKED: REMARK    8  A    between atoms: C_13  and  C_14
DOCKED: REMARK    9  A    between atoms: C_15  and  C_16
DOCKED: REMARK   10  A    between atoms: N_21  and  C_22
DOCKED: REMARK   11  A    between atoms: C_25  and  C_26
DOCKED: REMARK   12  A    between atoms: N_27  and  O_28
DOCKED: REMARK                            x       y       z     vdW  Elec       q    Type
DOCKED: REMARK                         _______ _______ _______ _____ _____    ______ ____
DOCKED: USER                              x       y       z     vdW  Elec       q    Type
DOCKED: USER                           _______ _______ _______ _____ _____    ______ ____
DOCKED: ROOT
DOCKED: ATOM      1  C   UNL     1      20.564  -8.372  -6.636 -0.13 -0.00    +0.000 C 
DOCKED: ENDROOT
DOCKED: BRANCH   1   2
DOCKED: ATOM      2  C   UNL     1      19.416  -9.338  -6.665 -0.15 -0.00    +0.000 A 
DOCKED: ATOM      3  C   UNL     1      19.410 -10.400  -7.582 -0.25 -0.00    +0.000 A 
DOCKED: ATOM      4  C   UNL     1      18.328 -11.282  -7.638 -0.23 -0.00    +0.000 A 
DOCKED: ATOM      5  C   UNL     1      17.229 -11.105  -6.786 -0.32 -0.00    +0.000 A 
DOCKED: ATOM      6  C   UNL     1      16.137 -11.985  -6.836 -0.27 -0.00    +0.000 A 
DOCKED: ATOM      7  C   UNL     1      15.037 -11.799  -5.983 -0.27 -0.00    +0.000 A 
DOCKED: ATOM      8  C   UNL     1      15.036 -10.729  -5.076 -0.23 -0.00    +0.000 A 
DOCKED: ATOM      9  C   UNL     1      16.118  -9.847  -5.021 -0.17 -0.00    +0.000 A 
DOCKED: ATOM     10  C   UNL     1      17.220 -10.026  -5.870 -0.19 -0.00    +0.000 A 
DOCKED: ATOM     11  C   UNL     1      18.312  -9.146  -5.820 -0.14 -0.00    +0.000 A 
DOCKED: BRANCH   7  12
DOCKED: ATOM     12  C   UNL     1      13.869 -12.751  -6.018 -0.28 -0.00    +0.000 C 
DOCKED: BRANCH  12  13
DOCKED: ATOM     13  N   UNL     1      13.110 -12.578  -7.275 -0.25 -0.00    +0.000 N 
DOCKED: ATOM     14  H   UNL     1      12.121 -12.718  -7.069 -0.01 -0.00    +0.000 HD
DOCKED: BRANCH  13  15
DOCKED: ATOM     15  C   UNL     1      13.463 -13.620  -8.268 -0.30 -0.00    +0.000 C 
DOCKED: ATOM     16  C   UNL     1      14.310 -13.056  -9.408 -0.30 +0.00    +0.000 C 
DOCKED: ENDBRANCH  13  15
DOCKED: BRANCH  13  17
DOCKED: ATOM     17  C   UNL     1      13.196 -11.190  -7.793 -0.14 -0.00    +0.000 C 
DOCKED: ATOM     18  C   UNL     1      12.005 -10.299  -7.414 -0.09 -0.00    +0.000 C 
DOCKED: ENDBRANCH  13  17
DOCKED: ENDBRANCH  12  13
DOCKED: ENDBRANCH   7  12
DOCKED: ENDBRANCH   1   2
DOCKED: BRANCH   1  19
DOCKED: ATOM     19  O   UNL     1      21.597  -8.895  -5.807 -0.26 -0.00    +0.000 OA
DOCKED: BRANCH  19  21
DOCKED: ATOM     20  O   UNL     1      21.463 -10.876  -4.631 -0.53 -0.00    +0.000 OA
DOCKED: ATOM     21  C   UNL     1      21.335  -9.620  -4.642 -0.40 -0.00    +0.000 C 
DOCKED: ATOM     22  N   UNL     1      20.877  -8.923  -3.476 -0.37 -0.00    +0.000 N 
DOCKED: ATOM     23  H   UNL     1      20.640  -7.972  -3.572 -0.01 -0.00    +0.000 HD
DOCKED: BRANCH  22  24
DOCKED: ATOM     24  C   UNL     1      20.741  -9.519  -2.175 -0.48 -0.00    +0.000 A 
DOCKED: ATOM     25  C   UNL     1      19.881 -10.613  -2.006 -0.42 -0.00    +0.000 A 
DOCKED: ATOM     26  C   UNL     1      19.714 -11.198  -0.748 -0.39 -0.00    +0.000 A 
DOCKED: ATOM     27  C   UNL     1      20.400 -10.694   0.371 -0.60 -0.00    +0.000 A 
DOCKED: ATOM     28  C   UNL     1      21.235  -9.575   0.208 -0.49 -0.00    +0.000 A 
DOCKED: ATOM     29  C   UNL     1      21.402  -8.991  -1.052 -0.50 -0.00    +0.000 A 
DOCKED: BRANCH  27  30
DOCKED: ATOM     30  C   UNL     1      20.209 -11.323   1.702 -0.76 -0.00    +0.000 C 
DOCKED: ATOM     31  N   UNL     1      20.579 -10.644   2.908 -0.65 -0.00    +0.000 N 
DOCKED: ATOM     32  O   UNL     1      19.726 -12.485   1.776 -1.65 -0.00    +0.000 OA
DOCKED: ATOM     33  H   UNL     1      21.035  -9.773   2.861 -0.60 -0.00    +0.000 HD
DOCKED: BRANCH  31  34
DOCKED: ATOM     34  O   UNL     1      20.302 -11.195   4.114 -0.79 -0.00    +0.000 OA
DOCKED: ATOM     35  H   UNL     1      20.629 -12.108   4.135 -0.51 -0.00    +0.000 HD
DOCKED: ENDBRANCH  31  34
DOCKED: ENDBRANCH  27  30
DOCKED: ENDBRANCH  22  24
DOCKED: ENDBRANCH  19  21
DOCKED: ENDBRANCH   1  19
DOCKED: TORSDOF 10
DOCKED: TER
DOCKED: ENDMDL
________________________________________________________________________________


	BEGINNING GENETIC ALGORITHM DOCKING 51 of 100
Run: 51 Seed: 2051888292 1558113571 [ Run 51 of 100 GA/GALS ]
Beginning LAMARCKIAN GENETIC ALGORITHM (LGA), with a maximum of 2500000 energy evaluations.

Final-Value: -14.743


	FINAL GENETIC ALGORITHM DOCKED STATE
	_______________________________________________


Detailed state:  trans 20.290 -10.433 1.850 quatxyzw -0.481201 -0.079936 0.108054 0.866245 center 1.858 0.218 -0.021 ntor 10 -164.4421 106.5445 5.1970 -26.7189 -75.1990 117.5395 -170.9691 161.4367 179.8023 116.5827
State:	 20.290 -10.433   1.850  -0.963 -0.160  0.216 59.950   -164.44  106.54    5.20  -26.72  -75.20  117.54 -170.97  161.44  179.80  116.58

DOCKED: MODEL       51
DOCKED: USER    Run = 51
DOCKED: USER    DPF = ligand_dock.biased.dpf
DOCKED: USER  
DOCKED: USER    Estimated Free Energy of Binding    =   -9.40 kcal/mol  [=(1)+(2)+(3)-(4)]
DOCKED: USER    Estimated Inhibition Constant, Ki   =  129.65 nM (nanomolar)  [Temperature = 298.15 K]
DOCKED: USER    
DOCKED: USER    (1) Final Intermolecular Energy     =  -12.38 kcal/mol
DOCKED: USER        vdW + Hbond + desolv Energy     =  -12.38 kcal/mol
DOCKED: USER        Electrostatic Energy            =   +0.00 kcal/mol
DOCKED: USER    (2) Final Total Internal Energy     =   -2.36 kcal/mol
DOCKED: USER    (3) Torsional Free Energy           =   +2.98 kcal/mol
DOCKED: USER    (4) Unbound System's Energy  [=(2)] =   -2.36 kcal/mol
DOCKED: USER    
DOCKED: USER    
DOCKED: USER    NEWDPF move ligand.pdbqt
DOCKED: USER    NEWDPF about 1.858000 0.218000 -0.021000
DOCKED: USER    NEWDPF tran0 20.289666 -10.433191 1.850443
DOCKED: USER    NEWDPF quaternion0 -0.481201 -0.079936 0.108054 0.866245
DOCKED: USER    NEWDPF axisangle0 -0.963134 -0.159994 0.216273 59.949630
DOCKED: USER    NEWDPF quat0 -0.963134 -0.159994 0.216273 59.949630
DOCKED: USER    NEWDPF dihe0 -164.44 106.54 5.20 -26.72 -75.20 117.54 -170.97 161.44 179.80 116.58 
DOCKED: USER  keepresnum = 1 
DOCKED: USER  
DOCKED: REMARK  Name = 
DOCKED: REMARK  12 active torsions:
DOCKED: REMARK  status: ('A' for Active; 'I' for Inactive)
DOCKED: REMARK    1  A    between atoms: C_2  and  O_3
DOCKED: REMARK    2  A    between atoms: O_3  and  C_4
DOCKED: REMARK    3  A    between atoms: C_4  and  C_5
DOCKED: REMARK    4  A    between atoms: C_10  and  C_11
DOCKED: REMARK    5  A    between atoms: C_11  and  N_12
DOCKED: REMARK    6  A    between atoms: N_12  and  C_13
DOCKED: REMARK    7  A    between atoms: N_12  and  C_15
DOCKED: REMARK    8  A    between atoms: C_13  and  C_14
DOCKED: REMARK    9  A    between atoms: C_15  and  C_16
DOCKED: REMARK   10  A    between atoms: N_21  and  C_22
DOCKED: REMARK   11  A    between atoms: C_25  and  C_26
DOCKED: REMARK   12  A    between atoms: N_27  and  O_28
DOCKED: REMARK                            x       y       z     vdW  Elec       q    Type
DOCKED: REMARK                         _______ _______ _______ _____ _____    ______ ____
DOCKED: USER                              x       y       z     vdW  Elec       q    Type
DOCKED: USER                           _______ _______ _______ _____ _____    ______ ____
DOCKED: ROOT
DOCKED: ATOM      1  C   UNL     1      20.016 -12.030   2.137 -0.78 -0.00    +0.000 C 
DOCKED: ENDROOT
DOCKED: BRANCH   1   2
DOCKED: ATOM      2  C   UNL     1      18.618 -11.486   2.117 -0.50 -0.00    +0.000 A 
DOCKED: ATOM      3  C   UNL     1      18.096 -10.837   3.246 -0.38 -0.00    +0.000 A 
DOCKED: ATOM      4  C   UNL     1      16.783 -10.360   3.245 -0.42 +0.00    +0.000 A 
DOCKED: ATOM      5  C   UNL     1      15.968 -10.539   2.118 -0.36 +0.00    +0.000 A 
DOCKED: ATOM      6  C   UNL     1      14.647 -10.064   2.109 -0.28 +0.00    +0.000 A 
DOCKED: ATOM      7  C   UNL     1      13.834 -10.251   0.980 -0.22 +0.00    +0.000 A 
DOCKED: ATOM      8  C   UNL     1      14.351 -10.912  -0.145 -0.28 +0.00    +0.000 A 
DOCKED: ATOM      9  C   UNL     1      15.665 -11.389  -0.144 -0.33 +0.00    +0.000 A 
DOCKED: ATOM     10  C   UNL     1      16.481 -11.207   0.981 -0.36 +0.00    +0.000 A 
DOCKED: ATOM     11  C   UNL     1      17.801 -11.682   0.991 -0.46 -0.00    +0.000 A 
DOCKED: BRANCH   7  12
DOCKED: ATOM     12  C   UNL     1      12.421  -9.728   0.955 -0.19 +0.00    +0.000 C 
DOCKED: BRANCH  12  13
DOCKED: ATOM     13  N   UNL     1      11.496 -10.785   0.496 -0.29 +0.00    +0.000 N 
DOCKED: ATOM     14  H   UNL     1      12.017 -11.660   0.440 -0.03 +0.00    +0.000 HD
DOCKED: BRANCH  13  15
DOCKED: ATOM     15  C   UNL     1      11.010 -10.521  -0.879 -0.15 -0.00    +0.000 C 
DOCKED: ATOM     16  C   UNL     1      11.627  -9.253  -1.468 -0.18 -0.00    +0.000 C 
DOCKED: ENDBRANCH  13  15
DOCKED: BRANCH  13  17
DOCKED: ATOM     17  C   UNL     1      10.417 -11.048   1.482 -0.32 +0.00    +0.000 C 
DOCKED: ATOM     18  C   UNL     1       9.336 -12.021   0.989 -0.40 +0.00    +0.000 C 
DOCKED: ENDBRANCH  13  17
DOCKED: ENDBRANCH  12  13
DOCKED: ENDBRANCH   7  12
DOCKED: ENDBRANCH   1   2
DOCKED: BRANCH   1  19
DOCKED: ATOM     19  O   UNL     1      20.917 -11.026   1.680 -0.92 -0.00    +0.000 OA
DOCKED: BRANCH  19  21
DOCKED: ATOM     20  O   UNL     1      21.411  -9.395   0.125 -0.73 -0.00    +0.000 OA
DOCKED: ATOM     21  C   UNL     1      20.873 -10.507   0.384 -0.69 -0.00    +0.000 C 
DOCKED: ATOM     22  N   UNL     1      20.171 -11.232  -0.634 -0.47 -0.00    +0.000 N 
DOCKED: ATOM     23  H   UNL     1      19.635 -12.010  -0.358 -0.04 -0.00    +0.000 HD
DOCKED: BRANCH  22  24
DOCKED: ATOM     24  C   UNL     1      20.200 -10.900  -2.033 -0.34 -0.00    +0.000 A 
DOCKED: ATOM     25  C   UNL     1      21.411 -10.516  -2.624 -0.48 -0.00    +0.000 A 
DOCKED: ATOM     26  C   UNL     1      21.462 -10.168  -3.976 -0.42 -0.00    +0.000 A 
DOCKED: ATOM     27  C   UNL     1      20.299 -10.188  -4.765 -0.34 -0.00    +0.000 A 
DOCKED: ATOM     28  C   UNL     1      19.078 -10.540  -4.162 -0.33 -0.00    +0.000 A 
DOCKED: ATOM     29  C   UNL     1      19.027 -10.889  -2.809 -0.34 -0.00    +0.000 A 
DOCKED: BRANCH  27  30
DOCKED: ATOM     30  C   UNL     1      20.368  -9.812  -6.198 -0.26 -0.00    +0.000 C 
DOCKED: ATOM     31  N   UNL     1      20.786 -10.749  -7.198 -0.28 -0.00    +0.000 N 
DOCKED: ATOM     32  O   UNL     1      20.067  -8.638  -6.547 -0.13 -0.00    +0.000 OA
DOCKED: ATOM     33  H   UNL     1      21.105 -11.641  -6.930 -0.42 -0.00    +0.000 HD
DOCKED: BRANCH  31  34
DOCKED: ATOM     34  O   UNL     1      20.744 -10.414  -8.509 -0.25 -0.00    +0.000 OA
DOCKED: ATOM     35  H   UNL     1      20.487  -9.483  -8.597 +0.00 -0.00    +0.000 HD
DOCKED: ENDBRANCH  31  34
DOCKED: ENDBRANCH  27  30
DOCKED: ENDBRANCH  22  24
DOCKED: ENDBRANCH  19  21
DOCKED: ENDBRANCH   1  19
DOCKED: TORSDOF 10
DOCKED: TER
DOCKED: ENDMDL
________________________________________________________________________________


	BEGINNING GENETIC ALGORITHM DOCKING 52 of 100
Run: 52 Seed: 371258911 594795875 [ Run 52 of 100 GA/GALS ]
Beginning LAMARCKIAN GENETIC ALGORITHM (LGA), with a maximum of 2500000 energy evaluations.

Final-Value: -15.345


	FINAL GENETIC ALGORITHM DOCKED STATE
	_______________________________________________


Detailed state:  trans 20.203 -9.709 0.966 quatxyzw -0.204406 -0.040570 -0.130511 0.969298 center 1.858 0.218 -0.021 ntor 10 154.9331 -125.1376 -138.5908 -40.1555 -171.8368 143.9173 174.5956 -46.8136 -41.0542 109.2707
State:	 20.203  -9.709   0.966  -0.831 -0.165 -0.531 28.469    154.93 -125.14 -138.59  -40.16 -171.84  143.92  174.60  -46.81  -41.05  109.27

DOCKED: MODEL       52
DOCKED: USER    Run = 52
DOCKED: USER    DPF = ligand_dock.biased.dpf
DOCKED: USER  
DOCKED: USER    Estimated Free Energy of Binding    =  -10.83 kcal/mol  [=(1)+(2)+(3)-(4)]
DOCKED: USER    Estimated Inhibition Constant, Ki   =   11.51 nM (nanomolar)  [Temperature = 298.15 K]
DOCKED: USER    
DOCKED: USER    (1) Final Intermolecular Energy     =  -13.81 kcal/mol
DOCKED: USER        vdW + Hbond + desolv Energy     =  -13.81 kcal/mol
DOCKED: USER        Electrostatic Energy            =   +0.00 kcal/mol
DOCKED: USER    (2) Final Total Internal Energy     =   -1.53 kcal/mol
DOCKED: USER    (3) Torsional Free Energy           =   +2.98 kcal/mol
DOCKED: USER    (4) Unbound System's Energy  [=(2)] =   -1.53 kcal/mol
DOCKED: USER    
DOCKED: USER    
DOCKED: USER    NEWDPF move ligand.pdbqt
DOCKED: USER    NEWDPF about 1.858000 0.218000 -0.021000
DOCKED: USER    NEWDPF tran0 20.202643 -9.709317 0.966100
DOCKED: USER    NEWDPF quaternion0 -0.204406 -0.040570 -0.130511 0.969298
DOCKED: USER    NEWDPF axisangle0 -0.831297 -0.164993 -0.530776 28.468575
DOCKED: USER    NEWDPF quat0 -0.831297 -0.164993 -0.530776 28.468575
DOCKED: USER    NEWDPF dihe0 154.93 -125.14 -138.59 -40.16 -171.84 143.92 174.60 -46.81 -41.05 109.27 
DOCKED: USER  keepresnum = 1 
DOCKED: USER  
DOCKED: REMARK  Name = 
DOCKED: REMARK  12 active torsions:
DOCKED: REMARK  status: ('A' for Active; 'I' for Inactive)
DOCKED: REMARK    1  A    between atoms: C_2  and  O_3
DOCKED: REMARK    2  A    between atoms: O_3  and  C_4
DOCKED: REMARK    3  A    between atoms: C_4  and  C_5
DOCKED: REMARK    4  A    between atoms: C_10  and  C_11
DOCKED: REMARK    5  A    between atoms: C_11  and  N_12
DOCKED: REMARK    6  A    between atoms: N_12  and  C_13
DOCKED: REMARK    7  A    between atoms: N_12  and  C_15
DOCKED: REMARK    8  A    between atoms: C_13  and  C_14
DOCKED: REMARK    9  A    between atoms: C_15  and  C_16
DOCKED: REMARK   10  A    between atoms: N_21  and  C_22
DOCKED: REMARK   11  A    between atoms: C_25  and  C_26
DOCKED: REMARK   12  A    between atoms: N_27  and  O_28
DOCKED: REMARK                            x       y       z     vdW  Elec       q    Type
DOCKED: REMARK                         _______ _______ _______ _____ _____    ______ ____
DOCKED: USER                              x       y       z     vdW  Elec       q    Type
DOCKED: USER                           _______ _______ _______ _____ _____    ______ ____
DOCKED: ROOT
DOCKED: ATOM      1  C   UNL     1      20.405 -10.911   2.072 -0.71 -0.00    +0.000 C 
DOCKED: ENDROOT
DOCKED: BRANCH   1   2
DOCKED: ATOM      2  C   UNL     1      19.011 -11.182   1.587 -0.54 -0.00    +0.000 A 
DOCKED: ATOM      3  C   UNL     1      18.774 -11.444   0.229 -0.48 -0.00    +0.000 A 
DOCKED: ATOM      4  C   UNL     1      17.474 -11.662  -0.234 -0.41 -0.00    +0.000 A 
DOCKED: ATOM      5  C   UNL     1      16.390 -11.607   0.654 -0.39 +0.00    +0.000 A 
DOCKED: ATOM      6  C   UNL     1      15.081 -11.823   0.197 -0.40 +0.00    +0.000 A 
DOCKED: ATOM      7  C   UNL     1      13.999 -11.762   1.090 -0.40 +0.00    +0.000 A 
DOCKED: ATOM      8  C   UNL     1      14.234 -11.487   2.446 -0.41 +0.00    +0.000 A 
DOCKED: ATOM      9  C   UNL     1      15.534 -11.269   2.909 -0.47 +0.00    +0.000 A 
DOCKED: ATOM     10  C   UNL     1      16.619 -11.327   2.022 -0.39 +0.00    +0.000 A 
DOCKED: ATOM     11  C   UNL     1      17.928 -11.111   2.478 -0.43 +0.00    +0.000 A 
DOCKED: BRANCH   7  12
DOCKED: ATOM     12  C   UNL     1      12.593 -12.012   0.612 -0.35 +0.00    +0.000 C 
DOCKED: BRANCH  12  13
DOCKED: ATOM     13  N   UNL     1      11.854 -10.735   0.516 -0.28 +0.00    +0.000 N 
DOCKED: ATOM     14  H   UNL     1      12.453  -9.995   0.879 +0.00 +0.00    +0.000 HD
DOCKED: BRANCH  13  15
DOCKED: ATOM     15  C   UNL     1      10.652 -10.739   1.383 -0.30 +0.00    +0.000 C 
DOCKED: ATOM     16  C   UNL     1       9.947 -12.095   1.376 -0.43 +0.00    +0.000 C 
DOCKED: ENDBRANCH  13  15
DOCKED: BRANCH  13  17
DOCKED: ATOM     17  C   UNL     1      11.586 -10.350  -0.893 -0.24 -0.00    +0.000 C 
DOCKED: ATOM     18  C   UNL     1      12.846 -10.199  -1.757 -0.26 -0.00    +0.000 C 
DOCKED: ENDBRANCH  13  17
DOCKED: ENDBRANCH  12  13
DOCKED: ENDBRANCH   7  12
DOCKED: ENDBRANCH   1   2
DOCKED: BRANCH   1  19
DOCKED: ATOM     19  O   UNL     1      21.010  -9.931   1.234 -0.55 -0.00    +0.000 OA
DOCKED: BRANCH  19  21
DOCKED: ATOM     20  O   UNL     1      22.060 -11.236  -0.353 -0.57 -0.00    +0.000 OA
DOCKED: ATOM     21  C   UNL     1      21.394 -10.198  -0.083 -0.71 -0.00    +0.000 C 
DOCKED: ATOM     22  N   UNL     1      21.059  -9.257  -1.110 -0.57 -0.00    +0.000 N 
DOCKED: ATOM     23  H   UNL     1      20.681  -8.391  -0.835 -0.04 -0.00    +0.000 HD
DOCKED: BRANCH  22  24
DOCKED: ATOM     24  C   UNL     1      21.239  -9.493  -2.517 -0.47 -0.00    +0.000 A 
DOCKED: ATOM     25  C   UNL     1      21.214 -10.808  -3.002 -0.38 -0.00    +0.000 A 
DOCKED: ATOM     26  C   UNL     1      21.407 -11.067  -4.362 -0.44 -0.00    +0.000 A 
DOCKED: ATOM     27  C   UNL     1      21.638 -10.016  -5.265 -0.35 -0.00    +0.000 A 
DOCKED: ATOM     28  C   UNL     1      21.698  -8.700  -4.772 -0.27 -0.00    +0.000 A 
DOCKED: ATOM     29  C   UNL     1      21.504  -8.441  -3.411 -0.34 -0.00    +0.000 A 
DOCKED: BRANCH  27  30
DOCKED: ATOM     30  C   UNL     1      21.845 -10.306  -6.705 -0.35 -0.00    +0.000 C 
DOCKED: ATOM     31  N   UNL     1      22.122 -11.634  -7.166 -0.27 -0.00    +0.000 N 
DOCKED: ATOM     32  O   UNL     1      21.792  -9.365  -7.542 -0.18 -0.00    +0.000 OA
DOCKED: ATOM     33  H   UNL     1      22.251 -12.362  -6.516 -0.50 -0.00    +0.000 HD
DOCKED: BRANCH  31  34
DOCKED: ATOM     34  O   UNL     1      22.207 -11.892  -8.493 -0.35 -0.00    +0.000 OA
DOCKED: ATOM     35  H   UNL     1      21.763 -12.732  -8.689 -0.60 -0.00    +0.000 HD
DOCKED: ENDBRANCH  31  34
DOCKED: ENDBRANCH  27  30
DOCKED: ENDBRANCH  22  24
DOCKED: ENDBRANCH  19  21
DOCKED: ENDBRANCH   1  19
DOCKED: TORSDOF 10
DOCKED: TER
DOCKED: ENDMDL
________________________________________________________________________________


	BEGINNING GENETIC ALGORITHM DOCKING 53 of 100
Run: 53 Seed: 648735134 570780223 [ Run 53 of 100 GA/GALS ]
Beginning LAMARCKIAN GENETIC ALGORITHM (LGA), with a maximum of 2500000 energy evaluations.

Final-Value: -15.866


	FINAL GENETIC ALGORITHM DOCKED STATE
	_______________________________________________


Detailed state:  trans 19.947 -10.679 -5.931 quatxyzw 0.937615 -0.130461 -0.032738 0.320603 center 1.858 0.218 -0.021 ntor 10 82.0584 173.2013 18.5280 -178.9017 -107.0884 174.7953 -113.8137 143.6182 35.7482 151.2241
State:	 19.947 -10.679  -5.931   0.990 -0.138 -0.035 142.601     82.06  173.20   18.53 -178.90 -107.09  174.80 -113.81  143.62   35.75  151.22

DOCKED: MODEL       53
DOCKED: USER    Run = 53
DOCKED: USER    DPF = ligand_dock.biased.dpf
DOCKED: USER  
DOCKED: USER    Estimated Free Energy of Binding    =  -10.04 kcal/mol  [=(1)+(2)+(3)-(4)]
DOCKED: USER    Estimated Inhibition Constant, Ki   =   43.50 nM (nanomolar)  [Temperature = 298.15 K]
DOCKED: USER    
DOCKED: USER    (1) Final Intermolecular Energy     =  -13.03 kcal/mol
DOCKED: USER        vdW + Hbond + desolv Energy     =  -13.03 kcal/mol
DOCKED: USER        Electrostatic Energy            =   +0.00 kcal/mol
DOCKED: USER    (2) Final Total Internal Energy     =   -2.84 kcal/mol
DOCKED: USER    (3) Torsional Free Energy           =   +2.98 kcal/mol
DOCKED: USER    (4) Unbound System's Energy  [=(2)] =   -2.84 kcal/mol
DOCKED: USER    
DOCKED: USER    
DOCKED: USER    NEWDPF move ligand.pdbqt
DOCKED: USER    NEWDPF about 1.858000 0.218000 -0.021000
DOCKED: USER    NEWDPF tran0 19.947327 -10.678589 -5.931478
DOCKED: USER    NEWDPF quaternion0 0.937615 -0.130461 -0.032738 0.320603
DOCKED: USER    NEWDPF axisangle0 0.989866 -0.137731 -0.034563 142.601243
DOCKED: USER    NEWDPF quat0 0.989866 -0.137731 -0.034563 142.601243
DOCKED: USER    NEWDPF dihe0 82.06 173.20 18.53 -178.90 -107.09 174.80 -113.81 143.62 35.75 151.22 
DOCKED: USER  keepresnum = 1 
DOCKED: USER  
DOCKED: REMARK  Name = 
DOCKED: REMARK  12 active torsions:
DOCKED: REMARK  status: ('A' for Active; 'I' for Inactive)
DOCKED: REMARK    1  A    between atoms: C_2  and  O_3
DOCKED: REMARK    2  A    between atoms: O_3  and  C_4
DOCKED: REMARK    3  A    between atoms: C_4  and  C_5
DOCKED: REMARK    4  A    between atoms: C_10  and  C_11
DOCKED: REMARK    5  A    between atoms: C_11  and  N_12
DOCKED: REMARK    6  A    between atoms: N_12  and  C_13
DOCKED: REMARK    7  A    between atoms: N_12  and  C_15
DOCKED: REMARK    8  A    between atoms: C_13  and  C_14
DOCKED: REMARK    9  A    between atoms: C_15  and  C_16
DOCKED: REMARK   10  A    between atoms: N_21  and  C_22
DOCKED: REMARK   11  A    between atoms: C_25  and  C_26
DOCKED: REMARK   12  A    between atoms: N_27  and  O_28
DOCKED: REMARK                            x       y       z     vdW  Elec       q    Type
DOCKED: REMARK                         _______ _______ _______ _____ _____    ______ ____
DOCKED: USER                              x       y       z     vdW  Elec       q    Type
DOCKED: USER                           _______ _______ _______ _____ _____    ______ ____
DOCKED: ROOT
DOCKED: ATOM      1  C   UNL     1      20.004  -9.229  -6.707 -0.17 -0.00    +0.000 C 
DOCKED: ENDROOT
DOCKED: BRANCH   1   2
DOCKED: ATOM      2  C   UNL     1      18.669  -9.152  -6.027 -0.14 -0.00    +0.000 A 
DOCKED: ATOM      3  C   UNL     1      18.278  -7.976  -5.368 -0.13 -0.00    +0.000 A 
DOCKED: ATOM      4  C   UNL     1      17.052  -7.910  -4.703 -0.12 -0.00    +0.000 A 
DOCKED: ATOM      5  C   UNL     1      16.204  -9.026  -4.675 -0.15 -0.00    +0.000 A 
DOCKED: ATOM      6  C   UNL     1      14.970  -8.970  -4.007 -0.15 -0.00    +0.000 A 
DOCKED: ATOM      7  C   UNL     1      14.128 -10.092  -3.978 -0.20 -0.00    +0.000 A 
DOCKED: ATOM      8  C   UNL     1      14.524 -11.273  -4.625 -0.26 -0.00    +0.000 A 
DOCKED: ATOM      9  C   UNL     1      15.751 -11.338  -5.290 -0.19 -0.00    +0.000 A 
DOCKED: ATOM     10  C   UNL     1      16.597 -10.221  -5.322 -0.20 -0.00    +0.000 A 
DOCKED: ATOM     11  C   UNL     1      17.831 -10.277  -5.988 -0.24 -0.00    +0.000 A 
DOCKED: BRANCH   7  12
DOCKED: ATOM     12  C   UNL     1      12.794 -10.034  -3.280 -0.18 -0.00    +0.000 C 
DOCKED: BRANCH  12  13
DOCKED: ATOM     13  N   UNL     1      12.986 -10.050  -1.814 -0.23 -0.00    +0.000 N 
DOCKED: ATOM     14  H   UNL     1      12.227 -10.591  -1.402 -0.02 -0.00    +0.000 HD
DOCKED: BRANCH  13  15
DOCKED: ATOM     15  C   UNL     1      12.868  -8.690  -1.238 -0.15 -0.00    +0.000 C 
DOCKED: ATOM     16  C   UNL     1      14.206  -8.179  -0.704 -0.23 -0.00    +0.000 C 
DOCKED: ENDBRANCH  13  15
DOCKED: BRANCH  13  17
DOCKED: ATOM     17  C   UNL     1      14.222 -10.772  -1.421 -0.32 -0.00    +0.000 C 
DOCKED: ATOM     18  C   UNL     1      13.983 -11.984  -0.510 -0.43 +0.00    +0.000 C 
DOCKED: ENDBRANCH  13  17
DOCKED: ENDBRANCH  12  13
DOCKED: ENDBRANCH   7  12
DOCKED: ENDBRANCH   1   2
DOCKED: BRANCH   1  19
DOCKED: ATOM     19  O   UNL     1      20.716 -10.360  -6.216 -0.31 -0.00    +0.000 OA
DOCKED: BRANCH  19  21
DOCKED: ATOM     20  O   UNL     1      20.554 -12.114  -4.726 -0.66 -0.00    +0.000 OA
DOCKED: ATOM     21  C   UNL     1      20.529 -10.868  -4.928 -0.48 -0.00    +0.000 C 
DOCKED: ATOM     22  N   UNL     1      20.267  -9.960  -3.851 -0.35 -0.00    +0.000 N 
DOCKED: ATOM     23  H   UNL     1      20.100  -9.015  -4.076 +0.00 -0.00    +0.000 HD
DOCKED: BRANCH  22  24
DOCKED: ATOM     24  C   UNL     1      20.232 -10.334  -2.463 -0.45 -0.00    +0.000 A 
DOCKED: ATOM     25  C   UNL     1      21.359 -10.108  -1.662 -0.55 -0.00    +0.000 A 
DOCKED: ATOM     26  C   UNL     1      21.359 -10.482  -0.315 -0.64 -0.00    +0.000 A 
DOCKED: ATOM     27  C   UNL     1      20.233 -11.098   0.256 -0.58 -0.00    +0.000 A 
DOCKED: ATOM     28  C   UNL     1      19.116 -11.357  -0.558 -0.44 -0.00    +0.000 A 
DOCKED: ATOM     29  C   UNL     1      19.116 -10.982  -1.905 -0.37 -0.00    +0.000 A 
DOCKED: BRANCH  27  30
DOCKED: ATOM     30  C   UNL     1      20.249 -11.494   1.686 -0.77 -0.00    +0.000 C 
DOCKED: ATOM     31  N   UNL     1      20.645 -10.574   2.711 -0.61 -0.00    +0.000 N 
DOCKED: ATOM     32  O   UNL     1      19.923 -12.668   2.009 -1.56 -0.00    +0.000 OA
DOCKED: ATOM     33  H   UNL     1      20.983  -9.682   2.466 -0.57 -0.00    +0.000 HD
DOCKED: BRANCH  31  34
DOCKED: ATOM     34  O   UNL     1      20.554 -10.925   4.016 -0.79 -0.00    +0.000 OA
DOCKED: ATOM     35  H   UNL     1      20.493 -11.891   4.087 -0.39 -0.00    +0.000 HD
DOCKED: ENDBRANCH  31  34
DOCKED: ENDBRANCH  27  30
DOCKED: ENDBRANCH  22  24
DOCKED: ENDBRANCH  19  21
DOCKED: ENDBRANCH   1  19
DOCKED: TORSDOF 10
DOCKED: TER
DOCKED: ENDMDL
________________________________________________________________________________


	BEGINNING GENETIC ALGORITHM DOCKING 54 of 100
Run: 54 Seed: 2131988837 1082258681 [ Run 54 of 100 GA/GALS ]
Beginning LAMARCKIAN GENETIC ALGORITHM (LGA), with a maximum of 2500000 energy evaluations.

Final-Value: -15.539


	FINAL GENETIC ALGORITHM DOCKED STATE
	_______________________________________________


Detailed state:  trans 19.707 -11.523 1.000 quatxyzw -0.352471 0.060232 -0.162516 -0.919633 center 1.858 0.218 -0.021 ntor 10 -162.2156 -166.3556 7.8282 -78.0702 153.4963 -57.1242 -61.9185 85.3197 110.7953 -101.7702
State:	 19.707 -11.523   1.000  -0.897  0.153 -0.414 -46.255   -162.22 -166.36    7.83  -78.07  153.50  -57.12  -61.92   85.32  110.80 -101.77

DOCKED: MODEL       54
DOCKED: USER    Run = 54
DOCKED: USER    DPF = ligand_dock.biased.dpf
DOCKED: USER  
DOCKED: USER    Estimated Free Energy of Binding    =  -10.17 kcal/mol  [=(1)+(2)+(3)-(4)]
DOCKED: USER    Estimated Inhibition Constant, Ki   =   35.24 nM (nanomolar)  [Temperature = 298.15 K]
DOCKED: USER    
DOCKED: USER    (1) Final Intermolecular Energy     =  -13.15 kcal/mol
DOCKED: USER        vdW + Hbond + desolv Energy     =  -13.15 kcal/mol
DOCKED: USER        Electrostatic Energy            =   +0.00 kcal/mol
DOCKED: USER    (2) Final Total Internal Energy     =   -2.39 kcal/mol
DOCKED: USER    (3) Torsional Free Energy           =   +2.98 kcal/mol
DOCKED: USER    (4) Unbound System's Energy  [=(2)] =   -2.39 kcal/mol
DOCKED: USER    
DOCKED: USER    
DOCKED: USER    NEWDPF move ligand.pdbqt
DOCKED: USER    NEWDPF about 1.858000 0.218000 -0.021000
DOCKED: USER    NEWDPF tran0 19.706745 -11.523160 0.999725
DOCKED: USER    NEWDPF quaternion0 -0.352471 0.060232 -0.162516 -0.919633
DOCKED: USER    NEWDPF axisangle0 -0.897378 0.153348 -0.413759 -46.254985
DOCKED: USER    NEWDPF quat0 -0.897378 0.153348 -0.413759 -46.254985
DOCKED: USER    NEWDPF dihe0 -162.22 -166.36 7.83 -78.07 153.50 -57.12 -61.92 85.32 110.80 -101.77 
DOCKED: USER  keepresnum = 1 
DOCKED: USER  
DOCKED: REMARK  Name = 
DOCKED: REMARK  12 active torsions:
DOCKED: REMARK  status: ('A' for Active; 'I' for Inactive)
DOCKED: REMARK    1  A    between atoms: C_2  and  O_3
DOCKED: REMARK    2  A    between atoms: O_3  and  C_4
DOCKED: REMARK    3  A    between atoms: C_4  and  C_5
DOCKED: REMARK    4  A    between atoms: C_10  and  C_11
DOCKED: REMARK    5  A    between atoms: C_11  and  N_12
DOCKED: REMARK    6  A    between atoms: N_12  and  C_13
DOCKED: REMARK    7  A    between atoms: N_12  and  C_15
DOCKED: REMARK    8  A    between atoms: C_13  and  C_14
DOCKED: REMARK    9  A    between atoms: C_15  and  C_16
DOCKED: REMARK   10  A    between atoms: N_21  and  C_22
DOCKED: REMARK   11  A    between atoms: C_25  and  C_26
DOCKED: REMARK   12  A    between atoms: N_27  and  O_28
DOCKED: REMARK                            x       y       z     vdW  Elec       q    Type
DOCKED: REMARK                         _______ _______ _______ _____ _____    ______ ____
DOCKED: USER                              x       y       z     vdW  Elec       q    Type
DOCKED: USER                           _______ _______ _______ _____ _____    ______ ____
DOCKED: ROOT
DOCKED: ATOM      1  C   UNL     1      19.728 -10.986   2.555 -0.72 -0.00    +0.000 C 
DOCKED: ENDROOT
DOCKED: BRANCH   1   2
DOCKED: ATOM      2  C   UNL     1      18.265 -10.910   2.233 -0.49 -0.00    +0.000 A 
DOCKED: ATOM      3  C   UNL     1      17.459  -9.933   2.836 -0.41 +0.00    +0.000 A 
DOCKED: ATOM      4  C   UNL     1      16.089  -9.879   2.567 -0.37 +0.00    +0.000 A 
DOCKED: ATOM      5  C   UNL     1      15.503 -10.814   1.701 -0.34 +0.00    +0.000 A 
DOCKED: ATOM      6  C   UNL     1      14.127 -10.768   1.426 -0.30 +0.00    +0.000 A 
DOCKED: ATOM      7  C   UNL     1      13.545 -11.710   0.562 -0.38 +0.00    +0.000 A 
DOCKED: ATOM      8  C   UNL     1      14.349 -12.696  -0.030 -0.36 +0.00    +0.000 A 
DOCKED: ATOM      9  C   UNL     1      15.718 -12.749   0.239 -0.48 +0.00    +0.000 A 
DOCKED: ATOM     10  C   UNL     1      16.306 -11.813   1.102 -0.41 +0.00    +0.000 A 
DOCKED: ATOM     11  C   UNL     1      17.681 -11.858   1.377 -0.43 +0.00    +0.000 A 
DOCKED: BRANCH   7  12
DOCKED: ATOM     12  C   UNL     1      12.073 -11.656   0.247 -0.36 +0.00    +0.000 C 
DOCKED: BRANCH  12  13
DOCKED: ATOM     13  N   UNL     1      11.708 -10.315  -0.255 -0.23 +0.00    +0.000 N 
DOCKED: ATOM     14  H   UNL     1      12.180  -9.621   0.324 +0.00 +0.00    +0.000 HD
DOCKED: BRANCH  13  15
DOCKED: ATOM     15  C   UNL     1      10.259 -10.052  -0.094 -0.20 +0.00    +0.000 C 
DOCKED: ATOM     16  C   UNL     1       9.549 -11.193   0.633 -0.33 +0.00    +0.000 C 
DOCKED: ENDBRANCH  13  15
DOCKED: BRANCH  13  17
DOCKED: ATOM     17  C   UNL     1      12.221 -10.074  -1.628 -0.23 -0.00    +0.000 C 
DOCKED: ATOM     18  C   UNL     1      13.512  -9.245  -1.683 -0.20 -0.00    +0.000 C 
DOCKED: ENDBRANCH  13  17
DOCKED: ENDBRANCH  12  13
DOCKED: ENDBRANCH   7  12
DOCKED: ENDBRANCH   1   2
DOCKED: BRANCH   1  19
DOCKED: ATOM     19  O   UNL     1      20.402 -11.685   1.513 -1.43 -0.00    +0.000 OA
DOCKED: BRANCH  19  21
DOCKED: ATOM     20  O   UNL     1      21.780 -10.409   0.173 -0.73 -0.00    +0.000 OA
DOCKED: ATOM     21  C   UNL     1      20.724 -11.091   0.291 -0.65 -0.00    +0.000 C 
DOCKED: ATOM     22  N   UNL     1      19.818 -11.230  -0.812 -0.46 -0.00    +0.000 N 
DOCKED: ATOM     23  H   UNL     1      18.937 -11.633  -0.635 -0.02 -0.00    +0.000 HD
DOCKED: BRANCH  22  24
DOCKED: ATOM     24  C   UNL     1      20.110 -10.822  -2.159 -0.38 -0.00    +0.000 A 
DOCKED: ATOM     25  C   UNL     1      19.513 -11.503  -3.228 -0.17 -0.00    +0.000 A 
DOCKED: ATOM     26  C   UNL     1      19.796 -11.141  -4.548 -0.43 -0.00    +0.000 A 
DOCKED: ATOM     27  C   UNL     1      20.691 -10.093  -4.826 -0.35 -0.00    +0.000 A 
DOCKED: ATOM     28  C   UNL     1      21.316  -9.433  -3.753 -0.39 -0.00    +0.000 A 
DOCKED: ATOM     29  C   UNL     1      21.032  -9.796  -2.432 -0.50 -0.00    +0.000 A 
DOCKED: BRANCH  27  30
DOCKED: ATOM     30  C   UNL     1      20.985  -9.722  -6.232 -0.28 -0.00    +0.000 C 
DOCKED: ATOM     31  N   UNL     1      21.340 -10.710  -7.206 -0.29 -0.00    +0.000 N 
DOCKED: ATOM     32  O   UNL     1      20.937  -8.510  -6.577 -0.14 -0.00    +0.000 OA
DOCKED: ATOM     33  H   UNL     1      21.464 -11.647  -6.932 -0.45 -0.00    +0.000 HD
DOCKED: BRANCH  31  34
DOCKED: ATOM     34  O   UNL     1      21.505 -10.361  -8.505 -0.24 -0.00    +0.000 OA
DOCKED: ATOM     35  H   UNL     1      21.469  -9.395  -8.587 +0.00 -0.00    +0.000 HD
DOCKED: ENDBRANCH  31  34
DOCKED: ENDBRANCH  27  30
DOCKED: ENDBRANCH  22  24
DOCKED: ENDBRANCH  19  21
DOCKED: ENDBRANCH   1  19
DOCKED: TORSDOF 10
DOCKED: TER
DOCKED: ENDMDL
________________________________________________________________________________


	BEGINNING GENETIC ALGORITHM DOCKING 55 of 100
Run: 55 Seed: 1998422009 2088832578 [ Run 55 of 100 GA/GALS ]
Beginning LAMARCKIAN GENETIC ALGORITHM (LGA), with a maximum of 2500000 energy evaluations.

Final-Value: -14.875


	FINAL GENETIC ALGORITHM DOCKED STATE
	_______________________________________________


Detailed state:  trans 18.953 -10.184 -5.728 quatxyzw -0.178607 -0.687993 -0.684570 -0.161644 center 1.858 0.218 -0.021 ntor 10 -120.6272 111.1574 8.3595 -172.5560 153.1987 175.7400 171.7545 107.9025 41.7263 -76.7956
State:	 18.953 -10.184  -5.728  -0.181 -0.697 -0.694 -161.395   -120.63  111.16    8.36 -172.56  153.20  175.74  171.75  107.90   41.73  -76.80

DOCKED: MODEL       55
DOCKED: USER    Run = 55
DOCKED: USER    DPF = ligand_dock.biased.dpf
DOCKED: USER  
DOCKED: USER    Estimated Free Energy of Binding    =   -9.76 kcal/mol  [=(1)+(2)+(3)-(4)]
DOCKED: USER    Estimated Inhibition Constant, Ki   =   69.80 nM (nanomolar)  [Temperature = 298.15 K]
DOCKED: USER    
DOCKED: USER    (1) Final Intermolecular Energy     =  -12.75 kcal/mol
DOCKED: USER        vdW + Hbond + desolv Energy     =  -12.75 kcal/mol
DOCKED: USER        Electrostatic Energy            =   +0.00 kcal/mol
DOCKED: USER    (2) Final Total Internal Energy     =   -2.13 kcal/mol
DOCKED: USER    (3) Torsional Free Energy           =   +2.98 kcal/mol
DOCKED: USER    (4) Unbound System's Energy  [=(2)] =   -2.13 kcal/mol
DOCKED: USER    
DOCKED: USER    
DOCKED: USER    NEWDPF move ligand.pdbqt
DOCKED: USER    NEWDPF about 1.858000 0.218000 -0.021000
DOCKED: USER    NEWDPF tran0 18.952614 -10.184285 -5.727800
DOCKED: USER    NEWDPF quaternion0 -0.178607 -0.687993 -0.684570 -0.161644
DOCKED: USER    NEWDPF axisangle0 -0.180987 -0.697161 -0.693693 -161.395359
DOCKED: USER    NEWDPF quat0 -0.180987 -0.697161 -0.693693 -161.395359
DOCKED: USER    NEWDPF dihe0 -120.63 111.16 8.36 -172.56 153.20 175.74 171.75 107.90 41.73 -76.80 
DOCKED: USER  keepresnum = 1 
DOCKED: USER  
DOCKED: REMARK  Name = 
DOCKED: REMARK  12 active torsions:
DOCKED: REMARK  status: ('A' for Active; 'I' for Inactive)
DOCKED: REMARK    1  A    between atoms: C_2  and  O_3
DOCKED: REMARK    2  A    between atoms: O_3  and  C_4
DOCKED: REMARK    3  A    between atoms: C_4  and  C_5
DOCKED: REMARK    4  A    between atoms: C_10  and  C_11
DOCKED: REMARK    5  A    between atoms: C_11  and  N_12
DOCKED: REMARK    6  A    between atoms: N_12  and  C_13
DOCKED: REMARK    7  A    between atoms: N_12  and  C_15
DOCKED: REMARK    8  A    between atoms: C_13  and  C_14
DOCKED: REMARK    9  A    between atoms: C_15  and  C_16
DOCKED: REMARK   10  A    between atoms: N_21  and  C_22
DOCKED: REMARK   11  A    between atoms: C_25  and  C_26
DOCKED: REMARK   12  A    between atoms: N_27  and  O_28
DOCKED: REMARK                            x       y       z     vdW  Elec       q    Type
DOCKED: REMARK                         _______ _______ _______ _____ _____    ______ ____
DOCKED: USER                              x       y       z     vdW  Elec       q    Type
DOCKED: USER                           _______ _______ _______ _____ _____    ______ ____
DOCKED: ROOT
DOCKED: ATOM      1  C   UNL     1      18.817  -8.688  -6.399 -0.13 -0.00    +0.000 C 
DOCKED: ENDROOT
DOCKED: BRANCH   1   2
DOCKED: ATOM      2  C   UNL     1      19.996  -9.244  -7.143 -0.14 -0.00    +0.000 A 
DOCKED: ATOM      3  C   UNL     1      20.163  -8.968  -8.508 -0.10 -0.00    +0.000 A 
DOCKED: ATOM      4  C   UNL     1      21.238  -9.512  -9.215 -0.12 -0.00    +0.000 A 
DOCKED: ATOM      5  C   UNL     1      22.155 -10.352  -8.567 -0.21 -0.00    +0.000 A 
DOCKED: ATOM      6  C   UNL     1      23.238 -10.904  -9.270 -0.20 -0.00    +0.000 A 
DOCKED: ATOM      7  C   UNL     1      24.150 -11.749  -8.617 -0.38 -0.00    +0.000 A 
DOCKED: ATOM      8  C   UNL     1      23.975 -12.036  -7.254 -0.39 -0.00    +0.000 A 
DOCKED: ATOM      9  C   UNL     1      22.900 -11.492  -6.548 -0.40 -0.00    +0.000 A 
DOCKED: ATOM     10  C   UNL     1      21.985 -10.649  -7.194 -0.31 -0.00    +0.000 A 
DOCKED: ATOM     11  C   UNL     1      20.902 -10.097  -6.493 -0.26 -0.00    +0.000 A 
DOCKED: BRANCH   7  12
DOCKED: ATOM     12  C   UNL     1      25.326 -12.330  -9.359 -0.38 -0.00    +0.000 C 
DOCKED: BRANCH  12  13
DOCKED: ATOM     13  N   UNL     1      24.869 -13.387 -10.285 -0.35 -0.00    +0.000 N 
DOCKED: ATOM     14  H   UNL     1      25.522 -14.168 -10.221 -0.44 -0.00    +0.000 HD
DOCKED: BRANCH  13  15
DOCKED: ATOM     15  C   UNL     1      24.926 -12.933 -11.695 -0.19 -0.00    +0.000 C 
DOCKED: ATOM     16  C   UNL     1      26.240 -12.222 -12.013 -0.15 -0.00    +0.000 C 
DOCKED: ENDBRANCH  13  15
DOCKED: BRANCH  13  17
DOCKED: ATOM     17  C   UNL     1      23.558 -13.955  -9.882 -0.42 -0.00    +0.000 C 
DOCKED: ATOM     18  C   UNL     1      23.013 -15.025 -10.839 -0.50 +0.00    +0.000 C 
DOCKED: ENDBRANCH  13  17
DOCKED: ENDBRANCH  12  13
DOCKED: ENDBRANCH   7  12
DOCKED: ENDBRANCH   1   2
DOCKED: BRANCH   1  19
DOCKED: ATOM     19  O   UNL     1      18.204  -9.730  -5.646 -0.19 -0.00    +0.000 OA
DOCKED: BRANCH  19  21
DOCKED: ATOM     20  O   UNL     1      17.433  -9.573  -3.477 -0.27 -0.00    +0.000 OA
DOCKED: ATOM     21  C   UNL     1      18.374  -9.865  -4.266 -0.28 -0.00    +0.000 C 
DOCKED: ATOM     22  N   UNL     1      19.643 -10.296  -3.759 -0.34 -0.00    +0.000 N 
DOCKED: ATOM     23  H   UNL     1      20.394 -10.361  -4.393 -0.00 -0.00    +0.000 HD
DOCKED: BRANCH  22  24
DOCKED: ATOM     24  C   UNL     1      19.894 -10.642  -2.386 -0.41 -0.00    +0.000 A 
DOCKED: ATOM     25  C   UNL     1      18.829 -11.059  -1.577 -0.37 -0.00    +0.000 A 
DOCKED: ATOM     26  C   UNL     1      19.041 -11.380  -0.233 -0.47 -0.00    +0.000 A 
DOCKED: ATOM     27  C   UNL     1      20.325 -11.282   0.332 -0.57 -0.00    +0.000 A 
DOCKED: ATOM     28  C   UNL     1      21.386 -10.829  -0.472 -0.52 -0.00    +0.000 A 
DOCKED: ATOM     29  C   UNL     1      21.173 -10.508  -1.817 -0.52 -0.00    +0.000 A 
DOCKED: BRANCH  27  30
DOCKED: ATOM     30  C   UNL     1      20.534 -11.622   1.760 -0.78 -0.00    +0.000 C 
DOCKED: ATOM     31  N   UNL     1      19.696 -11.080   2.788 -0.65 -0.00    +0.000 N 
DOCKED: ATOM     32  O   UNL     1      21.478 -12.393   2.083 -0.96 -0.00    +0.000 OA
DOCKED: ATOM     33  H   UNL     1      19.010 -10.411   2.560 -0.04 -0.00    +0.000 HD
DOCKED: BRANCH  31  34
DOCKED: ATOM     34  O   UNL     1      19.842 -11.483   4.073 -0.80 -0.00    +0.000 OA
DOCKED: ATOM     35  H   UNL     1      20.635 -12.036   4.150 -0.51 -0.00    +0.000 HD
DOCKED: ENDBRANCH  31  34
DOCKED: ENDBRANCH  27  30
DOCKED: ENDBRANCH  22  24
DOCKED: ENDBRANCH  19  21
DOCKED: ENDBRANCH   1  19
DOCKED: TORSDOF 10
DOCKED: TER
DOCKED: ENDMDL
________________________________________________________________________________


	BEGINNING GENETIC ALGORITHM DOCKING 56 of 100
Run: 56 Seed: 1721155824 308917008 [ Run 56 of 100 GA/GALS ]
Beginning LAMARCKIAN GENETIC ALGORITHM (LGA), with a maximum of 2500000 energy evaluations.

Final-Value: -16.424


	FINAL GENETIC ALGORITHM DOCKED STATE
	_______________________________________________


Detailed state:  trans 19.998 -10.621 2.217 quatxyzw 0.009079 0.128530 0.148591 0.980468 center 1.858 0.218 -0.021 ntor 10 66.3612 -109.4921 8.8219 146.2882 180.0000 -11.7852 -174.0897 -72.5778 154.6533 158.0362
State:	 19.998 -10.621   2.217   0.046  0.654  0.756 22.685     66.36 -109.49    8.82  146.29  180.00  -11.79 -174.09  -72.58  154.65  158.04

DOCKED: MODEL       56
DOCKED: USER    Run = 56
DOCKED: USER    DPF = ligand_dock.biased.dpf
DOCKED: USER  
DOCKED: USER    Estimated Free Energy of Binding    =  -10.62 kcal/mol  [=(1)+(2)+(3)-(4)]
DOCKED: USER    Estimated Inhibition Constant, Ki   =   16.33 nM (nanomolar)  [Temperature = 298.15 K]
DOCKED: USER    
DOCKED: USER    (1) Final Intermolecular Energy     =  -13.61 kcal/mol
DOCKED: USER        vdW + Hbond + desolv Energy     =  -13.61 kcal/mol
DOCKED: USER        Electrostatic Energy            =   +0.00 kcal/mol
DOCKED: USER    (2) Final Total Internal Energy     =   -2.82 kcal/mol
DOCKED: USER    (3) Torsional Free Energy           =   +2.98 kcal/mol
DOCKED: USER    (4) Unbound System's Energy  [=(2)] =   -2.82 kcal/mol
DOCKED: USER    
DOCKED: USER    
DOCKED: USER    NEWDPF move ligand.pdbqt
DOCKED: USER    NEWDPF about 1.858000 0.218000 -0.021000
DOCKED: USER    NEWDPF tran0 19.997559 -10.620725 2.217220
DOCKED: USER    NEWDPF quaternion0 0.009079 0.128530 0.148591 0.980468
DOCKED: USER    NEWDPF axisangle0 0.046160 0.653510 0.755509 22.685352
DOCKED: USER    NEWDPF quat0 0.046160 0.653510 0.755509 22.685352
DOCKED: USER    NEWDPF dihe0 66.36 -109.49 8.82 146.29 180.00 -11.79 -174.09 -72.58 154.65 158.04 
DOCKED: USER  keepresnum = 1 
DOCKED: USER  
DOCKED: REMARK  Name = 
DOCKED: REMARK  12 active torsions:
DOCKED: REMARK  status: ('A' for Active; 'I' for Inactive)
DOCKED: REMARK    1  A    between atoms: C_2  and  O_3
DOCKED: REMARK    2  A    between atoms: O_3  and  C_4
DOCKED: REMARK    3  A    between atoms: C_4  and  C_5
DOCKED: REMARK    4  A    between atoms: C_10  and  C_11
DOCKED: REMARK    5  A    between atoms: C_11  and  N_12
DOCKED: REMARK    6  A    between atoms: N_12  and  C_13
DOCKED: REMARK    7  A    between atoms: N_12  and  C_15
DOCKED: REMARK    8  A    between atoms: C_13  and  C_14
DOCKED: REMARK    9  A    between atoms: C_15  and  C_16
DOCKED: REMARK   10  A    between atoms: N_21  and  C_22
DOCKED: REMARK   11  A    between atoms: C_25  and  C_26
DOCKED: REMARK   12  A    between atoms: N_27  and  O_28
DOCKED: REMARK                            x       y       z     vdW  Elec       q    Type
DOCKED: REMARK                         _______ _______ _______ _____ _____    ______ ____
DOCKED: USER                              x       y       z     vdW  Elec       q    Type
DOCKED: USER                           _______ _______ _______ _____ _____    ______ ____
DOCKED: ROOT
DOCKED: ATOM      1  C   UNL     1      19.285 -11.120   3.614 -0.54 -0.00    +0.000 C 
DOCKED: ENDROOT
DOCKED: BRANCH   1   2
DOCKED: ATOM      2  C   UNL     1      18.089 -10.846   2.750 -0.48 -0.00    +0.000 A 
DOCKED: ATOM      3  C   UNL     1      17.311  -9.699   2.964 -0.33 +0.00    +0.000 A 
DOCKED: ATOM      4  C   UNL     1      16.176  -9.456   2.187 -0.32 +0.00    +0.000 A 
DOCKED: ATOM      5  C   UNL     1      15.796 -10.368   1.191 -0.30 +0.00    +0.000 A 
DOCKED: ATOM      6  C   UNL     1      14.656 -10.133   0.406 -0.23 +0.00    +0.000 A 
DOCKED: ATOM      7  C   UNL     1      14.277 -11.051  -0.586 -0.30 +0.00    +0.000 A 
DOCKED: ATOM      8  C   UNL     1      15.048 -12.207  -0.792 -0.41 +0.00    +0.000 A 
DOCKED: ATOM      9  C   UNL     1      16.182 -12.448  -0.014 -0.47 +0.00    +0.000 A 
DOCKED: ATOM     10  C   UNL     1      16.566 -11.536   0.979 -0.39 +0.00    +0.000 A 
DOCKED: ATOM     11  C   UNL     1      17.704 -11.770   1.765 -0.34 +0.00    +0.000 A 
DOCKED: BRANCH   7  12
DOCKED: ATOM     12  C   UNL     1      13.067 -10.798  -1.446 -0.29 -0.00    +0.000 C 
DOCKED: BRANCH  12  13
DOCKED: ATOM     13  N   UNL     1      13.479 -10.251  -2.757 -0.23 -0.00    +0.000 N 
DOCKED: ATOM     14  H   UNL     1      12.638 -10.069  -3.303 -0.01 -0.00    +0.000 HD
DOCKED: BRANCH  13  15
DOCKED: ATOM     15  C   UNL     1      14.256 -11.244  -3.537 -0.31 -0.00    +0.000 C 
DOCKED: ATOM     16  C   UNL     1      15.588 -10.673  -4.020 -0.22 -0.00    +0.000 C 
DOCKED: ENDBRANCH  13  15
DOCKED: BRANCH  13  17
DOCKED: ATOM     17  C   UNL     1      14.141  -8.929  -2.626 -0.19 -0.00    +0.000 C 
DOCKED: ATOM     18  C   UNL     1      13.457  -7.975  -1.636 -0.17 -0.00    +0.000 C 
DOCKED: ENDBRANCH  13  17
DOCKED: ENDBRANCH  12  13
DOCKED: ENDBRANCH   7  12
DOCKED: ENDBRANCH   1   2
DOCKED: BRANCH   1  19
DOCKED: ATOM     19  O   UNL     1      20.463 -11.067   2.815 -0.94 -0.00    +0.000 OA
DOCKED: BRANCH  19  21
DOCKED: ATOM     20  O   UNL     1      20.266 -12.395   0.938 -1.23 -0.00    +0.000 OA
DOCKED: ATOM     21  C   UNL     1      20.444 -11.246   1.430 -0.74 -0.00    +0.000 C 
DOCKED: ATOM     22  N   UNL     1      20.671 -10.116   0.578 -0.61 -0.00    +0.000 N 
DOCKED: ATOM     23  H   UNL     1      20.961  -9.274   0.999 -0.42 -0.00    +0.000 HD
DOCKED: BRANCH  22  24
DOCKED: ATOM     24  C   UNL     1      20.505 -10.128  -0.850 -0.55 -0.00    +0.000 A 
DOCKED: ATOM     25  C   UNL     1      19.440 -10.847  -1.411 -0.41 -0.00    +0.000 A 
DOCKED: ATOM     26  C   UNL     1      19.268 -10.894  -2.797 -0.37 -0.00    +0.000 A 
DOCKED: ATOM     27  C   UNL     1      20.163 -10.228  -3.652 -0.39 -0.00    +0.000 A 
DOCKED: ATOM     28  C   UNL     1      21.251  -9.537  -3.090 -0.44 -0.00    +0.000 A 
DOCKED: ATOM     29  C   UNL     1      21.422  -9.490  -1.703 -0.49 -0.00    +0.000 A 
DOCKED: BRANCH  27  30
DOCKED: ATOM     30  C   UNL     1      19.970 -10.290  -5.122 -0.36 -0.00    +0.000 C 
DOCKED: ATOM     31  N   UNL     1      19.228 -11.352  -5.734 -0.40 -0.00    +0.000 N 
DOCKED: ATOM     32  O   UNL     1      20.481  -9.399  -5.854 -0.21 -0.00    +0.000 OA
DOCKED: ATOM     33  H   UNL     1      18.896 -12.099  -5.184 -0.07 -0.00    +0.000 HD
DOCKED: BRANCH  31  34
DOCKED: ATOM     34  O   UNL     1      18.979 -11.333  -7.065 -0.39 -0.00    +0.000 OA
DOCKED: ATOM     35  H   UNL     1      19.484 -10.615  -7.478 -0.02 -0.00    +0.000 HD
DOCKED: ENDBRANCH  31  34
DOCKED: ENDBRANCH  27  30
DOCKED: ENDBRANCH  22  24
DOCKED: ENDBRANCH  19  21
DOCKED: ENDBRANCH   1  19
DOCKED: TORSDOF 10
DOCKED: TER
DOCKED: ENDMDL
________________________________________________________________________________


	BEGINNING GENETIC ALGORITHM DOCKING 57 of 100
Run: 57 Seed: 908050271 2089548110 [ Run 57 of 100 GA/GALS ]
Beginning LAMARCKIAN GENETIC ALGORITHM (LGA), with a maximum of 2500000 energy evaluations.

Final-Value: -15.680


	FINAL GENETIC ALGORITHM DOCKED STATE
	_______________________________________________


Detailed state:  trans 20.163 -10.210 1.586 quatxyzw 0.495027 0.161641 -0.007608 -0.853676 center 1.858 0.218 -0.021 ntor 10 147.4624 -167.6808 -2.6752 -67.6749 -74.7675 -32.2528 174.4437 -165.3197 -162.3060 96.6331
State:	 20.163 -10.210   1.586   0.951  0.310 -0.015 -62.772    147.46 -167.68   -2.68  -67.67  -74.77  -32.25  174.44 -165.32 -162.31   96.63

DOCKED: MODEL       57
DOCKED: USER    Run = 57
DOCKED: USER    DPF = ligand_dock.biased.dpf
DOCKED: USER  
DOCKED: USER    Estimated Free Energy of Binding    =  -10.36 kcal/mol  [=(1)+(2)+(3)-(4)]
DOCKED: USER    Estimated Inhibition Constant, Ki   =   25.41 nM (nanomolar)  [Temperature = 298.15 K]
DOCKED: USER    
DOCKED: USER    (1) Final Intermolecular Energy     =  -13.34 kcal/mol
DOCKED: USER        vdW + Hbond + desolv Energy     =  -13.34 kcal/mol
DOCKED: USER        Electrostatic Energy            =   +0.00 kcal/mol
DOCKED: USER    (2) Final Total Internal Energy     =   -2.34 kcal/mol
DOCKED: USER    (3) Torsional Free Energy           =   +2.98 kcal/mol
DOCKED: USER    (4) Unbound System's Energy  [=(2)] =   -2.34 kcal/mol
DOCKED: USER    
DOCKED: USER    
DOCKED: USER    NEWDPF move ligand.pdbqt
DOCKED: USER    NEWDPF about 1.858000 0.218000 -0.021000
DOCKED: USER    NEWDPF tran0 20.162796 -10.210470 1.586164
DOCKED: USER    NEWDPF quaternion0 0.495027 0.161641 -0.007608 -0.853676
DOCKED: USER    NEWDPF axisangle0 0.950504 0.310369 -0.014608 -62.772484
DOCKED: USER    NEWDPF quat0 0.950504 0.310369 -0.014608 -62.772484
DOCKED: USER    NEWDPF dihe0 147.46 -167.68 -2.68 -67.67 -74.77 -32.25 174.44 -165.32 -162.31 96.63 
DOCKED: USER  keepresnum = 1 
DOCKED: USER  
DOCKED: REMARK  Name = 
DOCKED: REMARK  12 active torsions:
DOCKED: REMARK  status: ('A' for Active; 'I' for Inactive)
DOCKED: REMARK    1  A    between atoms: C_2  and  O_3
DOCKED: REMARK    2  A    between atoms: O_3  and  C_4
DOCKED: REMARK    3  A    between atoms: C_4  and  C_5
DOCKED: REMARK    4  A    between atoms: C_10  and  C_11
DOCKED: REMARK    5  A    between atoms: C_11  and  N_12
DOCKED: REMARK    6  A    between atoms: N_12  and  C_13
DOCKED: REMARK    7  A    between atoms: N_12  and  C_15
DOCKED: REMARK    8  A    between atoms: C_13  and  C_14
DOCKED: REMARK    9  A    between atoms: C_15  and  C_16
DOCKED: REMARK   10  A    between atoms: N_21  and  C_22
DOCKED: REMARK   11  A    between atoms: C_25  and  C_26
DOCKED: REMARK   12  A    between atoms: N_27  and  O_28
DOCKED: REMARK                            x       y       z     vdW  Elec       q    Type
DOCKED: REMARK                         _______ _______ _______ _____ _____    ______ ____
DOCKED: USER                              x       y       z     vdW  Elec       q    Type
DOCKED: USER                           _______ _______ _______ _____ _____    ______ ____
DOCKED: ROOT
DOCKED: ATOM      1  C   UNL     1      20.303 -11.840   1.763 -0.78 -0.00    +0.000 C 
DOCKED: ENDROOT
DOCKED: BRANCH   1   2
DOCKED: ATOM      2  C   UNL     1      18.815 -11.659   1.831 -0.54 -0.00    +0.000 A 
DOCKED: ATOM      3  C   UNL     1      18.243 -10.894   2.860 -0.49 -0.00    +0.000 A 
DOCKED: ATOM      4  C   UNL     1      16.857 -10.751   2.950 -0.44 +0.00    +0.000 A 
DOCKED: ATOM      5  C   UNL     1      16.020 -11.383   2.019 -0.40 +0.00    +0.000 A 
DOCKED: ATOM      6  C   UNL     1      14.626 -11.246   2.102 -0.40 +0.00    +0.000 A 
DOCKED: ATOM      7  C   UNL     1      13.793 -11.886   1.170 -0.40 +0.00    +0.000 A 
DOCKED: ATOM      8  C   UNL     1      14.364 -12.662   0.150 -0.36 +0.00    +0.000 A 
DOCKED: ATOM      9  C   UNL     1      15.751 -12.805   0.060 -0.49 +0.00    +0.000 A 
DOCKED: ATOM     10  C   UNL     1      16.588 -12.170   0.988 -0.43 +0.00    +0.000 A 
DOCKED: ATOM     11  C   UNL     1      17.982 -12.307   0.906 -0.49 -0.00    +0.000 A 
DOCKED: BRANCH   7  12
DOCKED: ATOM     12  C   UNL     1      12.297 -11.728   1.241 -0.44 +0.00    +0.000 C 
DOCKED: BRANCH  12  13
DOCKED: ATOM     13  N   UNL     1      11.894 -10.429   0.661 -0.24 +0.00    +0.000 N 
DOCKED: ATOM     14  H   UNL     1      12.637  -9.756   0.846 +0.00 +0.00    +0.000 HD
DOCKED: BRANCH  13  15
DOCKED: ATOM     15  C   UNL     1      10.687  -9.888   1.329 -0.19 +0.00    +0.000 C 
DOCKED: ATOM     16  C   UNL     1       9.601 -10.951   1.494 -0.30 +0.00    +0.000 C 
DOCKED: ENDBRANCH  13  15
DOCKED: BRANCH  13  17
DOCKED: ATOM     17  C   UNL     1      11.794 -10.487  -0.820 -0.25 +0.00    +0.000 C 
DOCKED: ATOM     18  C   UNL     1      13.003  -9.893  -1.557 -0.24 -0.00    +0.000 C 
DOCKED: ENDBRANCH  13  17
DOCKED: ENDBRANCH  12  13
DOCKED: ENDBRANCH   7  12
DOCKED: ENDBRANCH   1   2
DOCKED: BRANCH   1  19
DOCKED: ATOM     19  O   UNL     1      20.906 -10.618   1.350 -0.79 -0.00    +0.000 OA
DOCKED: BRANCH  19  21
DOCKED: ATOM     20  O   UNL     1      21.769  -9.291  -0.329 -0.70 -0.00    +0.000 OA
DOCKED: ATOM     21  C   UNL     1      21.012 -10.244   0.008 -0.70 -0.00    +0.000 C 
DOCKED: ATOM     22  N   UNL     1      20.218 -10.927  -0.971 -0.50 -0.00    +0.000 N 
DOCKED: ATOM     23  H   UNL     1      19.529 -11.552  -0.649 -0.02 -0.00    +0.000 HD
DOCKED: BRANCH  22  24
DOCKED: ATOM     24  C   UNL     1      20.362 -10.761  -2.392 -0.39 -0.00    +0.000 A 
DOCKED: ATOM     25  C   UNL     1      21.604 -10.378  -2.917 -0.40 -0.00    +0.000 A 
DOCKED: ATOM     26  C   UNL     1      21.765 -10.189  -4.292 -0.38 -0.00    +0.000 A 
DOCKED: ATOM     27  C   UNL     1      20.683 -10.370  -5.171 -0.36 -0.00    +0.000 A 
DOCKED: ATOM     28  C   UNL     1      19.429 -10.719  -4.639 -0.37 -0.00    +0.000 A 
DOCKED: ATOM     29  C   UNL     1      19.269 -10.909  -3.263 -0.36 -0.00    +0.000 A 
DOCKED: BRANCH  27  30
DOCKED: ATOM     30  C   UNL     1      20.868 -10.161  -6.628 -0.30 -0.00    +0.000 C 
DOCKED: ATOM     31  N   UNL     1      21.414 -11.187  -7.466 -0.21 -0.00    +0.000 N 
DOCKED: ATOM     32  O   UNL     1      20.553  -9.054  -7.141 -0.14 -0.00    +0.000 OA
DOCKED: ATOM     33  H   UNL     1      21.743 -12.024  -7.066 -0.55 -0.00    +0.000 HD
DOCKED: BRANCH  31  34
DOCKED: ATOM     34  O   UNL     1      21.479 -11.010  -8.808 -0.29 -0.00    +0.000 OA
DOCKED: ATOM     35  H   UNL     1      21.078 -10.159  -9.041 -0.01 -0.00    +0.000 HD
DOCKED: ENDBRANCH  31  34
DOCKED: ENDBRANCH  27  30
DOCKED: ENDBRANCH  22  24
DOCKED: ENDBRANCH  19  21
DOCKED: ENDBRANCH   1  19
DOCKED: TORSDOF 10
DOCKED: TER
DOCKED: ENDMDL
________________________________________________________________________________


	BEGINNING GENETIC ALGORITHM DOCKING 58 of 100
Run: 58 Seed: 325300413 206351762 [ Run 58 of 100 GA/GALS ]
Beginning LAMARCKIAN GENETIC ALGORITHM (LGA), with a maximum of 2500000 energy evaluations.

Final-Value: -15.838


	FINAL GENETIC ALGORITHM DOCKED STATE
	_______________________________________________


Detailed state:  trans 21.643 -9.332 -5.425 quatxyzw 0.932955 0.297961 0.056140 0.194070 center 1.858 0.218 -0.021 ntor 10 72.2276 -142.5214 50.0903 169.8909 -125.3557 -171.3441 -117.9294 100.2510 179.8479 171.3033
State:	 21.643  -9.332  -5.425   0.951  0.304  0.057 157.619     72.23 -142.52   50.09  169.89 -125.36 -171.34 -117.93  100.25  179.85  171.30

DOCKED: MODEL       58
DOCKED: USER    Run = 58
DOCKED: USER    DPF = ligand_dock.biased.dpf
DOCKED: USER  
DOCKED: USER    Estimated Free Energy of Binding    =  -10.28 kcal/mol  [=(1)+(2)+(3)-(4)]
DOCKED: USER    Estimated Inhibition Constant, Ki   =   28.96 nM (nanomolar)  [Temperature = 298.15 K]
DOCKED: USER    
DOCKED: USER    (1) Final Intermolecular Energy     =  -13.27 kcal/mol
DOCKED: USER        vdW + Hbond + desolv Energy     =  -13.27 kcal/mol
DOCKED: USER        Electrostatic Energy            =   +0.00 kcal/mol
DOCKED: USER    (2) Final Total Internal Energy     =   -2.57 kcal/mol
DOCKED: USER    (3) Torsional Free Energy           =   +2.98 kcal/mol
DOCKED: USER    (4) Unbound System's Energy  [=(2)] =   -2.57 kcal/mol
DOCKED: USER    
DOCKED: USER    
DOCKED: USER    NEWDPF move ligand.pdbqt
DOCKED: USER    NEWDPF about 1.858000 0.218000 -0.021000
DOCKED: USER    NEWDPF tran0 21.642574 -9.331911 -5.424693
DOCKED: USER    NEWDPF quaternion0 0.932955 0.297961 0.056140 0.194070
DOCKED: USER    NEWDPF axisangle0 0.951036 0.303735 0.057228 157.619245
DOCKED: USER    NEWDPF quat0 0.951036 0.303735 0.057228 157.619245
DOCKED: USER    NEWDPF dihe0 72.23 -142.52 50.09 169.89 -125.36 -171.34 -117.93 100.25 179.85 171.30 
DOCKED: USER  keepresnum = 1 
DOCKED: USER  
DOCKED: REMARK  Name = 
DOCKED: REMARK  12 active torsions:
DOCKED: REMARK  status: ('A' for Active; 'I' for Inactive)
DOCKED: REMARK    1  A    between atoms: C_2  and  O_3
DOCKED: REMARK    2  A    between atoms: O_3  and  C_4
DOCKED: REMARK    3  A    between atoms: C_4  and  C_5
DOCKED: REMARK    4  A    between atoms: C_10  and  C_11
DOCKED: REMARK    5  A    between atoms: C_11  and  N_12
DOCKED: REMARK    6  A    between atoms: N_12  and  C_13
DOCKED: REMARK    7  A    between atoms: N_12  and  C_15
DOCKED: REMARK    8  A    between atoms: C_13  and  C_14
DOCKED: REMARK    9  A    between atoms: C_15  and  C_16
DOCKED: REMARK   10  A    between atoms: N_21  and  C_22
DOCKED: REMARK   11  A    between atoms: C_25  and  C_26
DOCKED: REMARK   12  A    between atoms: N_27  and  O_28
DOCKED: REMARK                            x       y       z     vdW  Elec       q    Type
DOCKED: REMARK                         _______ _______ _______ _____ _____    ______ ____
DOCKED: USER                              x       y       z     vdW  Elec       q    Type
DOCKED: USER                           _______ _______ _______ _____ _____    ______ ____
DOCKED: ROOT
DOCKED: ATOM      1  C   UNL     1      21.118  -8.331  -6.621 -0.15 -0.00    +0.000 C 
DOCKED: ENDROOT
DOCKED: BRANCH   1   2
DOCKED: ATOM      2  C   UNL     1      19.917  -9.207  -6.415 -0.15 -0.00    +0.000 A 
DOCKED: ATOM      3  C   UNL     1      19.870 -10.487  -6.989 -0.27 -0.00    +0.000 A 
DOCKED: ATOM      4  C   UNL     1      18.740 -11.293  -6.831 -0.29 -0.00    +0.000 A 
DOCKED: ATOM      5  C   UNL     1      17.634 -10.823  -6.108 -0.30 -0.00    +0.000 A 
DOCKED: ATOM      6  C   UNL     1      16.494 -11.626  -5.946 -0.19 -0.00    +0.000 A 
DOCKED: ATOM      7  C   UNL     1      15.387 -11.149  -5.225 -0.24 -0.00    +0.000 A 
DOCKED: ATOM      8  C   UNL     1      15.428  -9.863  -4.664 -0.18 -0.00    +0.000 A 
DOCKED: ATOM      9  C   UNL     1      16.559  -9.057  -4.822 -0.15 -0.00    +0.000 A 
DOCKED: ATOM     10  C   UNL     1      17.666  -9.528  -5.541 -0.17 -0.00    +0.000 A 
DOCKED: ATOM     11  C   UNL     1      18.806  -8.726  -5.704 -0.13 -0.00    +0.000 A 
DOCKED: BRANCH   7  12
DOCKED: ATOM     12  C   UNL     1      14.167 -12.011  -5.030 -0.18 -0.00    +0.000 C 
DOCKED: BRANCH  12  13
DOCKED: ATOM     13  N   UNL     1      13.586 -12.373  -6.340 -0.30 -0.00    +0.000 N 
DOCKED: ATOM     14  H   UNL     1      12.595 -12.571  -6.203 -0.07 -0.00    +0.000 HD
DOCKED: BRANCH  13  15
DOCKED: ATOM     15  C   UNL     1      14.176 -13.626  -6.867 -0.40 -0.00    +0.000 C 
DOCKED: ATOM     16  C   UNL     1      14.833 -13.419  -8.230 -0.47 +0.00    +0.000 C 
DOCKED: ENDBRANCH  13  15
DOCKED: BRANCH  13  17
DOCKED: ATOM     17  C   UNL     1      13.617 -11.238  -7.298 -0.18 -0.00    +0.000 C 
DOCKED: ATOM     18  C   UNL     1      12.557 -10.159  -7.033 -0.10 -0.00    +0.000 C 
DOCKED: ENDBRANCH  13  17
DOCKED: ENDBRANCH  12  13
DOCKED: ENDBRANCH   7  12
DOCKED: ENDBRANCH   1   2
DOCKED: BRANCH   1  19
DOCKED: ATOM     19  O   UNL     1      22.057  -8.572  -5.578 -0.29 -0.00    +0.000 OA
DOCKED: BRANCH  19  21
DOCKED: ATOM     20  O   UNL     1      22.140 -10.561  -4.412 -0.50 -0.00    +0.000 OA
DOCKED: ATOM     21  C   UNL     1      21.761  -9.358  -4.462 -0.36 -0.00    +0.000 C 
DOCKED: ATOM     22  N   UNL     1      20.986  -8.792  -3.397 -0.39 -0.00    +0.000 N 
DOCKED: ATOM     23  H   UNL     1      20.579  -7.908  -3.544 -0.01 -0.00    +0.000 HD
DOCKED: BRANCH  22  24
DOCKED: ATOM     24  C   UNL     1      20.764  -9.430  -2.127 -0.48 -0.00    +0.000 A 
DOCKED: ATOM     25  C   UNL     1      21.605  -9.125  -1.048 -0.33 -0.00    +0.000 A 
DOCKED: ATOM     26  C   UNL     1      21.424  -9.746   0.190 -0.55 -0.00    +0.000 A 
DOCKED: ATOM     27  C   UNL     1      20.402 -10.694   0.373 -0.60 -0.00    +0.000 A 
DOCKED: ATOM     28  C   UNL     1      19.581 -11.025  -0.720 -0.45 -0.00    +0.000 A 
DOCKED: ATOM     29  C   UNL     1      19.762 -10.402  -1.959 -0.42 -0.00    +0.000 A 
DOCKED: BRANCH  27  30
DOCKED: ATOM     30  C   UNL     1      20.225 -11.348   1.692 -0.76 -0.00    +0.000 C 
DOCKED: ATOM     31  N   UNL     1      20.529 -10.663   2.913 -0.65 -0.00    +0.000 N 
DOCKED: ATOM     32  O   UNL     1      19.811 -12.538   1.745 -1.66 -0.00    +0.000 OA
DOCKED: ATOM     33  H   UNL     1      20.933  -9.766   2.884 -0.60 -0.00    +0.000 HD
DOCKED: BRANCH  31  34
DOCKED: ATOM     34  O   UNL     1      20.264 -11.245   4.108 -0.81 -0.00    +0.000 OA
DOCKED: ATOM     35  H   UNL     1      20.628 -12.143   4.118 -0.51 -0.00    +0.000 HD
DOCKED: ENDBRANCH  31  34
DOCKED: ENDBRANCH  27  30
DOCKED: ENDBRANCH  22  24
DOCKED: ENDBRANCH  19  21
DOCKED: ENDBRANCH   1  19
DOCKED: TORSDOF 10
DOCKED: TER
DOCKED: ENDMDL
________________________________________________________________________________


	BEGINNING GENETIC ALGORITHM DOCKING 59 of 100
Run: 59 Seed: 1931410470 812628857 [ Run 59 of 100 GA/GALS ]
Beginning LAMARCKIAN GENETIC ALGORITHM (LGA), with a maximum of 2500000 energy evaluations.

Final-Value: -14.890


	FINAL GENETIC ALGORITHM DOCKED STATE
	_______________________________________________


Detailed state:  trans 19.108 -8.507 -5.059 quatxyzw -0.674295 0.684017 -0.045086 -0.274616 center 1.858 0.218 -0.021 ntor 10 179.8901 -171.0709 -23.5894 -49.7607 -117.0670 95.5362 180.0000 127.1555 163.4778 143.3863
State:	 19.108  -8.507  -5.059  -0.701  0.711 -0.047 -148.122    179.89 -171.07  -23.59  -49.76 -117.07   95.54  180.00  127.16  163.48  143.39

DOCKED: MODEL       59
DOCKED: USER    Run = 59
DOCKED: USER    DPF = ligand_dock.biased.dpf
DOCKED: USER  
DOCKED: USER    Estimated Free Energy of Binding    =   -9.70 kcal/mol  [=(1)+(2)+(3)-(4)]
DOCKED: USER    Estimated Inhibition Constant, Ki   =   77.78 nM (nanomolar)  [Temperature = 298.15 K]
DOCKED: USER    
DOCKED: USER    (1) Final Intermolecular Energy     =  -12.68 kcal/mol
DOCKED: USER        vdW + Hbond + desolv Energy     =  -12.68 kcal/mol
DOCKED: USER        Electrostatic Energy            =   +0.00 kcal/mol
DOCKED: USER    (2) Final Total Internal Energy     =   -2.21 kcal/mol
DOCKED: USER    (3) Torsional Free Energy           =   +2.98 kcal/mol
DOCKED: USER    (4) Unbound System's Energy  [=(2)] =   -2.21 kcal/mol
DOCKED: USER    
DOCKED: USER    
DOCKED: USER    NEWDPF move ligand.pdbqt
DOCKED: USER    NEWDPF about 1.858000 0.218000 -0.021000
DOCKED: USER    NEWDPF tran0 19.107895 -8.507463 -5.058514
DOCKED: USER    NEWDPF quaternion0 -0.674295 0.684017 -0.045086 -0.274616
DOCKED: USER    NEWDPF axisangle0 -0.701256 0.711366 -0.046888 -148.121733
DOCKED: USER    NEWDPF quat0 -0.701256 0.711366 -0.046888 -148.121733
DOCKED: USER    NEWDPF dihe0 179.89 -171.07 -23.59 -49.76 -117.07 95.54 180.00 127.16 163.48 143.39 
DOCKED: USER  keepresnum = 1 
DOCKED: USER  
DOCKED: REMARK  Name = 
DOCKED: REMARK  12 active torsions:
DOCKED: REMARK  status: ('A' for Active; 'I' for Inactive)
DOCKED: REMARK    1  A    between atoms: C_2  and  O_3
DOCKED: REMARK    2  A    between atoms: O_3  and  C_4
DOCKED: REMARK    3  A    between atoms: C_4  and  C_5
DOCKED: REMARK    4  A    between atoms: C_10  and  C_11
DOCKED: REMARK    5  A    between atoms: C_11  and  N_12
DOCKED: REMARK    6  A    between atoms: N_12  and  C_13
DOCKED: REMARK    7  A    between atoms: N_12  and  C_15
DOCKED: REMARK    8  A    between atoms: C_13  and  C_14
DOCKED: REMARK    9  A    between atoms: C_15  and  C_16
DOCKED: REMARK   10  A    between atoms: N_21  and  C_22
DOCKED: REMARK   11  A    between atoms: C_25  and  C_26
DOCKED: REMARK   12  A    between atoms: N_27  and  O_28
DOCKED: REMARK                            x       y       z     vdW  Elec       q    Type
DOCKED: REMARK                         _______ _______ _______ _____ _____    ______ ____
DOCKED: USER                              x       y       z     vdW  Elec       q    Type
DOCKED: USER                           _______ _______ _______ _____ _____    ______ ____
DOCKED: ROOT
DOCKED: ATOM      1  C   UNL     1      20.344  -7.953  -5.992 -0.14 -0.00    +0.000 C 
DOCKED: ENDROOT
DOCKED: BRANCH   1   2
DOCKED: ATOM      2  C   UNL     1      20.128  -6.794  -5.063 -0.14 -0.00    +0.000 A 
DOCKED: ATOM      3  C   UNL     1      19.330  -5.710  -5.460 -0.10 -0.00    +0.000 A 
DOCKED: ATOM      4  C   UNL     1      19.153  -4.613  -4.614 -0.12 -0.00    +0.000 A 
DOCKED: ATOM      5  C   UNL     1      19.786  -4.578  -3.363 -0.15 -0.00    +0.000 A 
DOCKED: ATOM      6  C   UNL     1      19.616  -3.479  -2.507 -0.17 -0.00    +0.000 A 
DOCKED: ATOM      7  C   UNL     1      20.256  -3.448  -1.257 -0.33 -0.00    +0.000 A 
DOCKED: ATOM      8  C   UNL     1      21.065  -4.525  -0.866 -0.31 +0.00    +0.000 A 
DOCKED: ATOM      9  C   UNL     1      21.241  -5.623  -1.713 -0.39 +0.00    +0.000 A 
DOCKED: ATOM     10  C   UNL     1      20.606  -5.660  -2.962 -0.28 -0.00    +0.000 A 
DOCKED: ATOM     11  C   UNL     1      20.776  -6.758  -3.819 -0.26 -0.00    +0.000 A 
DOCKED: BRANCH   7  12
DOCKED: ATOM     12  C   UNL     1      20.063  -2.281  -0.324 -0.31 -0.00    +0.000 C 
DOCKED: BRANCH  12  13
DOCKED: ATOM     13  N   UNL     1      21.241  -2.135   0.558 -0.39 -0.00    +0.000 N 
DOCKED: ATOM     14  H   UNL     1      21.790  -2.992   0.497 -0.04 +0.00    +0.000 HD
DOCKED: BRANCH  13  15
DOCKED: ATOM     15  C   UNL     1      20.841  -2.016   1.980 -0.57 -0.00    +0.000 C 
DOCKED: ATOM     16  C   UNL     1      19.347  -1.733   2.130 -0.47 -0.00    +0.000 C 
DOCKED: ENDBRANCH  13  15
DOCKED: BRANCH  13  17
DOCKED: ATOM     17  C   UNL     1      22.157  -1.064   0.093 -0.30 -0.00    +0.000 C 
DOCKED: ATOM     18  C   UNL     1      23.433  -1.577  -0.591 -0.28 -0.00    +0.000 C 
DOCKED: ENDBRANCH  13  17
DOCKED: ENDBRANCH  12  13
DOCKED: ENDBRANCH   7  12
DOCKED: ENDBRANCH   1   2
DOCKED: BRANCH   1  19
DOCKED: ATOM     19  O   UNL     1      19.591  -9.070  -5.532 -0.18 -0.00    +0.000 OA
DOCKED: BRANCH  19  21
DOCKED: ATOM     20  O   UNL     1      18.263  -9.506  -3.696 -0.27 -0.00    +0.000 OA
DOCKED: ATOM     21  C   UNL     1      19.421  -9.358  -4.175 -0.29 -0.00    +0.000 C 
DOCKED: ATOM     22  N   UNL     1      20.576  -9.440  -3.330 -0.38 -0.00    +0.000 N 
DOCKED: ATOM     23  H   UNL     1      21.443  -9.164  -3.708 -0.02 -0.00    +0.000 HD
DOCKED: BRANCH  22  24
DOCKED: ATOM     24  C   UNL     1      20.555  -9.898  -1.967 -0.49 -0.00    +0.000 A 
DOCKED: ATOM     25  C   UNL     1      19.633 -10.884  -1.589 -0.40 -0.00    +0.000 A 
DOCKED: ATOM     26  C   UNL     1      19.577 -11.332  -0.266 -0.46 -0.00    +0.000 A 
DOCKED: ATOM     27  C   UNL     1      20.436 -10.796   0.708 -0.62 -0.00    +0.000 A 
DOCKED: ATOM     28  C   UNL     1      21.335  -9.781   0.335 -0.52 -0.00    +0.000 A 
DOCKED: ATOM     29  C   UNL     1      21.392  -9.334  -0.989 -0.55 -0.00    +0.000 A 
DOCKED: BRANCH  27  30
DOCKED: ATOM     30  C   UNL     1      20.361 -11.278   2.109 -0.76 -0.00    +0.000 C 
DOCKED: ATOM     31  N   UNL     1      20.172 -12.666   2.413 -0.46 -0.00    +0.000 N 
DOCKED: ATOM     32  O   UNL     1      20.450 -10.451   3.057 -0.78 -0.00    +0.000 OA
DOCKED: ATOM     33  H   UNL     1      20.016 -13.310   1.685 -0.55 -0.00    +0.000 HD
DOCKED: BRANCH  31  34
DOCKED: ATOM     34  O   UNL     1      20.209 -13.095   3.697 -0.68 -0.00    +0.000 OA
DOCKED: ATOM     35  H   UNL     1      20.719 -12.469   4.233 -0.48 -0.00    +0.000 HD
DOCKED: ENDBRANCH  31  34
DOCKED: ENDBRANCH  27  30
DOCKED: ENDBRANCH  22  24
DOCKED: ENDBRANCH  19  21
DOCKED: ENDBRANCH   1  19
DOCKED: TORSDOF 10
DOCKED: TER
DOCKED: ENDMDL
________________________________________________________________________________


	BEGINNING GENETIC ALGORITHM DOCKING 60 of 100
Run: 60 Seed: 1780880537 1026649301 [ Run 60 of 100 GA/GALS ]
Beginning LAMARCKIAN GENETIC ALGORITHM (LGA), with a maximum of 2500000 energy evaluations.

Final-Value: -16.013


	FINAL GENETIC ALGORITHM DOCKED STATE
	_______________________________________________


Detailed state:  trans 15.747 -11.823 2.078 quatxyzw -0.230395 0.825040 0.106988 0.504758 center 1.858 0.218 -0.021 ntor 10 -35.2952 76.7774 -6.8807 54.6223 141.2936 -167.6345 -116.6017 -143.3487 115.0546 -107.4735
State:	 15.747 -11.823   2.078  -0.267  0.956  0.124 119.369    -35.30   76.78   -6.88   54.62  141.29 -167.63 -116.60 -143.35  115.05 -107.47

DOCKED: MODEL       60
DOCKED: USER    Run = 60
DOCKED: USER    DPF = ligand_dock.biased.dpf
DOCKED: USER  
DOCKED: USER    Estimated Free Energy of Binding    =  -10.88 kcal/mol  [=(1)+(2)+(3)-(4)]
DOCKED: USER    Estimated Inhibition Constant, Ki   =   10.58 nM (nanomolar)  [Temperature = 298.15 K]
DOCKED: USER    
DOCKED: USER    (1) Final Intermolecular Energy     =  -13.86 kcal/mol
DOCKED: USER        vdW + Hbond + desolv Energy     =  -13.86 kcal/mol
DOCKED: USER        Electrostatic Energy            =   +0.00 kcal/mol
DOCKED: USER    (2) Final Total Internal Energy     =   -2.15 kcal/mol
DOCKED: USER    (3) Torsional Free Energy           =   +2.98 kcal/mol
DOCKED: USER    (4) Unbound System's Energy  [=(2)] =   -2.15 kcal/mol
DOCKED: USER    
DOCKED: USER    
DOCKED: USER    NEWDPF move ligand.pdbqt
DOCKED: USER    NEWDPF about 1.858000 0.218000 -0.021000
DOCKED: USER    NEWDPF tran0 15.746579 -11.822566 2.077509
DOCKED: USER    NEWDPF quaternion0 -0.230395 0.825040 0.106988 0.504758
DOCKED: USER    NEWDPF axisangle0 -0.266890 0.955725 0.123935 119.369411
DOCKED: USER    NEWDPF quat0 -0.266890 0.955725 0.123935 119.369411
DOCKED: USER    NEWDPF dihe0 -35.30 76.78 -6.88 54.62 141.29 -167.63 -116.60 -143.35 115.05 -107.47 
DOCKED: USER  keepresnum = 1 
DOCKED: USER  
DOCKED: REMARK  Name = 
DOCKED: REMARK  12 active torsions:
DOCKED: REMARK  status: ('A' for Active; 'I' for Inactive)
DOCKED: REMARK    1  A    between atoms: C_2  and  O_3
DOCKED: REMARK    2  A    between atoms: O_3  and  C_4
DOCKED: REMARK    3  A    between atoms: C_4  and  C_5
DOCKED: REMARK    4  A    between atoms: C_10  and  C_11
DOCKED: REMARK    5  A    between atoms: C_11  and  N_12
DOCKED: REMARK    6  A    between atoms: N_12  and  C_13
DOCKED: REMARK    7  A    between atoms: N_12  and  C_15
DOCKED: REMARK    8  A    between atoms: C_13  and  C_14
DOCKED: REMARK    9  A    between atoms: C_15  and  C_16
DOCKED: REMARK   10  A    between atoms: N_21  and  C_22
DOCKED: REMARK   11  A    between atoms: C_25  and  C_26
DOCKED: REMARK   12  A    between atoms: N_27  and  O_28
DOCKED: REMARK                            x       y       z     vdW  Elec       q    Type
DOCKED: REMARK                         _______ _______ _______ _____ _____    ______ ____
DOCKED: USER                              x       y       z     vdW  Elec       q    Type
DOCKED: USER                           _______ _______ _______ _____ _____    ______ ____
DOCKED: ROOT
DOCKED: ATOM      1  C   UNL     1      14.663 -12.403   0.984 -0.47 +0.00    +0.000 C 
DOCKED: ENDROOT
DOCKED: BRANCH   1   2
DOCKED: ATOM      2  C   UNL     1      15.691 -11.782   0.085 -0.39 +0.00    +0.000 A 
DOCKED: ATOM      3  C   UNL     1      15.301 -11.157  -1.109 -0.30 +0.00    +0.000 A 
DOCKED: ATOM      4  C   UNL     1      16.257 -10.608  -1.967 -0.23 -0.00    +0.000 A 
DOCKED: ATOM      5  C   UNL     1      17.620 -10.691  -1.650 -0.23 -0.00    +0.000 A 
DOCKED: ATOM      6  C   UNL     1      18.587 -10.144  -2.507 -0.21 -0.00    +0.000 A 
DOCKED: ATOM      7  C   UNL     1      19.952 -10.233  -2.186 -0.43 -0.00    +0.000 A 
DOCKED: ATOM      8  C   UNL     1      20.343 -10.871  -0.999 -0.45 -0.00    +0.000 A 
DOCKED: ATOM      9  C   UNL     1      19.387 -11.419  -0.141 -0.48 -0.00    +0.000 A 
DOCKED: ATOM     10  C   UNL     1      18.024 -11.334  -0.456 -0.40 -0.00    +0.000 A 
DOCKED: ATOM     11  C   UNL     1      17.056 -11.881   0.400 -0.43 +0.00    +0.000 A 
DOCKED: BRANCH   7  12
DOCKED: ATOM     12  C   UNL     1      20.995  -9.632  -3.091 -0.51 -0.00    +0.000 C 
DOCKED: BRANCH  12  13
DOCKED: ATOM     13  N   UNL     1      20.865 -10.187  -4.456 -0.38 -0.00    +0.000 N 
DOCKED: ATOM     14  H   UNL     1      20.222  -9.593  -4.978 +0.00 -0.00    +0.000 HD
DOCKED: BRANCH  13  15
DOCKED: ATOM     15  C   UNL     1      20.243 -11.532  -4.437 -0.48 -0.00    +0.000 C 
DOCKED: ATOM     16  C   UNL     1      19.099 -11.645  -5.443 -0.39 -0.00    +0.000 C 
DOCKED: ENDBRANCH  13  15
DOCKED: BRANCH  13  17
DOCKED: ATOM     17  C   UNL     1      22.142 -10.119  -5.210 -0.32 -0.00    +0.000 C 
DOCKED: ATOM     18  C   UNL     1      22.393 -11.319  -6.134 -0.48 -0.00    +0.000 C 
DOCKED: ENDBRANCH  13  17
DOCKED: ENDBRANCH  12  13
DOCKED: ENDBRANCH   7  12
DOCKED: ENDBRANCH   1   2
DOCKED: BRANCH   1  19
DOCKED: ATOM     19  O   UNL     1      15.164 -12.436   2.317 -0.60 +0.00    +0.000 OA
DOCKED: BRANCH  19  21
DOCKED: ATOM     20  O   UNL     1      16.251 -11.172   3.911 -0.61 +0.00    +0.000 OA
DOCKED: ATOM     21  C   UNL     1      15.286 -11.290   3.105 -0.54 +0.00    +0.000 C 
DOCKED: ATOM     22  N   UNL     1      14.280 -10.273   3.018 -0.34 +0.00    +0.000 N 
DOCKED: ATOM     23  H   UNL     1      13.468 -10.473   2.499 -0.01 +0.00    +0.000 HD
DOCKED: BRANCH  22  24
DOCKED: ATOM     24  C   UNL     1      14.378  -8.979   3.638 -0.31 +0.00    +0.000 A 
DOCKED: ATOM     25  C   UNL     1      14.844  -7.891   2.887 -0.28 +0.00    +0.000 A 
DOCKED: ATOM     26  C   UNL     1      14.969  -6.627   3.471 -0.27 +0.00    +0.000 A 
DOCKED: ATOM     27  C   UNL     1      14.638  -6.427   4.822 -0.38 +0.00    +0.000 A 
DOCKED: ATOM     28  C   UNL     1      14.204  -7.527   5.584 -0.42 +0.00    +0.000 A 
DOCKED: ATOM     29  C   UNL     1      14.079  -8.791   4.999 -0.40 +0.00    +0.000 A 
DOCKED: BRANCH  27  30
DOCKED: ATOM     30  C   UNL     1      14.780  -5.081   5.429 -0.49 +0.00    +0.000 C 
DOCKED: ATOM     31  N   UNL     1      16.052  -4.426   5.505 -0.51 -0.00    +0.000 N 
DOCKED: ATOM     32  O   UNL     1      13.764  -4.503   5.903 -0.76 +0.00    +0.000 OA
DOCKED: ATOM     33  H   UNL     1      16.866  -4.900   5.217 -0.60 -0.00    +0.000 HD
DOCKED: BRANCH  31  34
DOCKED: ATOM     34  O   UNL     1      16.141  -3.157   5.971 -0.62 -0.00    +0.000 OA
DOCKED: ATOM     35  H   UNL     1      15.249  -2.800   6.107 -0.17 +0.00    +0.000 HD
DOCKED: ENDBRANCH  31  34
DOCKED: ENDBRANCH  27  30
DOCKED: ENDBRANCH  22  24
DOCKED: ENDBRANCH  19  21
DOCKED: ENDBRANCH   1  19
DOCKED: TORSDOF 10
DOCKED: TER
DOCKED: ENDMDL
________________________________________________________________________________


	BEGINNING GENETIC ALGORITHM DOCKING 61 of 100
Run: 61 Seed: 1905858804 1891401627 [ Run 61 of 100 GA/GALS ]
Beginning LAMARCKIAN GENETIC ALGORITHM (LGA), with a maximum of 2500000 energy evaluations.

Final-Value: -16.331


	FINAL GENETIC ALGORITHM DOCKED STATE
	_______________________________________________


Detailed state:  trans 20.045 -10.731 -5.727 quatxyzw 0.988502 -0.047900 -0.141438 0.023753 center 1.858 0.218 -0.021 ntor 10 94.2352 177.5377 24.9676 -163.3447 -89.7463 167.3532 -133.9136 110.1673 -5.8000 -168.0617
State:	 20.045 -10.731  -5.727   0.989 -0.048 -0.141 177.278     94.24  177.54   24.97 -163.34  -89.75  167.35 -133.91  110.17   -5.80 -168.06

DOCKED: MODEL       61
DOCKED: USER    Run = 61
DOCKED: USER    DPF = ligand_dock.biased.dpf
DOCKED: USER  
DOCKED: USER    Estimated Free Energy of Binding    =  -10.39 kcal/mol  [=(1)+(2)+(3)-(4)]
DOCKED: USER    Estimated Inhibition Constant, Ki   =   24.20 nM (nanomolar)  [Temperature = 298.15 K]
DOCKED: USER    
DOCKED: USER    (1) Final Intermolecular Energy     =  -13.37 kcal/mol
DOCKED: USER        vdW + Hbond + desolv Energy     =  -13.37 kcal/mol
DOCKED: USER        Electrostatic Energy            =   +0.00 kcal/mol
DOCKED: USER    (2) Final Total Internal Energy     =   -2.96 kcal/mol
DOCKED: USER    (3) Torsional Free Energy           =   +2.98 kcal/mol
DOCKED: USER    (4) Unbound System's Energy  [=(2)] =   -2.96 kcal/mol
DOCKED: USER    
DOCKED: USER    
DOCKED: USER    NEWDPF move ligand.pdbqt
DOCKED: USER    NEWDPF about 1.858000 0.218000 -0.021000
DOCKED: USER    NEWDPF tran0 20.044687 -10.731342 -5.727440
DOCKED: USER    NEWDPF quaternion0 0.988502 -0.047900 -0.141438 0.023753
DOCKED: USER    NEWDPF axisangle0 0.988781 -0.047914 -0.141478 177.277794
DOCKED: USER    NEWDPF quat0 0.988781 -0.047914 -0.141478 177.277794
DOCKED: USER    NEWDPF dihe0 94.24 177.54 24.97 -163.34 -89.75 167.35 -133.91 110.17 -5.80 -168.06 
DOCKED: USER  keepresnum = 1 
DOCKED: USER  
DOCKED: REMARK  Name = 
DOCKED: REMARK  12 active torsions:
DOCKED: REMARK  status: ('A' for Active; 'I' for Inactive)
DOCKED: REMARK    1  A    between atoms: C_2  and  O_3
DOCKED: REMARK    2  A    between atoms: O_3  and  C_4
DOCKED: REMARK    3  A    between atoms: C_4  and  C_5
DOCKED: REMARK    4  A    between atoms: C_10  and  C_11
DOCKED: REMARK    5  A    between atoms: C_11  and  N_12
DOCKED: REMARK    6  A    between atoms: N_12  and  C_13
DOCKED: REMARK    7  A    between atoms: N_12  and  C_15
DOCKED: REMARK    8  A    between atoms: C_13  and  C_14
DOCKED: REMARK    9  A    between atoms: C_15  and  C_16
DOCKED: REMARK   10  A    between atoms: N_21  and  C_22
DOCKED: REMARK   11  A    between atoms: C_25  and  C_26
DOCKED: REMARK   12  A    between atoms: N_27  and  O_28
DOCKED: REMARK                            x       y       z     vdW  Elec       q    Type
DOCKED: REMARK                         _______ _______ _______ _____ _____    ______ ____
DOCKED: USER                              x       y       z     vdW  Elec       q    Type
DOCKED: USER                           _______ _______ _______ _____ _____    ______ ____
DOCKED: ROOT
DOCKED: ATOM      1  C   UNL     1      19.545  -9.973  -7.099 -0.24 -0.00    +0.000 C 
DOCKED: ENDROOT
DOCKED: BRANCH   1   2
DOCKED: ATOM      2  C   UNL     1      18.361  -9.774  -6.200 -0.18 -0.00    +0.000 A 
DOCKED: ATOM      3  C   UNL     1      18.237  -8.599  -5.444 -0.14 -0.00    +0.000 A 
DOCKED: ATOM      4  C   UNL     1      17.155  -8.424  -4.578 -0.14 -0.00    +0.000 A 
DOCKED: ATOM      5  C   UNL     1      16.187  -9.430  -4.445 -0.18 -0.00    +0.000 A 
DOCKED: ATOM      6  C   UNL     1      15.098  -9.263  -3.577 -0.18 -0.00    +0.000 A 
DOCKED: ATOM      7  C   UNL     1      14.135 -10.277  -3.444 -0.23 -0.00    +0.000 A 
DOCKED: ATOM      8  C   UNL     1      14.266 -11.459  -4.190 -0.24 -0.00    +0.000 A 
DOCKED: ATOM      9  C   UNL     1      15.348 -11.633  -5.056 -0.13 -0.00    +0.000 A 
DOCKED: ATOM     10  C   UNL     1      16.314 -10.626  -5.192 -0.22 -0.00    +0.000 A 
DOCKED: ATOM     11  C   UNL     1      17.404 -10.792  -6.059 -0.28 -0.00    +0.000 A 
DOCKED: BRANCH   7  12
DOCKED: ATOM     12  C   UNL     1      12.952 -10.098  -2.529 -0.24 -0.00    +0.000 C 
DOCKED: BRANCH  12  13
DOCKED: ATOM     13  N   UNL     1      13.340 -10.395  -1.133 -0.25 -0.00    +0.000 N 
DOCKED: ATOM     14  H   UNL     1      12.675 -11.069  -0.756 -0.02 +0.00    +0.000 HD
DOCKED: BRANCH  13  15
DOCKED: ATOM     15  C   UNL     1      13.225  -9.194  -0.272 -0.18 +0.00    +0.000 C 
DOCKED: ATOM     16  C   UNL     1      14.577  -8.518  -0.051 -0.25 -0.00    +0.000 C 
DOCKED: ENDBRANCH  13  15
DOCKED: BRANCH  13  17
DOCKED: ATOM     17  C   UNL     1      14.657 -11.075  -1.053 -0.35 +0.00    +0.000 C 
DOCKED: ATOM     18  C   UNL     1      14.597 -12.504  -0.493 -0.49 +0.00    +0.000 C 
DOCKED: ENDBRANCH  13  17
DOCKED: ENDBRANCH  12  13
DOCKED: ENDBRANCH   7  12
DOCKED: ENDBRANCH   1   2
DOCKED: BRANCH   1  19
DOCKED: ATOM     19  O   UNL     1      20.631 -10.491  -6.338 -0.32 -0.00    +0.000 OA
DOCKED: BRANCH  19  21
DOCKED: ATOM     20  O   UNL     1      20.565 -12.214  -4.804 -0.67 -0.00    +0.000 OA
DOCKED: ATOM     21  C   UNL     1      20.476 -10.976  -5.037 -0.49 -0.00    +0.000 C 
DOCKED: ATOM     22  N   UNL     1      20.172 -10.056  -3.981 -0.34 -0.00    +0.000 N 
DOCKED: ATOM     23  H   UNL     1      19.956  -9.127  -4.228 +0.00 -0.00    +0.000 HD
DOCKED: BRANCH  22  24
DOCKED: ATOM     24  C   UNL     1      20.162 -10.397  -2.584 -0.44 -0.00    +0.000 A 
DOCKED: ATOM     25  C   UNL     1      21.377 -10.497  -1.892 -0.52 -0.00    +0.000 A 
DOCKED: ATOM     26  C   UNL     1      21.397 -10.848  -0.540 -0.51 -0.00    +0.000 A 
DOCKED: ATOM     27  C   UNL     1      20.201 -11.115   0.148 -0.56 -0.00    +0.000 A 
DOCKED: ATOM     28  C   UNL     1      18.985 -11.049  -0.556 -0.44 -0.00    +0.000 A 
DOCKED: ATOM     29  C   UNL     1      18.966 -10.697  -1.910 -0.36 -0.00    +0.000 A 
DOCKED: BRANCH  27  30
DOCKED: ATOM     30  C   UNL     1      20.238 -11.490   1.582 -0.76 -0.00    +0.000 C 
DOCKED: ATOM     31  N   UNL     1      20.643 -10.555   2.589 -0.61 -0.00    +0.000 N 
DOCKED: ATOM     32  O   UNL     1      19.920 -12.661   1.926 -1.58 -0.00    +0.000 OA
DOCKED: ATOM     33  H   UNL     1      20.975  -9.666   2.328 -0.56 -0.00    +0.000 HD
DOCKED: BRANCH  31  34
DOCKED: ATOM     34  O   UNL     1      20.572 -10.889   3.900 -0.81 -0.00    +0.000 OA
DOCKED: ATOM     35  H   UNL     1      20.617 -11.854   3.991 -0.48 -0.00    +0.000 HD
DOCKED: ENDBRANCH  31  34
DOCKED: ENDBRANCH  27  30
DOCKED: ENDBRANCH  22  24
DOCKED: ENDBRANCH  19  21
DOCKED: ENDBRANCH   1  19
DOCKED: TORSDOF 10
DOCKED: TER
DOCKED: ENDMDL
________________________________________________________________________________


	BEGINNING GENETIC ALGORITHM DOCKING 62 of 100
Run: 62 Seed: 329989740 1933184886 [ Run 62 of 100 GA/GALS ]
Beginning LAMARCKIAN GENETIC ALGORITHM (LGA), with a maximum of 2500000 energy evaluations.

Final-Value: -15.905


	FINAL GENETIC ALGORITHM DOCKED STATE
	_______________________________________________


Detailed state:  trans 20.030 -10.032 1.406 quatxyzw 0.283187 0.084161 0.125724 -0.947056 center 1.858 0.218 -0.021 ntor 10 -44.4593 -30.2259 -31.0257 58.3059 88.0680 -180.0000 -111.8528 -84.7231 -4.2022 104.4888
State:	 20.030 -10.032   1.406   0.882  0.262  0.392 -37.455    -44.46  -30.23  -31.03   58.31   88.07 -180.00 -111.85  -84.72   -4.20  104.49

DOCKED: MODEL       62
DOCKED: USER    Run = 62
DOCKED: USER    DPF = ligand_dock.biased.dpf
DOCKED: USER  
DOCKED: USER    Estimated Free Energy of Binding    =  -10.62 kcal/mol  [=(1)+(2)+(3)-(4)]
DOCKED: USER    Estimated Inhibition Constant, Ki   =   16.46 nM (nanomolar)  [Temperature = 298.15 K]
DOCKED: USER    
DOCKED: USER    (1) Final Intermolecular Energy     =  -13.60 kcal/mol
DOCKED: USER        vdW + Hbond + desolv Energy     =  -13.60 kcal/mol
DOCKED: USER        Electrostatic Energy            =   +0.00 kcal/mol
DOCKED: USER    (2) Final Total Internal Energy     =   -2.30 kcal/mol
DOCKED: USER    (3) Torsional Free Energy           =   +2.98 kcal/mol
DOCKED: USER    (4) Unbound System's Energy  [=(2)] =   -2.30 kcal/mol
DOCKED: USER    
DOCKED: USER    
DOCKED: USER    NEWDPF move ligand.pdbqt
DOCKED: USER    NEWDPF about 1.858000 0.218000 -0.021000
DOCKED: USER    NEWDPF tran0 20.029864 -10.032081 1.405881
DOCKED: USER    NEWDPF quaternion0 0.283187 0.084161 0.125724 -0.947056
DOCKED: USER    NEWDPF axisangle0 0.882017 0.262127 0.391581 -37.455056
DOCKED: USER    NEWDPF quat0 0.882017 0.262127 0.391581 -37.455056
DOCKED: USER    NEWDPF dihe0 -44.46 -30.23 -31.03 58.31 88.07 -180.00 -111.85 -84.72 -4.20 104.49 
DOCKED: USER  keepresnum = 1 
DOCKED: USER  
DOCKED: REMARK  Name = 
DOCKED: REMARK  12 active torsions:
DOCKED: REMARK  status: ('A' for Active; 'I' for Inactive)
DOCKED: REMARK    1  A    between atoms: C_2  and  O_3
DOCKED: REMARK    2  A    between atoms: O_3  and  C_4
DOCKED: REMARK    3  A    between atoms: C_4  and  C_5
DOCKED: REMARK    4  A    between atoms: C_10  and  C_11
DOCKED: REMARK    5  A    between atoms: C_11  and  N_12
DOCKED: REMARK    6  A    between atoms: N_12  and  C_13
DOCKED: REMARK    7  A    between atoms: N_12  and  C_15
DOCKED: REMARK    8  A    between atoms: C_13  and  C_14
DOCKED: REMARK    9  A    between atoms: C_15  and  C_16
DOCKED: REMARK   10  A    between atoms: N_21  and  C_22
DOCKED: REMARK   11  A    between atoms: C_25  and  C_26
DOCKED: REMARK   12  A    between atoms: N_27  and  O_28
DOCKED: REMARK                            x       y       z     vdW  Elec       q    Type
DOCKED: REMARK                         _______ _______ _______ _____ _____    ______ ____
DOCKED: USER                              x       y       z     vdW  Elec       q    Type
DOCKED: USER                           _______ _______ _______ _____ _____    ______ ____
DOCKED: ROOT
DOCKED: ATOM      1  C   UNL     1      20.351 -11.381   2.291 -0.77 -0.00    +0.000 C 
DOCKED: ENDROOT
DOCKED: BRANCH   1   2
DOCKED: ATOM      2  C   UNL     1      18.913 -11.600   1.924 -0.55 -0.00    +0.000 A 
DOCKED: ATOM      3  C   UNL     1      18.579 -12.387   0.812 -0.48 -0.00    +0.000 A 
DOCKED: ATOM      4  C   UNL     1      17.243 -12.566   0.444 -0.47 +0.00    +0.000 A 
DOCKED: ATOM      5  C   UNL     1      16.221 -11.945   1.178 -0.42 +0.00    +0.000 A 
DOCKED: ATOM      6  C   UNL     1      14.876 -12.117   0.814 -0.43 +0.00    +0.000 A 
DOCKED: ATOM      7  C   UNL     1      13.858 -11.490   1.549 -0.39 +0.00    +0.000 A 
DOCKED: ATOM      8  C   UNL     1      14.192 -10.690   2.654 -0.35 +0.00    +0.000 A 
DOCKED: ATOM      9  C   UNL     1      15.528 -10.513   3.021 -0.41 +0.00    +0.000 A 
DOCKED: ATOM     10  C   UNL     1      16.550 -11.136   2.291 -0.40 +0.00    +0.000 A 
DOCKED: ATOM     11  C   UNL     1      17.895 -10.964   2.652 -0.45 +0.00    +0.000 A 
DOCKED: BRANCH   7  12
DOCKED: ATOM     12  C   UNL     1      12.411 -11.684   1.178 -0.44 +0.00    +0.000 C 
DOCKED: BRANCH  12  13
DOCKED: ATOM     13  N   UNL     1      12.125 -11.026  -0.114 -0.32 +0.00    +0.000 N 
DOCKED: ATOM     14  H   UNL     1      12.237 -11.719  -0.854 -0.03 +0.00    +0.000 HD
DOCKED: BRANCH  13  15
DOCKED: ATOM     15  C   UNL     1      13.112  -9.961  -0.410 -0.22 +0.00    +0.000 C 
DOCKED: ATOM     16  C   UNL     1      13.841 -10.209  -1.730 -0.28 -0.00    +0.000 C 
DOCKED: ENDBRANCH  13  15
DOCKED: BRANCH  13  17
DOCKED: ATOM     17  C   UNL     1      10.710 -10.588  -0.217 -0.23 +0.00    +0.000 C 
DOCKED: ATOM     18  C   UNL     1      10.113 -10.070   1.100 -0.20 +0.00    +0.000 C 
DOCKED: ENDBRANCH  13  17
DOCKED: ENDBRANCH  12  13
DOCKED: ENDBRANCH   7  12
DOCKED: ENDBRANCH   1   2
DOCKED: BRANCH   1  19
DOCKED: ATOM     19  O   UNL     1      20.862 -10.279   1.549 -0.68 -0.00    +0.000 OA
DOCKED: BRANCH  19  21
DOCKED: ATOM     20  O   UNL     1      22.334 -10.776  -0.157 -0.57 -0.00    +0.000 OA
DOCKED: ATOM     21  C   UNL     1      21.192 -10.368   0.194 -0.68 -0.00    +0.000 C 
DOCKED: ATOM     22  N   UNL     1      20.233  -9.951  -0.786 -0.51 -0.00    +0.000 N 
DOCKED: ATOM     23  H   UNL     1      19.420  -9.495  -0.468 -0.01 -0.00    +0.000 HD
DOCKED: BRANCH  22  24
DOCKED: ATOM     24  C   UNL     1      20.377 -10.155  -2.202 -0.47 -0.00    +0.000 A 
DOCKED: ATOM     25  C   UNL     1      19.691 -11.210  -2.818 -0.28 -0.00    +0.000 A 
DOCKED: ATOM     26  C   UNL     1      19.831 -11.444  -4.189 -0.43 -0.00    +0.000 A 
DOCKED: ATOM     27  C   UNL     1      20.668 -10.631  -4.971 -0.41 -0.00    +0.000 A 
DOCKED: ATOM     28  C   UNL     1      21.384  -9.594  -4.345 -0.37 -0.00    +0.000 A 
DOCKED: ATOM     29  C   UNL     1      21.243  -9.361  -2.974 -0.44 -0.00    +0.000 A 
DOCKED: BRANCH  27  30
DOCKED: ATOM     30  C   UNL     1      20.810 -10.893  -6.424 -0.35 -0.00    +0.000 C 
DOCKED: ATOM     31  N   UNL     1      22.057 -11.314  -6.989 -0.35 -0.00    +0.000 N 
DOCKED: ATOM     32  O   UNL     1      19.817 -10.730  -7.185 -0.33 -0.00    +0.000 OA
DOCKED: ATOM     33  H   UNL     1      22.861 -11.363  -6.422 -0.04 -0.00    +0.000 HD
DOCKED: BRANCH  31  34
DOCKED: ATOM     34  O   UNL     1      22.137 -11.645  -8.300 -0.37 -0.00    +0.000 OA
DOCKED: ATOM     35  H   UNL     1      21.290 -12.017  -8.592 -0.48 -0.00    +0.000 HD
DOCKED: ENDBRANCH  31  34
DOCKED: ENDBRANCH  27  30
DOCKED: ENDBRANCH  22  24
DOCKED: ENDBRANCH  19  21
DOCKED: ENDBRANCH   1  19
DOCKED: TORSDOF 10
DOCKED: TER
DOCKED: ENDMDL
________________________________________________________________________________


	BEGINNING GENETIC ALGORITHM DOCKING 63 of 100
Run: 63 Seed: 669739082 1047171880 [ Run 63 of 100 GA/GALS ]
Beginning LAMARCKIAN GENETIC ALGORITHM (LGA), with a maximum of 2500000 energy evaluations.

Final-Value: -15.295


	FINAL GENETIC ALGORITHM DOCKED STATE
	_______________________________________________


Detailed state:  trans 18.976 -11.298 3.008 quatxyzw 0.682265 -0.151185 0.677744 -0.228736 center 1.858 0.218 -0.021 ntor 10 -176.9263 176.5745 -7.8487 -158.1427 57.9187 170.6895 46.2648 -48.3521 -153.3966 175.7598
State:	 18.976 -11.298   3.008   0.701 -0.155  0.696 -153.555   -176.93  176.57   -7.85 -158.14   57.92  170.69   46.26  -48.35 -153.40  175.76

DOCKED: MODEL       63
DOCKED: USER    Run = 63
DOCKED: USER    DPF = ligand_dock.biased.dpf
DOCKED: USER  
DOCKED: USER    Estimated Free Energy of Binding    =  -10.24 kcal/mol  [=(1)+(2)+(3)-(4)]
DOCKED: USER    Estimated Inhibition Constant, Ki   =   31.21 nM (nanomolar)  [Temperature = 298.15 K]
DOCKED: USER    
DOCKED: USER    (1) Final Intermolecular Energy     =  -13.22 kcal/mol
DOCKED: USER        vdW + Hbond + desolv Energy     =  -13.22 kcal/mol
DOCKED: USER        Electrostatic Energy            =   +0.00 kcal/mol
DOCKED: USER    (2) Final Total Internal Energy     =   -2.07 kcal/mol
DOCKED: USER    (3) Torsional Free Energy           =   +2.98 kcal/mol
DOCKED: USER    (4) Unbound System's Energy  [=(2)] =   -2.07 kcal/mol
DOCKED: USER    
DOCKED: USER    
DOCKED: USER    NEWDPF move ligand.pdbqt
DOCKED: USER    NEWDPF about 1.858000 0.218000 -0.021000
DOCKED: USER    NEWDPF tran0 18.976368 -11.298028 3.008118
DOCKED: USER    NEWDPF quaternion0 0.682265 -0.151185 0.677744 -0.228736
DOCKED: USER    NEWDPF axisangle0 0.700845 -0.155302 0.696202 -153.554613
DOCKED: USER    NEWDPF quat0 0.700845 -0.155302 0.696202 -153.554613
DOCKED: USER    NEWDPF dihe0 -176.93 176.57 -7.85 -158.14 57.92 170.69 46.26 -48.35 -153.40 175.76 
DOCKED: USER  keepresnum = 1 
DOCKED: USER  
DOCKED: REMARK  Name = 
DOCKED: REMARK  12 active torsions:
DOCKED: REMARK  status: ('A' for Active; 'I' for Inactive)
DOCKED: REMARK    1  A    between atoms: C_2  and  O_3
DOCKED: REMARK    2  A    between atoms: O_3  and  C_4
DOCKED: REMARK    3  A    between atoms: C_4  and  C_5
DOCKED: REMARK    4  A    between atoms: C_10  and  C_11
DOCKED: REMARK    5  A    between atoms: C_11  and  N_12
DOCKED: REMARK    6  A    between atoms: N_12  and  C_13
DOCKED: REMARK    7  A    between atoms: N_12  and  C_15
DOCKED: REMARK    8  A    between atoms: C_13  and  C_14
DOCKED: REMARK    9  A    between atoms: C_15  and  C_16
DOCKED: REMARK   10  A    between atoms: N_21  and  C_22
DOCKED: REMARK   11  A    between atoms: C_25  and  C_26
DOCKED: REMARK   12  A    between atoms: N_27  and  O_28
DOCKED: REMARK                            x       y       z     vdW  Elec       q    Type
DOCKED: REMARK                         _______ _______ _______ _____ _____    ______ ____
DOCKED: USER                              x       y       z     vdW  Elec       q    Type
DOCKED: USER                           _______ _______ _______ _____ _____    ______ ____
DOCKED: ROOT
DOCKED: ATOM      1  C   UNL     1      20.594 -11.531   2.817 -0.68 -0.00    +0.000 C 
DOCKED: ENDROOT
DOCKED: BRANCH   1   2
DOCKED: ATOM      2  C   UNL     1      20.153 -11.316   1.398 -0.66 -0.00    +0.000 A 
DOCKED: ATOM      3  C   UNL     1      19.111 -12.086   0.858 -0.55 -0.00    +0.000 A 
DOCKED: ATOM      4  C   UNL     1      18.720 -11.915  -0.472 -0.43 -0.00    +0.000 A 
DOCKED: ATOM      5  C   UNL     1      19.375 -10.979  -1.285 -0.40 -0.00    +0.000 A 
DOCKED: ATOM      6  C   UNL     1      18.990 -10.802  -2.623 -0.34 -0.00    +0.000 A 
DOCKED: ATOM      7  C   UNL     1      19.653  -9.867  -3.435 -0.34 -0.00    +0.000 A 
DOCKED: ATOM      8  C   UNL     1      20.704  -9.107  -2.899 -0.41 -0.00    +0.000 A 
DOCKED: ATOM      9  C   UNL     1      21.095  -9.278  -1.568 -0.53 -0.00    +0.000 A 
DOCKED: ATOM     10  C   UNL     1      20.437 -10.210  -0.753 -0.55 -0.00    +0.000 A 
DOCKED: ATOM     11  C   UNL     1      20.823 -10.389   0.584 -0.60 -0.00    +0.000 A 
DOCKED: BRANCH   7  12
DOCKED: ATOM     12  C   UNL     1      19.233  -9.657  -4.866 -0.27 -0.00    +0.000 C 
DOCKED: BRANCH  12  13
DOCKED: ATOM     13  N   UNL     1      19.756 -10.749  -5.715 -0.33 -0.00    +0.000 N 
DOCKED: ATOM     14  H   UNL     1      20.319 -10.332  -6.455 -0.01 -0.00    +0.000 HD
DOCKED: BRANCH  13  15
DOCKED: ATOM     15  C   UNL     1      18.661 -11.471  -6.404 -0.31 -0.00    +0.000 C 
DOCKED: ATOM     16  C   UNL     1      17.288 -11.078  -5.861 -0.33 -0.00    +0.000 C 
DOCKED: ENDBRANCH  13  15
DOCKED: BRANCH  13  17
DOCKED: ATOM     17  C   UNL     1      20.693 -11.631  -4.975 -0.53 -0.00    +0.000 C 
DOCKED: ATOM     18  C   UNL     1      22.128 -11.627  -5.522 -0.56 -0.00    +0.000 C 
DOCKED: ENDBRANCH  13  17
DOCKED: ENDBRANCH  12  13
DOCKED: ENDBRANCH   7  12
DOCKED: ENDBRANCH   1   2
DOCKED: BRANCH   1  19
DOCKED: ATOM     19  O   UNL     1      19.519 -11.214   3.695 -0.78 -0.00    +0.000 OA
DOCKED: BRANCH  19  21
DOCKED: ATOM     20  O   UNL     1      18.287  -9.705   2.458 -0.58 -0.00    +0.000 OA
DOCKED: ATOM     21  C   UNL     1      18.304 -10.694   3.244 -0.43 -0.00    +0.000 C 
DOCKED: ATOM     22  N   UNL     1      17.080 -11.268   3.719 -0.36 +0.00    +0.000 N 
DOCKED: ATOM     23  H   UNL     1      17.134 -11.929   4.447 -0.08 +0.00    +0.000 HD
DOCKED: BRANCH  22  24
DOCKED: ATOM     24  C   UNL     1      15.777 -10.946   3.203 -0.47 +0.00    +0.000 A 
DOCKED: ATOM     25  C   UNL     1      14.954 -10.064   3.917 -0.41 +0.00    +0.000 A 
DOCKED: ATOM     26  C   UNL     1      13.675  -9.750   3.449 -0.28 +0.00    +0.000 A 
DOCKED: ATOM     27  C   UNL     1      13.189 -10.320   2.260 -0.26 +0.00    +0.000 A 
DOCKED: ATOM     28  C   UNL     1      14.002 -11.232   1.563 -0.36 +0.00    +0.000 A 
DOCKED: ATOM     29  C   UNL     1      15.282 -11.545   2.032 -0.43 +0.00    +0.000 A 
DOCKED: BRANCH  27  30
DOCKED: ATOM     30  C   UNL     1      11.828  -9.981   1.777 -0.22 +0.00    +0.000 C 
DOCKED: ATOM     31  N   UNL     1      11.007 -10.950   1.114 -0.31 +0.00    +0.000 N 
DOCKED: ATOM     32  O   UNL     1      11.384  -8.812   1.940 -0.14 +0.00    +0.000 OA
DOCKED: ATOM     33  H   UNL     1      11.372 -11.840   0.905 -0.04 +0.00    +0.000 HD
DOCKED: BRANCH  31  34
DOCKED: ATOM     34  O   UNL     1       9.731 -10.647   0.774 -0.26 +0.00    +0.000 OA
DOCKED: ATOM     35  H   UNL     1       9.490  -9.790   1.156 +0.00 +0.00    +0.000 HD
DOCKED: ENDBRANCH  31  34
DOCKED: ENDBRANCH  27  30
DOCKED: ENDBRANCH  22  24
DOCKED: ENDBRANCH  19  21
DOCKED: ENDBRANCH   1  19
DOCKED: TORSDOF 10
DOCKED: TER
DOCKED: ENDMDL
________________________________________________________________________________


	BEGINNING GENETIC ALGORITHM DOCKING 64 of 100
Run: 64 Seed: 364288835 741472095 [ Run 64 of 100 GA/GALS ]
Beginning LAMARCKIAN GENETIC ALGORITHM (LGA), with a maximum of 2500000 energy evaluations.

Final-Value: -13.843


	FINAL GENETIC ALGORITHM DOCKED STATE
	_______________________________________________


Detailed state:  trans 14.788 -3.610 4.659 quatxyzw 0.081856 -0.343035 0.523033 -0.775927 center 1.858 0.218 -0.021 ntor 10 -71.7624 -118.3199 5.3975 127.5705 113.2428 121.2799 141.8464 97.1227 -140.2758 144.1846
State:	 14.788  -3.610   4.659   0.130 -0.544  0.829 -78.222    -71.76 -118.32    5.40  127.57  113.24  121.28  141.85   97.12 -140.28  144.18

DOCKED: MODEL       64
DOCKED: USER    Run = 64
DOCKED: USER    DPF = ligand_dock.biased.dpf
DOCKED: USER  
DOCKED: USER    Estimated Free Energy of Binding    =   -8.92 kcal/mol  [=(1)+(2)+(3)-(4)]
DOCKED: USER    Estimated Inhibition Constant, Ki   =  290.24 nM (nanomolar)  [Temperature = 298.15 K]
DOCKED: USER    
DOCKED: USER    (1) Final Intermolecular Energy     =  -11.90 kcal/mol
DOCKED: USER        vdW + Hbond + desolv Energy     =  -11.90 kcal/mol
DOCKED: USER        Electrostatic Energy            =   +0.00 kcal/mol
DOCKED: USER    (2) Final Total Internal Energy     =   -1.94 kcal/mol
DOCKED: USER    (3) Torsional Free Energy           =   +2.98 kcal/mol
DOCKED: USER    (4) Unbound System's Energy  [=(2)] =   -1.94 kcal/mol
DOCKED: USER    
DOCKED: USER    
DOCKED: USER    NEWDPF move ligand.pdbqt
DOCKED: USER    NEWDPF about 1.858000 0.218000 -0.021000
DOCKED: USER    NEWDPF tran0 14.788480 -3.610026 4.658872
DOCKED: USER    NEWDPF quaternion0 0.081856 -0.343035 0.523033 -0.775927
DOCKED: USER    NEWDPF axisangle0 0.129761 -0.543791 0.829128 -78.221627
DOCKED: USER    NEWDPF quat0 0.129761 -0.543791 0.829128 -78.221627
DOCKED: USER    NEWDPF dihe0 -71.76 -118.32 5.40 127.57 113.24 121.28 141.85 97.12 -140.28 144.18 
DOCKED: USER  keepresnum = 1 
DOCKED: USER  
DOCKED: REMARK  Name = 
DOCKED: REMARK  12 active torsions:
DOCKED: REMARK  status: ('A' for Active; 'I' for Inactive)
DOCKED: REMARK    1  A    between atoms: C_2  and  O_3
DOCKED: REMARK    2  A    between atoms: O_3  and  C_4
DOCKED: REMARK    3  A    between atoms: C_4  and  C_5
DOCKED: REMARK    4  A    between atoms: C_10  and  C_11
DOCKED: REMARK    5  A    between atoms: C_11  and  N_12
DOCKED: REMARK    6  A    between atoms: N_12  and  C_13
DOCKED: REMARK    7  A    between atoms: N_12  and  C_15
DOCKED: REMARK    8  A    between atoms: C_13  and  C_14
DOCKED: REMARK    9  A    between atoms: C_15  and  C_16
DOCKED: REMARK   10  A    between atoms: N_21  and  C_22
DOCKED: REMARK   11  A    between atoms: C_25  and  C_26
DOCKED: REMARK   12  A    between atoms: N_27  and  O_28
DOCKED: REMARK                            x       y       z     vdW  Elec       q    Type
DOCKED: REMARK                         _______ _______ _______ _____ _____    ______ ____
DOCKED: USER                              x       y       z     vdW  Elec       q    Type
DOCKED: USER                           _______ _______ _______ _____ _____    ______ ____
DOCKED: ROOT
DOCKED: ATOM      1  C   UNL     1      14.655  -4.747   5.841 -0.49 +0.00    +0.000 C 
DOCKED: ENDROOT
DOCKED: BRANCH   1   2
DOCKED: ATOM      2  C   UNL     1      14.676  -5.600   4.607 -0.36 +0.00    +0.000 A 
DOCKED: ATOM      3  C   UNL     1      13.981  -5.196   3.457 -0.21 +0.00    +0.000 A 
DOCKED: ATOM      4  C   UNL     1      13.967  -6.003   2.317 -0.19 +0.00    +0.000 A 
DOCKED: ATOM      5  C   UNL     1      14.638  -7.234   2.316 -0.24 +0.00    +0.000 A 
DOCKED: ATOM      6  C   UNL     1      14.628  -8.052   1.175 -0.23 +0.00    +0.000 A 
DOCKED: ATOM      7  C   UNL     1      15.298  -9.286   1.182 -0.25 +0.00    +0.000 A 
DOCKED: ATOM      8  C   UNL     1      15.981  -9.698   2.337 -0.34 +0.00    +0.000 A 
DOCKED: ATOM      9  C   UNL     1      15.995  -8.890   3.477 -0.32 +0.00    +0.000 A 
DOCKED: ATOM     10  C   UNL     1      15.327  -7.657   3.477 -0.26 +0.00    +0.000 A 
DOCKED: ATOM     11  C   UNL     1      15.336  -6.839   4.617 -0.40 +0.00    +0.000 A 
DOCKED: BRANCH   7  12
DOCKED: ATOM     12  C   UNL     1      15.308 -10.161  -0.044 -0.29 +0.00    +0.000 C 
DOCKED: BRANCH  12  13
DOCKED: ATOM     13  N   UNL     1      14.854 -11.526   0.301 -0.35 +0.00    +0.000 N 
DOCKED: ATOM     14  H   UNL     1      14.596 -12.002  -0.563 -0.01 +0.00    +0.000 HD
DOCKED: BRANCH  13  15
DOCKED: ATOM     15  C   UNL     1      13.623 -11.495   1.125 -0.43 +0.00    +0.000 C 
DOCKED: ATOM     16  C   UNL     1      12.362 -11.628   0.271 -0.39 +0.00    +0.000 C 
DOCKED: ENDBRANCH  13  15
DOCKED: BRANCH  13  17
DOCKED: ATOM     17  C   UNL     1      15.948 -12.349   0.876 -0.48 +0.00    +0.000 C 
DOCKED: ATOM     18  C   UNL     1      17.231 -12.371   0.032 -0.53 +0.00    +0.000 C 
DOCKED: ENDBRANCH  13  17
DOCKED: ENDBRANCH  12  13
DOCKED: ENDBRANCH   7  12
DOCKED: ENDBRANCH   1   2
DOCKED: BRANCH   1  19
DOCKED: ATOM     19  O   UNL     1      14.989  -3.407   5.491 -0.52 -0.00    +0.000 OA
DOCKED: BRANCH  19  21
DOCKED: ATOM     20  O   UNL     1      15.545  -2.843   3.324 -0.40 -0.00    +0.000 OA
DOCKED: ATOM     21  C   UNL     1      15.925  -3.097   4.501 -0.52 -0.00    +0.000 C 
DOCKED: ATOM     22  N   UNL     1      17.320  -3.115   4.829 -0.35 -0.00    +0.000 N 
DOCKED: ATOM     23  H   UNL     1      17.580  -3.470   5.710 -0.20 -0.00    +0.000 HD
DOCKED: BRANCH  22  24
DOCKED: ATOM     24  C   UNL     1      18.365  -2.648   3.959 -0.24 -0.00    +0.000 A 
DOCKED: ATOM     25  C   UNL     1      18.045  -2.248   2.654 -0.43 -0.00    +0.000 A 
DOCKED: ATOM     26  C   UNL     1      19.045  -1.811   1.781 -0.37 -0.00    +0.000 A 
DOCKED: ATOM     27  C   UNL     1      20.388  -1.773   2.193 -0.51 -0.00    +0.000 A 
DOCKED: ATOM     28  C   UNL     1      20.712  -2.208   3.491 -0.72 -0.00    +0.000 A 
DOCKED: ATOM     29  C   UNL     1      19.711  -2.645   4.364 -0.40 -0.00    +0.000 A 
DOCKED: BRANCH  27  30
DOCKED: ATOM     30  C   UNL     1      21.439  -1.310   1.253 -0.41 -0.00    +0.000 C 
DOCKED: ATOM     31  N   UNL     1      22.113  -2.223   0.379 -0.35 -0.00    +0.000 N 
DOCKED: ATOM     32  O   UNL     1      21.759  -0.091   1.231 -0.32 -0.00    +0.000 OA
DOCKED: ATOM     33  H   UNL     1      21.934  -3.189   0.445 -0.05 +0.00    +0.000 HD
DOCKED: BRANCH  31  34
DOCKED: ATOM     34  O   UNL     1      22.995  -1.763  -0.541 -0.32 -0.00    +0.000 OA
DOCKED: ATOM     35  H   UNL     1      23.120  -0.809  -0.420 -0.01 -0.00    +0.000 HD
DOCKED: ENDBRANCH  31  34
DOCKED: ENDBRANCH  27  30
DOCKED: ENDBRANCH  22  24
DOCKED: ENDBRANCH  19  21
DOCKED: ENDBRANCH   1  19
DOCKED: TORSDOF 10
DOCKED: TER
DOCKED: ENDMDL
________________________________________________________________________________


	BEGINNING GENETIC ALGORITHM DOCKING 65 of 100
Run: 65 Seed: 1762008629 967542994 [ Run 65 of 100 GA/GALS ]
Beginning LAMARCKIAN GENETIC ALGORITHM (LGA), with a maximum of 2500000 energy evaluations.

Final-Value: -15.063


	FINAL GENETIC ALGORITHM DOCKED STATE
	_______________________________________________


Detailed state:  trans 20.534 -9.680 -6.003 quatxyzw -0.975154 -0.051268 0.214345 0.022417 center 1.858 0.218 -0.021 ntor 10 30.9095 179.7027 -166.2077 180.0000 60.4624 170.8125 -65.4882 -124.1030 -20.6385 -180.0000
State:	 20.534  -9.680  -6.003  -0.975 -0.051  0.214 177.431     30.91  179.70 -166.21  180.00   60.46  170.81  -65.49 -124.10  -20.64 -180.00

DOCKED: MODEL       65
DOCKED: USER    Run = 65
DOCKED: USER    DPF = ligand_dock.biased.dpf
DOCKED: USER  
DOCKED: USER    Estimated Free Energy of Binding    =   -9.15 kcal/mol  [=(1)+(2)+(3)-(4)]
DOCKED: USER    Estimated Inhibition Constant, Ki   =  196.43 nM (nanomolar)  [Temperature = 298.15 K]
DOCKED: USER    
DOCKED: USER    (1) Final Intermolecular Energy     =  -12.13 kcal/mol
DOCKED: USER        vdW + Hbond + desolv Energy     =  -12.13 kcal/mol
DOCKED: USER        Electrostatic Energy            =   +0.00 kcal/mol
DOCKED: USER    (2) Final Total Internal Energy     =   -2.93 kcal/mol
DOCKED: USER    (3) Torsional Free Energy           =   +2.98 kcal/mol
DOCKED: USER    (4) Unbound System's Energy  [=(2)] =   -2.93 kcal/mol
DOCKED: USER    
DOCKED: USER    
DOCKED: USER    NEWDPF move ligand.pdbqt
DOCKED: USER    NEWDPF about 1.858000 0.218000 -0.021000
DOCKED: USER    NEWDPF tran0 20.533642 -9.679782 -6.003498
DOCKED: USER    NEWDPF quaternion0 -0.975154 -0.051268 0.214345 0.022417
DOCKED: USER    NEWDPF axisangle0 -0.975399 -0.051281 0.214399 177.431002
DOCKED: USER    NEWDPF quat0 -0.975399 -0.051281 0.214399 177.431002
DOCKED: USER    NEWDPF dihe0 30.91 179.70 -166.21 180.00 60.46 170.81 -65.49 -124.10 -20.64 -180.00 
DOCKED: USER  keepresnum = 1 
DOCKED: USER  
DOCKED: REMARK  Name = 
DOCKED: REMARK  12 active torsions:
DOCKED: REMARK  status: ('A' for Active; 'I' for Inactive)
DOCKED: REMARK    1  A    between atoms: C_2  and  O_3
DOCKED: REMARK    2  A    between atoms: O_3  and  C_4
DOCKED: REMARK    3  A    between atoms: C_4  and  C_5
DOCKED: REMARK    4  A    between atoms: C_10  and  C_11
DOCKED: REMARK    5  A    between atoms: C_11  and  N_12
DOCKED: REMARK    6  A    between atoms: N_12  and  C_13
DOCKED: REMARK    7  A    between atoms: N_12  and  C_15
DOCKED: REMARK    8  A    between atoms: C_13  and  C_14
DOCKED: REMARK    9  A    between atoms: C_15  and  C_16
DOCKED: REMARK   10  A    between atoms: N_21  and  C_22
DOCKED: REMARK   11  A    between atoms: C_25  and  C_26
DOCKED: REMARK   12  A    between atoms: N_27  and  O_28
DOCKED: REMARK                            x       y       z     vdW  Elec       q    Type
DOCKED: REMARK                         _______ _______ _______ _____ _____    ______ ____
DOCKED: USER                              x       y       z     vdW  Elec       q    Type
DOCKED: USER                           _______ _______ _______ _____ _____    ______ ____
DOCKED: ROOT
DOCKED: ATOM      1  C   UNL     1      19.696  -9.139  -7.312 -0.15 -0.00    +0.000 C 
DOCKED: ENDROOT
DOCKED: BRANCH   1   2
DOCKED: ATOM      2  C   UNL     1      18.635  -9.125  -6.252 -0.13 -0.00    +0.000 A 
DOCKED: ATOM      3  C   UNL     1      18.574  -8.071  -5.328 -0.14 -0.00    +0.000 A 
DOCKED: ATOM      4  C   UNL     1      17.610  -8.070  -4.316 -0.03 -0.00    +0.000 A 
DOCKED: ATOM      5  C   UNL     1      16.702  -9.133  -4.206 -0.18 -0.00    +0.000 A 
DOCKED: ATOM      6  C   UNL     1      15.732  -9.141  -3.192 -0.19 -0.00    +0.000 A 
DOCKED: ATOM      7  C   UNL     1      14.829 -10.211  -3.083 -0.24 -0.00    +0.000 A 
DOCKED: ATOM      8  C   UNL     1      14.899 -11.273  -3.999 -0.22 -0.00    +0.000 A 
DOCKED: ATOM      9  C   UNL     1      15.862 -11.272  -5.010 -0.13 -0.00    +0.000 A 
DOCKED: ATOM     10  C   UNL     1      16.768 -10.208  -5.123 -0.21 -0.00    +0.000 A 
DOCKED: ATOM     11  C   UNL     1      17.739 -10.199  -6.136 -0.22 -0.00    +0.000 A 
DOCKED: BRANCH   7  12
DOCKED: ATOM     12  C   UNL     1      13.772 -10.218  -2.009 -0.27 -0.00    +0.000 C 
DOCKED: BRANCH  12  13
DOCKED: ATOM     13  N   UNL     1      14.369 -10.602  -0.712 -0.25 +0.00    +0.000 N 
DOCKED: ATOM     14  H   UNL     1      13.680 -11.149  -0.197 -0.00 +0.00    +0.000 HD
DOCKED: BRANCH  13  15
DOCKED: ATOM     15  C   UNL     1      14.645  -9.413   0.129 -0.26 +0.00    +0.000 C 
DOCKED: ATOM     16  C   UNL     1      15.621  -9.730   1.261 -0.32 +0.00    +0.000 C 
DOCKED: ENDBRANCH  13  15
DOCKED: BRANCH  13  17
DOCKED: ATOM     17  C   UNL     1      15.530 -11.511  -0.879 -0.37 +0.00    +0.000 C 
DOCKED: ATOM     18  C   UNL     1      15.304 -12.929  -0.334 -0.56 +0.00    +0.000 C 
DOCKED: ENDBRANCH  13  17
DOCKED: ENDBRANCH  12  13
DOCKED: ENDBRANCH   7  12
DOCKED: ENDBRANCH   1   2
DOCKED: BRANCH   1  19
DOCKED: ATOM     19  O   UNL     1      20.963  -9.368  -6.705 -0.19 -0.00    +0.000 OA
DOCKED: BRANCH  19  21
DOCKED: ATOM     20  O   UNL     1      21.922  -8.814  -4.680 -0.36 -0.00    +0.000 OA
DOCKED: ATOM     21  C   UNL     1      21.119  -9.543  -5.327 -0.33 -0.00    +0.000 C 
DOCKED: ATOM     22  N   UNL     1      20.390 -10.587  -4.670 -0.38 -0.00    +0.000 N 
DOCKED: ATOM     23  H   UNL     1      19.899 -11.230  -5.233 -0.03 -0.00    +0.000 HD
DOCKED: BRANCH  22  24
DOCKED: ATOM     24  C   UNL     1      20.325 -10.759  -3.244 -0.42 -0.00    +0.000 A 
DOCKED: ATOM     25  C   UNL     1      19.155 -11.270  -2.666 -0.26 -0.00    +0.000 A 
DOCKED: ATOM     26  C   UNL     1      19.058 -11.427  -1.281 -0.31 -0.00    +0.000 A 
DOCKED: ATOM     27  C   UNL     1      20.128 -11.067  -0.443 -0.45 -0.00    +0.000 A 
DOCKED: ATOM     28  C   UNL     1      21.288 -10.521  -1.022 -0.59 -0.00    +0.000 A 
DOCKED: ATOM     29  C   UNL     1      21.385 -10.365  -2.408 -0.50 -0.00    +0.000 A 
DOCKED: BRANCH  27  30
DOCKED: ATOM     30  C   UNL     1      20.009 -11.236   1.026 -0.70 -0.00    +0.000 C 
DOCKED: ATOM     31  N   UNL     1      20.565 -10.278   1.935 -0.44 -0.00    +0.000 N 
DOCKED: ATOM     32  O   UNL     1      19.419 -12.249   1.489 -1.47 -0.00    +0.000 OA
DOCKED: ATOM     33  H   UNL     1      21.101  -9.528   1.590 -0.51 -0.00    +0.000 HD
DOCKED: BRANCH  31  34
DOCKED: ATOM     34  O   UNL     1      20.356 -10.400   3.268 -0.78 -0.00    +0.000 OA
DOCKED: ATOM     35  H   UNL     1      20.605  -9.574   3.711 -0.53 -0.00    +0.000 HD
DOCKED: ENDBRANCH  31  34
DOCKED: ENDBRANCH  27  30
DOCKED: ENDBRANCH  22  24
DOCKED: ENDBRANCH  19  21
DOCKED: ENDBRANCH   1  19
DOCKED: TORSDOF 10
DOCKED: TER
DOCKED: ENDMDL
________________________________________________________________________________


	BEGINNING GENETIC ALGORITHM DOCKING 66 of 100
Run: 66 Seed: 2014738981 362393013 [ Run 66 of 100 GA/GALS ]
Beginning LAMARCKIAN GENETIC ALGORITHM (LGA), with a maximum of 2500000 energy evaluations.

Final-Value: -16.246


	FINAL GENETIC ALGORITHM DOCKED STATE
	_______________________________________________


Detailed state:  trans 19.030 -10.935 2.945 quatxyzw -0.670843 0.146540 -0.676465 0.266253 center 1.858 0.218 -0.021 ntor 10 -161.8010 -178.8084 179.9710 -166.0517 -108.0961 -179.8436 -126.8607 -56.9518 -161.1604 -169.9007
State:	 19.030 -10.935   2.945  -0.696  0.152 -0.702 149.117   -161.80 -178.81  179.97 -166.05 -108.10 -179.84 -126.86  -56.95 -161.16 -169.90

DOCKED: MODEL       66
DOCKED: USER    Run = 66
DOCKED: USER    DPF = ligand_dock.biased.dpf
DOCKED: USER  
DOCKED: USER    Estimated Free Energy of Binding    =  -11.69 kcal/mol  [=(1)+(2)+(3)-(4)]
DOCKED: USER    Estimated Inhibition Constant, Ki   =    2.71 nM (nanomolar)  [Temperature = 298.15 K]
DOCKED: USER    
DOCKED: USER    (1) Final Intermolecular Energy     =  -14.67 kcal/mol
DOCKED: USER        vdW + Hbond + desolv Energy     =  -14.67 kcal/mol
DOCKED: USER        Electrostatic Energy            =   +0.00 kcal/mol
DOCKED: USER    (2) Final Total Internal Energy     =   -1.58 kcal/mol
DOCKED: USER    (3) Torsional Free Energy           =   +2.98 kcal/mol
DOCKED: USER    (4) Unbound System's Energy  [=(2)] =   -1.58 kcal/mol
DOCKED: USER    
DOCKED: USER    
DOCKED: USER    NEWDPF move ligand.pdbqt
DOCKED: USER    NEWDPF about 1.858000 0.218000 -0.021000
DOCKED: USER    NEWDPF tran0 19.030253 -10.935030 2.944582
DOCKED: USER    NEWDPF quaternion0 -0.670843 0.146540 -0.676465 0.266253
DOCKED: USER    NEWDPF axisangle0 -0.695966 0.152027 -0.701797 149.117193
DOCKED: USER    NEWDPF quat0 -0.695966 0.152027 -0.701797 149.117193
DOCKED: USER    NEWDPF dihe0 -161.80 -178.81 179.97 -166.05 -108.10 -179.84 -126.86 -56.95 -161.16 -169.90 
DOCKED: USER  keepresnum = 1 
DOCKED: USER  
DOCKED: REMARK  Name = 
DOCKED: REMARK  12 active torsions:
DOCKED: REMARK  status: ('A' for Active; 'I' for Inactive)
DOCKED: REMARK    1  A    between atoms: C_2  and  O_3
DOCKED: REMARK    2  A    between atoms: O_3  and  C_4
DOCKED: REMARK    3  A    between atoms: C_4  and  C_5
DOCKED: REMARK    4  A    between atoms: C_10  and  C_11
DOCKED: REMARK    5  A    between atoms: C_11  and  N_12
DOCKED: REMARK    6  A    between atoms: N_12  and  C_13
DOCKED: REMARK    7  A    between atoms: N_12  and  C_15
DOCKED: REMARK    8  A    between atoms: C_13  and  C_14
DOCKED: REMARK    9  A    between atoms: C_15  and  C_16
DOCKED: REMARK   10  A    between atoms: N_21  and  C_22
DOCKED: REMARK   11  A    between atoms: C_25  and  C_26
DOCKED: REMARK   12  A    between atoms: N_27  and  O_28
DOCKED: REMARK                            x       y       z     vdW  Elec       q    Type
DOCKED: REMARK                         _______ _______ _______ _____ _____    ______ ____
DOCKED: USER                              x       y       z     vdW  Elec       q    Type
DOCKED: USER                           _______ _______ _______ _____ _____    ______ ____
DOCKED: ROOT
DOCKED: ATOM      1  C   UNL     1      20.634 -11.257   2.771 -0.68 -0.00    +0.000 C 
DOCKED: ENDROOT
DOCKED: BRANCH   1   2
DOCKED: ATOM      2  C   UNL     1      20.202 -11.110   1.341 -0.64 -0.00    +0.000 A 
DOCKED: ATOM      3  C   UNL     1      19.235 -11.973   0.803 -0.57 -0.00    +0.000 A 
DOCKED: ATOM      4  C   UNL     1      18.855 -11.863  -0.537 -0.39 -0.00    +0.000 A 
DOCKED: ATOM      5  C   UNL     1      19.448 -10.897  -1.362 -0.42 -0.00    +0.000 A 
DOCKED: ATOM      6  C   UNL     1      19.073 -10.781  -2.709 -0.36 -0.00    +0.000 A 
DOCKED: ATOM      7  C   UNL     1      19.674  -9.814  -3.532 -0.33 -0.00    +0.000 A 
DOCKED: ATOM      8  C   UNL     1      20.651  -8.960  -2.997 -0.40 -0.00    +0.000 A 
DOCKED: ATOM      9  C   UNL     1      21.031  -9.070  -1.658 -0.51 -0.00    +0.000 A 
DOCKED: ATOM     10  C   UNL     1      20.436 -10.034  -0.831 -0.54 -0.00    +0.000 A 
DOCKED: ATOM     11  C   UNL     1      20.811 -10.151   0.516 -0.59 -0.00    +0.000 A 
DOCKED: BRANCH   7  12
DOCKED: ATOM     12  C   UNL     1      19.263  -9.670  -4.974 -0.26 -0.00    +0.000 C 
DOCKED: BRANCH  12  13
DOCKED: ATOM     13  N   UNL     1      19.696 -10.854  -5.746 -0.35 -0.00    +0.000 N 
DOCKED: ATOM     14  H   UNL     1      20.173 -10.528  -6.586 -0.01 -0.00    +0.000 HD
DOCKED: BRANCH  13  15
DOCKED: ATOM     15  C   UNL     1      18.535 -11.641  -6.227 -0.29 -0.00    +0.000 C 
DOCKED: ATOM     16  C   UNL     1      17.208 -10.963  -5.890 -0.32 -0.00    +0.000 C 
DOCKED: ENDBRANCH  13  15
DOCKED: BRANCH  13  17
DOCKED: ATOM     17  C   UNL     1      20.712 -11.655  -5.018 -0.53 -0.00    +0.000 C 
DOCKED: ATOM     18  C   UNL     1      22.109 -11.632  -5.656 -0.56 -0.00    +0.000 C 
DOCKED: ENDBRANCH  13  17
DOCKED: ENDBRANCH  12  13
DOCKED: ENDBRANCH   7  12
DOCKED: ENDBRANCH   1   2
DOCKED: BRANCH   1  19
DOCKED: ATOM     19  O   UNL     1      19.577 -10.835   3.626 -0.75 -0.00    +0.000 OA
DOCKED: BRANCH  19  21
DOCKED: ATOM     20  O   UNL     1      18.111  -9.685   2.266 -0.52 -0.00    +0.000 OA
DOCKED: ATOM     21  C   UNL     1      18.290 -10.561   3.157 -0.43 -0.00    +0.000 C 
DOCKED: ATOM     22  N   UNL     1      17.176 -11.257   3.731 -0.34 +0.00    +0.000 N 
DOCKED: ATOM     23  H   UNL     1      17.342 -11.813   4.526 -0.05 +0.00    +0.000 HD
DOCKED: BRANCH  22  24
DOCKED: ATOM     24  C   UNL     1      15.833 -11.199   3.222 -0.46 +0.00    +0.000 A 
DOCKED: ATOM     25  C   UNL     1      15.449 -12.071   2.194 -0.37 +0.00    +0.000 A 
DOCKED: ATOM     26  C   UNL     1      14.155 -12.021   1.666 -0.39 +0.00    +0.000 A 
DOCKED: ATOM     27  C   UNL     1      13.221 -11.090   2.151 -0.33 +0.00    +0.000 A 
DOCKED: ATOM     28  C   UNL     1      13.618 -10.191   3.158 -0.28 +0.00    +0.000 A 
DOCKED: ATOM     29  C   UNL     1      14.912 -10.243   3.686 -0.41 +0.00    +0.000 A 
DOCKED: BRANCH  27  30
DOCKED: ATOM     30  C   UNL     1      11.853 -11.045   1.578 -0.34 +0.00    +0.000 C 
DOCKED: ATOM     31  N   UNL     1      11.068 -12.233   1.426 -0.46 +0.00    +0.000 N 
DOCKED: ATOM     32  O   UNL     1      11.373  -9.941   1.203 -0.20 +0.00    +0.000 OA
DOCKED: ATOM     33  H   UNL     1      11.461 -13.111   1.635 -0.50 +0.00    +0.000 HD
DOCKED: BRANCH  31  34
DOCKED: ATOM     34  O   UNL     1       9.786 -12.155   0.996 -0.48 +0.00    +0.000 OA
DOCKED: ATOM     35  H   UNL     1       9.405 -13.045   0.949 -0.61 -0.00    +0.000 HD
DOCKED: ENDBRANCH  31  34
DOCKED: ENDBRANCH  27  30
DOCKED: ENDBRANCH  22  24
DOCKED: ENDBRANCH  19  21
DOCKED: ENDBRANCH   1  19
DOCKED: TORSDOF 10
DOCKED: TER
DOCKED: ENDMDL
________________________________________________________________________________


	BEGINNING GENETIC ALGORITHM DOCKING 67 of 100
Run: 67 Seed: 1825402527 464823787 [ Run 67 of 100 GA/GALS ]
Beginning LAMARCKIAN GENETIC ALGORITHM (LGA), with a maximum of 2500000 energy evaluations.

Final-Value: -17.094


	FINAL GENETIC ALGORITHM DOCKED STATE
	_______________________________________________


Detailed state:  trans 18.809 -10.618 2.612 quatxyzw -0.007144 -0.328622 -0.166765 -0.929594 center 1.858 0.218 -0.021 ntor 10 -7.2926 -173.6067 -19.1233 -165.9494 67.8305 -16.7483 -130.8551 -105.4014 174.6102 159.0932
State:	 18.809 -10.618   2.612  -0.019 -0.892 -0.452 -43.257     -7.29 -173.61  -19.12 -165.95   67.83  -16.75 -130.86 -105.40  174.61  159.09

DOCKED: MODEL       67
DOCKED: USER    Run = 67
DOCKED: USER    DPF = ligand_dock.biased.dpf
DOCKED: USER  
DOCKED: USER    Estimated Free Energy of Binding    =  -10.64 kcal/mol  [=(1)+(2)+(3)-(4)]
DOCKED: USER    Estimated Inhibition Constant, Ki   =   16.01 nM (nanomolar)  [Temperature = 298.15 K]
DOCKED: USER    
DOCKED: USER    (1) Final Intermolecular Energy     =  -13.62 kcal/mol
DOCKED: USER        vdW + Hbond + desolv Energy     =  -13.62 kcal/mol
DOCKED: USER        Electrostatic Energy            =   +0.00 kcal/mol
DOCKED: USER    (2) Final Total Internal Energy     =   -3.48 kcal/mol
DOCKED: USER    (3) Torsional Free Energy           =   +2.98 kcal/mol
DOCKED: USER    (4) Unbound System's Energy  [=(2)] =   -3.48 kcal/mol
DOCKED: USER    
DOCKED: USER    
DOCKED: USER    NEWDPF move ligand.pdbqt
DOCKED: USER    NEWDPF about 1.858000 0.218000 -0.021000
DOCKED: USER    NEWDPF tran0 18.809085 -10.617802 2.612306
DOCKED: USER    NEWDPF quaternion0 -0.007144 -0.328622 -0.166765 -0.929594
DOCKED: USER    NEWDPF axisangle0 -0.019381 -0.891581 -0.452446 -43.256628
DOCKED: USER    NEWDPF quat0 -0.019381 -0.891581 -0.452446 -43.256628
DOCKED: USER    NEWDPF dihe0 -7.29 -173.61 -19.12 -165.95 67.83 -16.75 -130.86 -105.40 174.61 159.09 
DOCKED: USER  keepresnum = 1 
DOCKED: USER  
DOCKED: REMARK  Name = 
DOCKED: REMARK  12 active torsions:
DOCKED: REMARK  status: ('A' for Active; 'I' for Inactive)
DOCKED: REMARK    1  A    between atoms: C_2  and  O_3
DOCKED: REMARK    2  A    between atoms: O_3  and  C_4
DOCKED: REMARK    3  A    between atoms: C_4  and  C_5
DOCKED: REMARK    4  A    between atoms: C_10  and  C_11
DOCKED: REMARK    5  A    between atoms: C_11  and  N_12
DOCKED: REMARK    6  A    between atoms: N_12  and  C_13
DOCKED: REMARK    7  A    between atoms: N_12  and  C_15
DOCKED: REMARK    8  A    between atoms: C_13  and  C_14
DOCKED: REMARK    9  A    between atoms: C_15  and  C_16
DOCKED: REMARK   10  A    between atoms: N_21  and  C_22
DOCKED: REMARK   11  A    between atoms: C_25  and  C_26
DOCKED: REMARK   12  A    between atoms: N_27  and  O_28
DOCKED: REMARK                            x       y       z     vdW  Elec       q    Type
DOCKED: REMARK                         _______ _______ _______ _____ _____    ______ ____
DOCKED: USER                              x       y       z     vdW  Elec       q    Type
DOCKED: USER                           _______ _______ _______ _____ _____    ______ ____
DOCKED: ROOT
DOCKED: ATOM      1  C   UNL     1      17.575 -11.007   3.628 -0.14 +0.00    +0.000 C 
DOCKED: ENDROOT
DOCKED: BRANCH   1   2
DOCKED: ATOM      2  C   UNL     1      16.837 -10.744   2.348 -0.41 +0.00    +0.000 A 
DOCKED: ATOM      3  C   UNL     1      16.462  -9.436   2.006 -0.24 +0.00    +0.000 A 
DOCKED: ATOM      4  C   UNL     1      15.743  -9.189   0.833 -0.09 +0.00    +0.000 A 
DOCKED: ATOM      5  C   UNL     1      15.378 -10.250  -0.007 -0.26 +0.00    +0.000 A 
DOCKED: ATOM      6  C   UNL     1      14.655 -10.011  -1.186 -0.24 -0.00    +0.000 A 
DOCKED: ATOM      7  C   UNL     1      14.287 -11.079  -2.021 -0.30 -0.00    +0.000 A 
DOCKED: ATOM      8  C   UNL     1      14.650 -12.389  -1.671 -0.27 +0.00    +0.000 A 
DOCKED: ATOM      9  C   UNL     1      15.369 -12.635  -0.499 -0.47 +0.00    +0.000 A 
DOCKED: ATOM     10  C   UNL     1      15.738 -11.574   0.340 -0.37 +0.00    +0.000 A 
DOCKED: ATOM     11  C   UNL     1      16.460 -11.812   1.519 -0.39 +0.00    +0.000 A 
DOCKED: BRANCH   7  12
DOCKED: ATOM     12  C   UNL     1      13.528 -10.829  -3.298 -0.22 -0.00    +0.000 C 
DOCKED: BRANCH  12  13
DOCKED: ATOM     13  N   UNL     1      14.467 -10.729  -4.436 -0.25 -0.00    +0.000 N 
DOCKED: ATOM     14  H   UNL     1      14.235  -9.888  -4.964 +0.00 -0.00    +0.000 HD
DOCKED: BRANCH  13  15
DOCKED: ATOM     15  C   UNL     1      14.293 -11.856  -5.382 -0.29 -0.00    +0.000 C 
DOCKED: ATOM     16  C   UNL     1      14.844 -11.527  -6.769 -0.28 -0.00    +0.000 C 
DOCKED: ENDBRANCH  13  15
DOCKED: BRANCH  13  17
DOCKED: ATOM     17  C   UNL     1      15.867 -10.522  -3.988 -0.23 -0.00    +0.000 C 
DOCKED: ATOM     18  C   UNL     1      16.400  -9.101  -4.219 -0.20 -0.00    +0.000 C 
DOCKED: ENDBRANCH  13  17
DOCKED: ENDBRANCH  12  13
DOCKED: ENDBRANCH   7  12
DOCKED: ENDBRANCH   1   2
DOCKED: BRANCH   1  19
DOCKED: ATOM     19  O   UNL     1      18.974 -11.044   3.364 -0.70 -0.00    +0.000 OA
DOCKED: BRANCH  19  21
DOCKED: ATOM     20  O   UNL     1      20.030 -12.394   1.820 -1.73 -0.00    +0.000 OA
DOCKED: ATOM     21  C   UNL     1      19.495 -11.283   2.090 -0.70 -0.00    +0.000 C 
DOCKED: ATOM     22  N   UNL     1      19.452 -10.237   1.112 -0.50 -0.00    +0.000 N 
DOCKED: ATOM     23  H   UNL     1      19.172  -9.341   1.408 -0.12 -0.00    +0.000 HD
DOCKED: BRANCH  22  24
DOCKED: ATOM     24  C   UNL     1      19.790 -10.408  -0.275 -0.47 -0.00    +0.000 A 
DOCKED: ATOM     25  C   UNL     1      18.837 -10.940  -1.155 -0.40 -0.00    +0.000 A 
DOCKED: ATOM     26  C   UNL     1      19.147 -11.137  -2.503 -0.31 -0.00    +0.000 A 
DOCKED: ATOM     27  C   UNL     1      20.421 -10.813  -2.999 -0.41 -0.00    +0.000 A 
DOCKED: ATOM     28  C   UNL     1      21.388 -10.313  -2.108 -0.51 -0.00    +0.000 A 
DOCKED: ATOM     29  C   UNL     1      21.077 -10.116  -0.759 -0.61 -0.00    +0.000 A 
DOCKED: BRANCH  27  30
DOCKED: ATOM     30  C   UNL     1      20.737 -11.032  -4.432 -0.51 -0.00    +0.000 C 
DOCKED: ATOM     31  N   UNL     1      21.967 -11.641  -4.841 -0.52 -0.00    +0.000 N 
DOCKED: ATOM     32  O   UNL     1      19.914 -10.662  -5.313 -0.36 -0.00    +0.000 OA
DOCKED: ATOM     33  H   UNL     1      22.655 -11.857  -4.170 -0.04 -0.00    +0.000 HD
DOCKED: BRANCH  31  34
DOCKED: ATOM     34  O   UNL     1      22.189 -11.923  -6.148 -0.59 -0.00    +0.000 OA
DOCKED: ATOM     35  H   UNL     1      21.344 -11.940  -6.623 -0.48 -0.00    +0.000 HD
DOCKED: ENDBRANCH  31  34
DOCKED: ENDBRANCH  27  30
DOCKED: ENDBRANCH  22  24
DOCKED: ENDBRANCH  19  21
DOCKED: ENDBRANCH   1  19
DOCKED: TORSDOF 10
DOCKED: TER
DOCKED: ENDMDL
________________________________________________________________________________


	BEGINNING GENETIC ALGORITHM DOCKING 68 of 100
Run: 68 Seed: 974725139 499326976 [ Run 68 of 100 GA/GALS ]
Beginning LAMARCKIAN GENETIC ALGORITHM (LGA), with a maximum of 2500000 energy evaluations.

Final-Value: -16.588


	FINAL GENETIC ALGORITHM DOCKED STATE
	_______________________________________________


Detailed state:  trans 21.912 -9.463 -6.086 quatxyzw -0.005953 -0.950600 0.149333 -0.272073 center 1.858 0.218 -0.021 ntor 10 -179.7987 162.9555 24.5411 -116.7428 63.0075 -46.6111 58.8877 15.7703 45.7657 87.3287
State:	 21.912  -9.463  -6.086  -0.006 -0.988  0.155 -148.425   -179.80  162.96   24.54 -116.74   63.01  -46.61   58.89   15.77   45.77   87.33

DOCKED: MODEL       68
DOCKED: USER    Run = 68
DOCKED: USER    DPF = ligand_dock.biased.dpf
DOCKED: USER  
DOCKED: USER    Estimated Free Energy of Binding    =  -11.52 kcal/mol  [=(1)+(2)+(3)-(4)]
DOCKED: USER    Estimated Inhibition Constant, Ki   =    3.59 nM (nanomolar)  [Temperature = 298.15 K]
DOCKED: USER    
DOCKED: USER    (1) Final Intermolecular Energy     =  -14.50 kcal/mol
DOCKED: USER        vdW + Hbond + desolv Energy     =  -14.50 kcal/mol
DOCKED: USER        Electrostatic Energy            =   +0.00 kcal/mol
DOCKED: USER    (2) Final Total Internal Energy     =   -2.08 kcal/mol
DOCKED: USER    (3) Torsional Free Energy           =   +2.98 kcal/mol
DOCKED: USER    (4) Unbound System's Energy  [=(2)] =   -2.08 kcal/mol
DOCKED: USER    
DOCKED: USER    
DOCKED: USER    NEWDPF move ligand.pdbqt
DOCKED: USER    NEWDPF about 1.858000 0.218000 -0.021000
DOCKED: USER    NEWDPF tran0 21.911774 -9.462507 -6.085753
DOCKED: USER    NEWDPF quaternion0 -0.005953 -0.950600 0.149333 -0.272073
DOCKED: USER    NEWDPF axisangle0 -0.006187 -0.987866 0.155188 -148.424694
DOCKED: USER    NEWDPF quat0 -0.006187 -0.987866 0.155188 -148.424694
DOCKED: USER    NEWDPF dihe0 -179.80 162.96 24.54 -116.74 63.01 -46.61 58.89 15.77 45.77 87.33 
DOCKED: USER  keepresnum = 1 
DOCKED: USER  
DOCKED: REMARK  Name = 
DOCKED: REMARK  12 active torsions:
DOCKED: REMARK  status: ('A' for Active; 'I' for Inactive)
DOCKED: REMARK    1  A    between atoms: C_2  and  O_3
DOCKED: REMARK    2  A    between atoms: O_3  and  C_4
DOCKED: REMARK    3  A    between atoms: C_4  and  C_5
DOCKED: REMARK    4  A    between atoms: C_10  and  C_11
DOCKED: REMARK    5  A    between atoms: C_11  and  N_12
DOCKED: REMARK    6  A    between atoms: N_12  and  C_13
DOCKED: REMARK    7  A    between atoms: N_12  and  C_15
DOCKED: REMARK    8  A    between atoms: C_13  and  C_14
DOCKED: REMARK    9  A    between atoms: C_15  and  C_16
DOCKED: REMARK   10  A    between atoms: N_21  and  C_22
DOCKED: REMARK   11  A    between atoms: C_25  and  C_26
DOCKED: REMARK   12  A    between atoms: N_27  and  O_28
DOCKED: REMARK                            x       y       z     vdW  Elec       q    Type
DOCKED: REMARK                         _______ _______ _______ _____ _____    ______ ____
DOCKED: USER                              x       y       z     vdW  Elec       q    Type
DOCKED: USER                           _______ _______ _______ _____ _____    ______ ____
DOCKED: ROOT
DOCKED: ATOM      1  C   UNL     1      21.313 -10.527  -7.189 -0.32 -0.00    +0.000 C 
DOCKED: ENDROOT
DOCKED: BRANCH   1   2
DOCKED: ATOM      2  C   UNL     1      22.787 -10.612  -7.460 -0.31 -0.00    +0.000 A 
DOCKED: ATOM      3  C   UNL     1      23.362 -11.829  -7.856 -0.43 -0.00    +0.000 A 
DOCKED: ATOM      4  C   UNL     1      24.739 -11.924  -8.076 -0.41 -0.00    +0.000 A 
DOCKED: ATOM      5  C   UNL     1      25.561 -10.804  -7.887 -0.31 -0.00    +0.000 A 
DOCKED: ATOM      6  C   UNL     1      26.946 -10.891  -8.104 -0.26 -0.00    +0.000 A 
DOCKED: ATOM      7  C   UNL     1      27.765  -9.767  -7.908 -0.39 -0.00    +0.000 A 
DOCKED: ATOM      8  C   UNL     1      27.192  -8.554  -7.498 -0.28 -0.00    +0.000 A 
DOCKED: ATOM      9  C   UNL     1      25.815  -8.460  -7.279 -0.25 -0.00    +0.000 A 
DOCKED: ATOM     10  C   UNL     1      24.991  -9.578  -7.471 -0.25 -0.00    +0.000 A 
DOCKED: ATOM     11  C   UNL     1      23.608  -9.492  -7.254 -0.24 -0.00    +0.000 A 
DOCKED: BRANCH   7  12
DOCKED: ATOM     12  C   UNL     1      29.249  -9.846  -8.157 -0.43 -0.00    +0.000 C 
DOCKED: BRANCH  12  13
DOCKED: ATOM     13  N   UNL     1      29.512 -10.103  -9.589 -0.29 -0.00    +0.000 N 
DOCKED: ATOM     14  H   UNL     1      29.406 -11.103  -9.756 -0.14 -0.00    +0.000 HD
DOCKED: BRANCH  13  15
DOCKED: ATOM     15  C   UNL     1      30.914  -9.783  -9.948 -0.21 -0.00    +0.000 C 
DOCKED: ATOM     16  C   UNL     1      31.612  -8.974  -8.856 -0.19 -0.00    +0.000 C 
DOCKED: ENDBRANCH  13  15
DOCKED: BRANCH  13  17
DOCKED: ATOM     17  C   UNL     1      28.499  -9.462 -10.466 -0.16 -0.00    +0.000 C 
DOCKED: ATOM     18  C   UNL     1      27.893 -10.400 -11.519 -0.17 -0.00    +0.000 C 
DOCKED: ENDBRANCH  13  17
DOCKED: ENDBRANCH  12  13
DOCKED: ENDBRANCH   7  12
DOCKED: ENDBRANCH   1   2
DOCKED: BRANCH   1  19
DOCKED: ATOM     19  O   UNL     1      21.099  -9.785  -5.992 -0.27 -0.00    +0.000 OA
DOCKED: BRANCH  19  21
DOCKED: ATOM     20  O   UNL     1      21.344 -11.591  -4.578 -0.58 -0.00    +0.000 OA
DOCKED: ATOM     21  C   UNL     1      20.987 -10.391  -4.738 -0.46 -0.00    +0.000 C 
DOCKED: ATOM     22  N   UNL     1      20.423  -9.646  -3.652 -0.35 -0.00    +0.000 N 
DOCKED: ATOM     23  H   UNL     1      20.015  -8.773  -3.855 -0.00 -0.00    +0.000 HD
DOCKED: BRANCH  22  24
DOCKED: ATOM     24  C   UNL     1      20.415 -10.086  -2.283 -0.47 -0.00    +0.000 A 
DOCKED: ATOM     25  C   UNL     1      19.347 -10.868  -1.820 -0.40 -0.00    +0.000 A 
DOCKED: ATOM     26  C   UNL     1      19.303 -11.292  -0.489 -0.45 -0.00    +0.000 A 
DOCKED: ATOM     27  C   UNL     1      20.323 -10.935   0.410 -0.60 -0.00    +0.000 A 
DOCKED: ATOM     28  C   UNL     1      21.375 -10.121  -0.047 -0.62 -0.00    +0.000 A 
DOCKED: ATOM     29  C   UNL     1      21.419  -9.698  -1.379 -0.53 -0.00    +0.000 A 
DOCKED: BRANCH  27  30
DOCKED: ATOM     30  C   UNL     1      20.260 -11.388   1.821 -0.77 -0.00    +0.000 C 
DOCKED: ATOM     31  N   UNL     1      20.633 -10.523   2.901 -0.62 -0.00    +0.000 N 
DOCKED: ATOM     32  O   UNL     1      19.885 -12.564   2.080 -1.62 -0.00    +0.000 OA
DOCKED: ATOM     33  H   UNL     1      21.008  -9.633   2.709 -0.58 -0.00    +0.000 HD
DOCKED: BRANCH  31  34
DOCKED: ATOM     34  O   UNL     1      20.471 -10.924   4.185 -0.76 -0.00    +0.000 OA
DOCKED: ATOM     35  H   UNL     1      20.474 -11.893   4.223 -0.37 -0.00    +0.000 HD
DOCKED: ENDBRANCH  31  34
DOCKED: ENDBRANCH  27  30
DOCKED: ENDBRANCH  22  24
DOCKED: ENDBRANCH  19  21
DOCKED: ENDBRANCH   1  19
DOCKED: TORSDOF 10
DOCKED: TER
DOCKED: ENDMDL
________________________________________________________________________________


	BEGINNING GENETIC ALGORITHM DOCKING 69 of 100
Run: 69 Seed: 379272035 1842723307 [ Run 69 of 100 GA/GALS ]
Beginning LAMARCKIAN GENETIC ALGORITHM (LGA), with a maximum of 2500000 energy evaluations.

Final-Value: -14.729


	FINAL GENETIC ALGORITHM DOCKED STATE
	_______________________________________________


Detailed state:  trans 22.336 -8.167 -4.714 quatxyzw -0.799729 -0.188125 0.507117 -0.260528 center 1.858 0.218 -0.021 ntor 10 -13.5369 16.5775 10.0669 85.5509 -62.0537 -29.6219 -155.1234 174.5582 -44.6142 -85.2749
State:	 22.336  -8.167  -4.714  -0.828 -0.195  0.525 -149.797    -13.54   16.58   10.07   85.55  -62.05  -29.62 -155.12  174.56  -44.61  -85.27

DOCKED: MODEL       69
DOCKED: USER    Run = 69
DOCKED: USER    DPF = ligand_dock.biased.dpf
DOCKED: USER  
DOCKED: USER    Estimated Free Energy of Binding    =   -9.54 kcal/mol  [=(1)+(2)+(3)-(4)]
DOCKED: USER    Estimated Inhibition Constant, Ki   =  102.24 nM (nanomolar)  [Temperature = 298.15 K]
DOCKED: USER    
DOCKED: USER    (1) Final Intermolecular Energy     =  -12.52 kcal/mol
DOCKED: USER        vdW + Hbond + desolv Energy     =  -12.52 kcal/mol
DOCKED: USER        Electrostatic Energy            =   +0.00 kcal/mol
DOCKED: USER    (2) Final Total Internal Energy     =   -2.21 kcal/mol
DOCKED: USER    (3) Torsional Free Energy           =   +2.98 kcal/mol
DOCKED: USER    (4) Unbound System's Energy  [=(2)] =   -2.21 kcal/mol
DOCKED: USER    
DOCKED: USER    
DOCKED: USER    NEWDPF move ligand.pdbqt
DOCKED: USER    NEWDPF about 1.858000 0.218000 -0.021000
DOCKED: USER    NEWDPF tran0 22.336359 -8.166674 -4.713780
DOCKED: USER    NEWDPF quaternion0 -0.799729 -0.188125 0.507117 -0.260528
DOCKED: USER    NEWDPF axisangle0 -0.828334 -0.194854 0.525256 -149.797170
DOCKED: USER    NEWDPF quat0 -0.828334 -0.194854 0.525256 -149.797170
DOCKED: USER    NEWDPF dihe0 -13.54 16.58 10.07 85.55 -62.05 -29.62 -155.12 174.56 -44.61 -85.27 
DOCKED: USER  keepresnum = 1 
DOCKED: USER  
DOCKED: REMARK  Name = 
DOCKED: REMARK  12 active torsions:
DOCKED: REMARK  status: ('A' for Active; 'I' for Inactive)
DOCKED: REMARK    1  A    between atoms: C_2  and  O_3
DOCKED: REMARK    2  A    between atoms: O_3  and  C_4
DOCKED: REMARK    3  A    between atoms: C_4  and  C_5
DOCKED: REMARK    4  A    between atoms: C_10  and  C_11
DOCKED: REMARK    5  A    between atoms: C_11  and  N_12
DOCKED: REMARK    6  A    between atoms: N_12  and  C_13
DOCKED: REMARK    7  A    between atoms: N_12  and  C_15
DOCKED: REMARK    8  A    between atoms: C_13  and  C_14
DOCKED: REMARK    9  A    between atoms: C_15  and  C_16
DOCKED: REMARK   10  A    between atoms: N_21  and  C_22
DOCKED: REMARK   11  A    between atoms: C_25  and  C_26
DOCKED: REMARK   12  A    between atoms: N_27  and  O_28
DOCKED: REMARK                            x       y       z     vdW  Elec       q    Type
DOCKED: REMARK                         _______ _______ _______ _____ _____    ______ ____
DOCKED: USER                              x       y       z     vdW  Elec       q    Type
DOCKED: USER                           _______ _______ _______ _____ _____    ______ ____
DOCKED: ROOT
DOCKED: ATOM      1  C   UNL     1      20.883  -7.394  -4.727 -0.24 -0.00    +0.000 C 
DOCKED: ENDROOT
DOCKED: BRANCH   1   2
DOCKED: ATOM      2  C   UNL     1      20.772  -8.220  -3.479 -0.34 -0.00    +0.000 A 
DOCKED: ATOM      3  C   UNL     1      21.742  -8.111  -2.471 -0.26 -0.00    +0.000 A 
DOCKED: ATOM      4  C   UNL     1      21.663  -8.903  -1.323 -0.21 -0.00    +0.000 A 
DOCKED: ATOM      5  C   UNL     1      20.619  -9.827  -1.173 -0.54 -0.00    +0.000 A 
DOCKED: ATOM      6  C   UNL     1      20.533 -10.627  -0.024 -0.60 -0.00    +0.000 A 
DOCKED: ATOM      7  C   UNL     1      19.488 -11.555   0.118 -0.51 -0.00    +0.000 A 
DOCKED: ATOM      8  C   UNL     1      18.525 -11.674  -0.897 -0.39 -0.00    +0.000 A 
DOCKED: ATOM      9  C   UNL     1      18.605 -10.882  -2.044 -0.32 -0.00    +0.000 A 
DOCKED: ATOM     10  C   UNL     1      19.646  -9.955  -2.193 -0.31 -0.00    +0.000 A 
DOCKED: ATOM     11  C   UNL     1      19.733  -9.155  -3.342 -0.25 -0.00    +0.000 A 
DOCKED: BRANCH   7  12
DOCKED: ATOM     12  C   UNL     1      19.377 -12.404   1.357 -0.64 -0.00    +0.000 C 
DOCKED: BRANCH  12  13
DOCKED: ATOM     13  N   UNL     1      18.728 -11.638   2.443 -0.51 -0.00    +0.000 N 
DOCKED: ATOM     14  H   UNL     1      17.885 -12.138   2.722 +0.06 +0.00    +0.000 HD
DOCKED: BRANCH  13  15
DOCKED: ATOM     15  C   UNL     1      18.269 -10.311   1.969 -0.50 -0.00    +0.000 C 
DOCKED: ATOM     16  C   UNL     1      17.076  -9.799   2.775 -0.47 +0.00    +0.000 C 
DOCKED: ENDBRANCH  13  15
DOCKED: BRANCH  13  17
DOCKED: ATOM     17  C   UNL     1      19.564 -11.590   3.668 -0.65 -0.00    +0.000 C 
DOCKED: ATOM     18  C   UNL     1      20.639 -10.494   3.656 -0.53 -0.00    +0.000 C 
DOCKED: ENDBRANCH  13  17
DOCKED: ENDBRANCH  12  13
DOCKED: ENDBRANCH   7  12
DOCKED: ENDBRANCH   1   2
DOCKED: BRANCH   1  19
DOCKED: ATOM     19  O   UNL     1      22.224  -7.446  -5.205 -0.25 -0.00    +0.000 OA
DOCKED: BRANCH  19  21
DOCKED: ATOM     20  O   UNL     1      23.809  -8.282  -6.657 -0.23 -0.00    +0.000 OA
DOCKED: ATOM     21  C   UNL     1      22.644  -8.356  -6.177 -0.20 -0.00    +0.000 C 
DOCKED: ATOM     22  N   UNL     1      21.721  -9.345  -6.651 -0.21 -0.00    +0.000 N 
DOCKED: ATOM     23  H   UNL     1      20.781  -9.270  -6.369 +0.00 -0.00    +0.000 HD
DOCKED: BRANCH  22  24
DOCKED: ATOM     24  C   UNL     1      22.077 -10.441  -7.512 -0.27 -0.00    +0.000 A 
DOCKED: ATOM     25  C   UNL     1      23.073 -11.339  -7.105 -0.41 -0.00    +0.000 A 
DOCKED: ATOM     26  C   UNL     1      23.453 -12.400  -7.932 -0.41 -0.00    +0.000 A 
DOCKED: ATOM     27  C   UNL     1      22.848 -12.580  -9.188 -0.33 -0.00    +0.000 A 
DOCKED: ATOM     28  C   UNL     1      21.874 -11.658  -9.610 -0.12 -0.00    +0.000 A 
DOCKED: ATOM     29  C   UNL     1      21.494 -10.597  -8.782 -0.21 -0.00    +0.000 A 
DOCKED: BRANCH  27  30
DOCKED: ATOM     30  C   UNL     1      23.265 -13.708 -10.056 -0.45 -0.00    +0.000 C 
DOCKED: ATOM     31  N   UNL     1      22.550 -14.950 -10.062 -0.45 +0.00    +0.000 N 
DOCKED: ATOM     32  O   UNL     1      24.277 -13.581 -10.797 -0.32 -0.00    +0.000 OA
DOCKED: ATOM     33  H   UNL     1      21.811 -15.093  -9.427 -0.48 +0.00    +0.000 HD
DOCKED: BRANCH  31  34
DOCKED: ATOM     34  O   UNL     1      22.887 -15.929 -10.936 -0.93 +0.00    +0.000 OA
DOCKED: ATOM     35  H   UNL     1      23.721 -15.698 -11.373 -0.02 +0.00    +0.000 HD
DOCKED: ENDBRANCH  31  34
DOCKED: ENDBRANCH  27  30
DOCKED: ENDBRANCH  22  24
DOCKED: ENDBRANCH  19  21
DOCKED: ENDBRANCH   1  19
DOCKED: TORSDOF 10
DOCKED: TER
DOCKED: ENDMDL
________________________________________________________________________________


	BEGINNING GENETIC ALGORITHM DOCKING 70 of 100
Run: 70 Seed: 1589938104 1899876342 [ Run 70 of 100 GA/GALS ]
Beginning LAMARCKIAN GENETIC ALGORITHM (LGA), with a maximum of 2500000 energy evaluations.

Final-Value: -15.059


	FINAL GENETIC ALGORITHM DOCKED STATE
	_______________________________________________


Detailed state:  trans 21.282 -9.472 -6.198 quatxyzw -0.119892 0.887702 -0.296430 0.331271 center 1.858 0.218 -0.021 ntor 10 174.2639 -176.1342 9.0956 0.8264 42.8991 -154.1749 128.5966 -40.6925 76.4040 55.8645
State:	 21.282  -9.472  -6.198  -0.127  0.941 -0.314 141.308    174.26 -176.13    9.10    0.83   42.90 -154.17  128.60  -40.69   76.40   55.86

DOCKED: MODEL       70
DOCKED: USER    Run = 70
DOCKED: USER    DPF = ligand_dock.biased.dpf
DOCKED: USER  
DOCKED: USER    Estimated Free Energy of Binding    =  -10.20 kcal/mol  [=(1)+(2)+(3)-(4)]
DOCKED: USER    Estimated Inhibition Constant, Ki   =   33.31 nM (nanomolar)  [Temperature = 298.15 K]
DOCKED: USER    
DOCKED: USER    (1) Final Intermolecular Energy     =  -13.18 kcal/mol
DOCKED: USER        vdW + Hbond + desolv Energy     =  -13.18 kcal/mol
DOCKED: USER        Electrostatic Energy            =   +0.00 kcal/mol
DOCKED: USER    (2) Final Total Internal Energy     =   -1.88 kcal/mol
DOCKED: USER    (3) Torsional Free Energy           =   +2.98 kcal/mol
DOCKED: USER    (4) Unbound System's Energy  [=(2)] =   -1.88 kcal/mol
DOCKED: USER    
DOCKED: USER    
DOCKED: USER    NEWDPF move ligand.pdbqt
DOCKED: USER    NEWDPF about 1.858000 0.218000 -0.021000
DOCKED: USER    NEWDPF tran0 21.281922 -9.472184 -6.197667
DOCKED: USER    NEWDPF quaternion0 -0.119892 0.887702 -0.296430 0.331271
DOCKED: USER    NEWDPF axisangle0 -0.127067 0.940825 -0.314170 141.308106
DOCKED: USER    NEWDPF quat0 -0.127067 0.940825 -0.314170 141.308106
DOCKED: USER    NEWDPF dihe0 174.26 -176.13 9.10 0.83 42.90 -154.17 128.60 -40.69 76.40 55.86 
DOCKED: USER  keepresnum = 1 
DOCKED: USER  
DOCKED: REMARK  Name = 
DOCKED: REMARK  12 active torsions:
DOCKED: REMARK  status: ('A' for Active; 'I' for Inactive)
DOCKED: REMARK    1  A    between atoms: C_2  and  O_3
DOCKED: REMARK    2  A    between atoms: O_3  and  C_4
DOCKED: REMARK    3  A    between atoms: C_4  and  C_5
DOCKED: REMARK    4  A    between atoms: C_10  and  C_11
DOCKED: REMARK    5  A    between atoms: C_11  and  N_12
DOCKED: REMARK    6  A    between atoms: N_12  and  C_13
DOCKED: REMARK    7  A    between atoms: N_12  and  C_15
DOCKED: REMARK    8  A    between atoms: C_13  and  C_14
DOCKED: REMARK    9  A    between atoms: C_15  and  C_16
DOCKED: REMARK   10  A    between atoms: N_21  and  C_22
DOCKED: REMARK   11  A    between atoms: C_25  and  C_26
DOCKED: REMARK   12  A    between atoms: N_27  and  O_28
DOCKED: REMARK                            x       y       z     vdW  Elec       q    Type
DOCKED: REMARK                         _______ _______ _______ _____ _____    ______ ____
DOCKED: USER                              x       y       z     vdW  Elec       q    Type
DOCKED: USER                           _______ _______ _______ _____ _____    ______ ____
DOCKED: ROOT
DOCKED: ATOM      1  C   UNL     1      20.894 -10.902  -6.914 -0.27 -0.00    +0.000 C 
DOCKED: ENDROOT
DOCKED: BRANCH   1   2
DOCKED: ATOM      2  C   UNL     1      22.262 -10.647  -7.476 -0.30 -0.00    +0.000 A 
DOCKED: ATOM      3  C   UNL     1      22.869 -11.595  -8.314 -0.34 -0.00    +0.000 A 
DOCKED: ATOM      4  C   UNL     1      24.157 -11.381  -8.811 -0.32 -0.00    +0.000 A 
DOCKED: ATOM      5  C   UNL     1      24.862 -10.219  -8.464 -0.26 -0.00    +0.000 A 
DOCKED: ATOM      6  C   UNL     1      26.157  -9.996  -8.957 -0.24 -0.00    +0.000 A 
DOCKED: ATOM      7  C   UNL     1      26.861  -8.834  -8.603 -0.17 -0.00    +0.000 A 
DOCKED: ATOM      8  C   UNL     1      26.260  -7.893  -7.753 -0.17 -0.00    +0.000 A 
DOCKED: ATOM      9  C   UNL     1      24.972  -8.108  -7.256 -0.19 -0.00    +0.000 A 
DOCKED: ATOM     10  C   UNL     1      24.264  -9.267  -7.606 -0.23 -0.00    +0.000 A 
DOCKED: ATOM     11  C   UNL     1      22.970  -9.491  -7.112 -0.23 -0.00    +0.000 A 
DOCKED: BRANCH   7  12
DOCKED: ATOM     12  C   UNL     1      28.243  -8.578  -9.143 -0.14 -0.00    +0.000 C 
DOCKED: BRANCH  12  13
DOCKED: ATOM     13  N   UNL     1      29.044  -9.820  -9.100 -0.28 -0.00    +0.000 N 
DOCKED: ATOM     14  H   UNL     1      28.425 -10.603  -9.307 -0.03 -0.00    +0.000 HD
DOCKED: BRANCH  13  15
DOCKED: ATOM     15  C   UNL     1      29.574 -10.076  -7.740 -0.41 -0.00    +0.000 C 
DOCKED: ATOM     16  C   UNL     1      29.578  -8.812  -6.882 -0.29 -0.00    +0.000 C 
DOCKED: ENDBRANCH  13  15
DOCKED: BRANCH  13  17
DOCKED: ATOM     17  C   UNL     1      30.073  -9.858 -10.170 -0.25 -0.00    +0.000 C 
DOCKED: ATOM     18  C   UNL     1      29.788 -10.874 -11.285 -0.25 -0.00    +0.000 C 
DOCKED: ENDBRANCH  13  17
DOCKED: ENDBRANCH  12  13
DOCKED: ENDBRANCH   7  12
DOCKED: ENDBRANCH   1   2
DOCKED: BRANCH   1  19
DOCKED: ATOM     19  O   UNL     1      20.635  -9.970  -5.869 -0.27 -0.00    +0.000 OA
DOCKED: BRANCH  19  21
DOCKED: ATOM     20  O   UNL     1      19.462 -11.308  -4.401 -0.47 -0.00    +0.000 OA
DOCKED: ATOM     21  C   UNL     1      20.282 -10.365  -4.576 -0.42 -0.00    +0.000 C 
DOCKED: ATOM     22  N   UNL     1      20.829  -9.656  -3.457 -0.41 -0.00    +0.000 N 
DOCKED: ATOM     23  H   UNL     1      21.336  -8.831  -3.638 -0.02 -0.00    +0.000 HD
DOCKED: BRANCH  22  24
DOCKED: ATOM     24  C   UNL     1      20.687 -10.068  -2.087 -0.50 -0.00    +0.000 A 
DOCKED: ATOM     25  C   UNL     1      19.673 -10.972  -1.743 -0.34 -0.00    +0.000 A 
DOCKED: ATOM     26  C   UNL     1      19.500 -11.372  -0.415 -0.43 -0.00    +0.000 A 
DOCKED: ATOM     27  C   UNL     1      20.333 -10.869   0.599 -0.61 -0.00    +0.000 A 
DOCKED: ATOM     28  C   UNL     1      21.327  -9.935   0.257 -0.57 -0.00    +0.000 A 
DOCKED: ATOM     29  C   UNL     1      21.501  -9.535  -1.071 -0.48 -0.00    +0.000 A 
DOCKED: BRANCH  27  30
DOCKED: ATOM     30  C   UNL     1      20.134 -11.300   2.004 -0.75 -0.00    +0.000 C 
DOCKED: ATOM     31  N   UNL     1      20.640 -10.529   3.101 -0.64 -0.00    +0.000 N 
DOCKED: ATOM     32  O   UNL     1      19.519 -12.375   2.244 -1.49 -0.00    +0.000 OA
DOCKED: ATOM     33  H   UNL     1      21.195  -9.734   2.927 -0.58 -0.00    +0.000 HD
DOCKED: BRANCH  31  34
DOCKED: ATOM     34  O   UNL     1      20.359 -10.888   4.376 -0.70 -0.00    +0.000 OA
DOCKED: ATOM     35  H   UNL     1      19.932 -11.759   4.380 -0.10 -0.00    +0.000 HD
DOCKED: ENDBRANCH  31  34
DOCKED: ENDBRANCH  27  30
DOCKED: ENDBRANCH  22  24
DOCKED: ENDBRANCH  19  21
DOCKED: ENDBRANCH   1  19
DOCKED: TORSDOF 10
DOCKED: TER
DOCKED: ENDMDL
________________________________________________________________________________


	BEGINNING GENETIC ALGORITHM DOCKING 71 of 100
Run: 71 Seed: 1133612900 1206013215 [ Run 71 of 100 GA/GALS ]
Beginning LAMARCKIAN GENETIC ALGORITHM (LGA), with a maximum of 2500000 energy evaluations.

Final-Value: -15.411


	FINAL GENETIC ALGORITHM DOCKED STATE
	_______________________________________________


Detailed state:  trans 19.279 -10.885 2.311 quatxyzw 0.670794 -0.282542 0.627486 -0.276525 center 1.858 0.218 -0.021 ntor 10 87.0777 144.4996 8.7956 -179.8033 -179.6574 -176.2793 72.1875 -124.5399 -175.0291 -148.1013
State:	 19.279 -10.885   2.311   0.698 -0.294  0.653 -147.894     87.08  144.50    8.80 -179.80 -179.66 -176.28   72.19 -124.54 -175.03 -148.10

DOCKED: MODEL       71
DOCKED: USER    Run = 71
DOCKED: USER    DPF = ligand_dock.biased.dpf
DOCKED: USER  
DOCKED: USER    Estimated Free Energy of Binding    =   -9.92 kcal/mol  [=(1)+(2)+(3)-(4)]
DOCKED: USER    Estimated Inhibition Constant, Ki   =   53.75 nM (nanomolar)  [Temperature = 298.15 K]
DOCKED: USER    
DOCKED: USER    (1) Final Intermolecular Energy     =  -12.90 kcal/mol
DOCKED: USER        vdW + Hbond + desolv Energy     =  -12.90 kcal/mol
DOCKED: USER        Electrostatic Energy            =   +0.00 kcal/mol
DOCKED: USER    (2) Final Total Internal Energy     =   -2.51 kcal/mol
DOCKED: USER    (3) Torsional Free Energy           =   +2.98 kcal/mol
DOCKED: USER    (4) Unbound System's Energy  [=(2)] =   -2.51 kcal/mol
DOCKED: USER    
DOCKED: USER    
DOCKED: USER    NEWDPF move ligand.pdbqt
DOCKED: USER    NEWDPF about 1.858000 0.218000 -0.021000
DOCKED: USER    NEWDPF tran0 19.278523 -10.885000 2.310927
DOCKED: USER    NEWDPF quaternion0 0.670794 -0.282542 0.627486 -0.276525
DOCKED: USER    NEWDPF axisangle0 0.698012 -0.294006 0.652947 -147.894147
DOCKED: USER    NEWDPF quat0 0.698012 -0.294006 0.652947 -147.894147
DOCKED: USER    NEWDPF dihe0 87.08 144.50 8.80 -179.80 -179.66 -176.28 72.19 -124.54 -175.03 -148.10 
DOCKED: USER  keepresnum = 1 
DOCKED: USER  
DOCKED: REMARK  Name = 
DOCKED: REMARK  12 active torsions:
DOCKED: REMARK  status: ('A' for Active; 'I' for Inactive)
DOCKED: REMARK    1  A    between atoms: C_2  and  O_3
DOCKED: REMARK    2  A    between atoms: O_3  and  C_4
DOCKED: REMARK    3  A    between atoms: C_4  and  C_5
DOCKED: REMARK    4  A    between atoms: C_10  and  C_11
DOCKED: REMARK    5  A    between atoms: C_11  and  N_12
DOCKED: REMARK    6  A    between atoms: N_12  and  C_13
DOCKED: REMARK    7  A    between atoms: N_12  and  C_15
DOCKED: REMARK    8  A    between atoms: C_13  and  C_14
DOCKED: REMARK    9  A    between atoms: C_15  and  C_16
DOCKED: REMARK   10  A    between atoms: N_21  and  C_22
DOCKED: REMARK   11  A    between atoms: C_25  and  C_26
DOCKED: REMARK   12  A    between atoms: N_27  and  O_28
DOCKED: REMARK                            x       y       z     vdW  Elec       q    Type
DOCKED: REMARK                         _______ _______ _______ _____ _____    ______ ____
DOCKED: USER                              x       y       z     vdW  Elec       q    Type
DOCKED: USER                           _______ _______ _______ _____ _____    ______ ____
DOCKED: ROOT
DOCKED: ATOM      1  C   UNL     1      20.776 -11.516   2.054 -0.67 -0.00    +0.000 C 
DOCKED: ENDROOT
DOCKED: BRANCH   1   2
DOCKED: ATOM      2  C   UNL     1      20.422 -11.019   0.683 -0.62 -0.00    +0.000 A 
DOCKED: ATOM      3  C   UNL     1      19.496 -11.720  -0.105 -0.40 -0.00    +0.000 A 
DOCKED: ATOM      4  C   UNL     1      19.189 -11.282  -1.395 -0.35 -0.00    +0.000 A 
DOCKED: ATOM      5  C   UNL     1      19.815 -10.143  -1.922 -0.40 -0.00    +0.000 A 
DOCKED: ATOM      6  C   UNL     1      19.514  -9.697  -3.218 -0.31 -0.00    +0.000 A 
DOCKED: ATOM      7  C   UNL     1      20.148  -8.558  -3.741 -0.28 -0.00    +0.000 A 
DOCKED: ATOM      8  C   UNL     1      21.084  -7.865  -2.958 -0.38 -0.00    +0.000 A 
DOCKED: ATOM      9  C   UNL     1      21.391  -8.303  -1.668 -0.45 -0.00    +0.000 A 
DOCKED: ATOM     10  C   UNL     1      20.762  -9.440  -1.140 -0.53 -0.00    +0.000 A 
DOCKED: ATOM     11  C   UNL     1      21.064  -9.887   0.156 -0.60 -0.00    +0.000 A 
DOCKED: BRANCH   7  12
DOCKED: ATOM     12  C   UNL     1      19.816  -8.061  -5.124 -0.19 -0.00    +0.000 C 
DOCKED: BRANCH  12  13
DOCKED: ATOM     13  N   UNL     1      20.228  -9.059  -6.135 -0.15 -0.00    +0.000 N 
DOCKED: ATOM     14  H   UNL     1      20.554  -8.557  -6.960 +0.01 -0.00    +0.000 HD
DOCKED: BRANCH  13  15
DOCKED: ATOM     15  C   UNL     1      19.077  -9.874  -6.591 -0.23 -0.00    +0.000 C 
DOCKED: ATOM     16  C   UNL     1      19.126 -11.294  -6.030 -0.40 -0.00    +0.000 C 
DOCKED: ENDBRANCH  13  15
DOCKED: BRANCH  13  17
DOCKED: ATOM     17  C   UNL     1      21.397  -9.856  -5.688 -0.34 -0.00    +0.000 C 
DOCKED: ATOM     18  C   UNL     1      22.319 -10.317  -6.827 -0.36 -0.00    +0.000 C 
DOCKED: ENDBRANCH  13  17
DOCKED: ENDBRANCH  12  13
DOCKED: ENDBRANCH   7  12
DOCKED: ENDBRANCH   1   2
DOCKED: BRANCH   1  19
DOCKED: ATOM     19  O   UNL     1      19.818 -11.034   2.990 -0.89 -0.00    +0.000 OA
DOCKED: BRANCH  19  21
DOCKED: ATOM     20  O   UNL     1      17.945  -9.691   2.865 -0.58 -0.00    +0.000 OA
DOCKED: ATOM     21  C   UNL     1      18.479 -10.816   2.655 -0.59 -0.00    +0.000 C 
DOCKED: ATOM     22  N   UNL     1      17.712 -11.897   2.110 -0.25 +0.00    +0.000 N 
DOCKED: ATOM     23  H   UNL     1      18.118 -12.794   2.109 +0.01 +0.00    +0.000 HD
DOCKED: BRANCH  22  24
DOCKED: ATOM     24  C   UNL     1      16.388 -11.760   1.564 -0.39 +0.00    +0.000 A 
DOCKED: ATOM     25  C   UNL     1      15.300 -11.601   2.433 -0.45 +0.00    +0.000 A 
DOCKED: ATOM     26  C   UNL     1      14.001 -11.487   1.930 -0.40 +0.00    +0.000 A 
DOCKED: ATOM     27  C   UNL     1      13.763 -11.538   0.546 -0.37 +0.00    +0.000 A 
DOCKED: ATOM     28  C   UNL     1      14.852 -11.732  -0.323 -0.38 +0.00    +0.000 A 
DOCKED: ATOM     29  C   UNL     1      16.152 -11.846   0.181 -0.40 +0.00    +0.000 A 
DOCKED: BRANCH  27  30
DOCKED: ATOM     30  C   UNL     1      12.379 -11.420   0.027 -0.36 +0.00    +0.000 C 
DOCKED: ATOM     31  N   UNL     1      11.244 -11.722   0.848 -0.42 +0.00    +0.000 N 
DOCKED: ATOM     32  O   UNL     1      12.191 -11.059  -1.167 -0.30 +0.00    +0.000 OA
DOCKED: ATOM     33  H   UNL     1      11.377 -12.086   1.753 -0.09 +0.00    +0.000 HD
DOCKED: BRANCH  31  34
DOCKED: ATOM     34  O   UNL     1       9.989 -11.510   0.385 -0.37 +0.00    +0.000 OA
DOCKED: ATOM     35  H   UNL     1      10.026 -11.285  -0.558 -0.02 +0.00    +0.000 HD
DOCKED: ENDBRANCH  31  34
DOCKED: ENDBRANCH  27  30
DOCKED: ENDBRANCH  22  24
DOCKED: ENDBRANCH  19  21
DOCKED: ENDBRANCH   1  19
DOCKED: TORSDOF 10
DOCKED: TER
DOCKED: ENDMDL
________________________________________________________________________________


	BEGINNING GENETIC ALGORITHM DOCKING 72 of 100
Run: 72 Seed: 927937631 207908561 [ Run 72 of 100 GA/GALS ]
Beginning LAMARCKIAN GENETIC ALGORITHM (LGA), with a maximum of 2500000 energy evaluations.

Final-Value: -14.305


	FINAL GENETIC ALGORITHM DOCKED STATE
	_______________________________________________


Detailed state:  trans 20.106 -7.933 -6.251 quatxyzw 0.038856 0.950700 -0.225675 0.209116 center 1.858 0.218 -0.021 ntor 10 -141.7158 -155.6789 -19.6921 -177.2868 -128.3480 176.1166 -96.7979 155.4086 -122.6946 119.3815
State:	 20.106  -7.933  -6.251   0.040  0.972 -0.231 155.859   -141.72 -155.68  -19.69 -177.29 -128.35  176.12  -96.80  155.41 -122.69  119.38

DOCKED: MODEL       72
DOCKED: USER    Run = 72
DOCKED: USER    DPF = ligand_dock.biased.dpf
DOCKED: USER  
DOCKED: USER    Estimated Free Energy of Binding    =   -9.00 kcal/mol  [=(1)+(2)+(3)-(4)]
DOCKED: USER    Estimated Inhibition Constant, Ki   =  251.82 nM (nanomolar)  [Temperature = 298.15 K]
DOCKED: USER    
DOCKED: USER    (1) Final Intermolecular Energy     =  -11.99 kcal/mol
DOCKED: USER        vdW + Hbond + desolv Energy     =  -11.99 kcal/mol
DOCKED: USER        Electrostatic Energy            =   +0.00 kcal/mol
DOCKED: USER    (2) Final Total Internal Energy     =   -2.32 kcal/mol
DOCKED: USER    (3) Torsional Free Energy           =   +2.98 kcal/mol
DOCKED: USER    (4) Unbound System's Energy  [=(2)] =   -2.32 kcal/mol
DOCKED: USER    
DOCKED: USER    
DOCKED: USER    NEWDPF move ligand.pdbqt
DOCKED: USER    NEWDPF about 1.858000 0.218000 -0.021000
DOCKED: USER    NEWDPF tran0 20.105772 -7.933404 -6.251356
DOCKED: USER    NEWDPF quaternion0 0.038856 0.950700 -0.225675 0.209116
DOCKED: USER    NEWDPF axisangle0 0.039734 0.972195 -0.230778 155.858896
DOCKED: USER    NEWDPF quat0 0.039734 0.972195 -0.230778 155.858896
DOCKED: USER    NEWDPF dihe0 -141.72 -155.68 -19.69 -177.29 -128.35 176.12 -96.80 155.41 -122.69 119.38 
DOCKED: USER  keepresnum = 1 
DOCKED: USER  
DOCKED: REMARK  Name = 
DOCKED: REMARK  12 active torsions:
DOCKED: REMARK  status: ('A' for Active; 'I' for Inactive)
DOCKED: REMARK    1  A    between atoms: C_2  and  O_3
DOCKED: REMARK    2  A    between atoms: O_3  and  C_4
DOCKED: REMARK    3  A    between atoms: C_4  and  C_5
DOCKED: REMARK    4  A    between atoms: C_10  and  C_11
DOCKED: REMARK    5  A    between atoms: C_11  and  N_12
DOCKED: REMARK    6  A    between atoms: N_12  and  C_13
DOCKED: REMARK    7  A    between atoms: N_12  and  C_15
DOCKED: REMARK    8  A    between atoms: C_13  and  C_14
DOCKED: REMARK    9  A    between atoms: C_15  and  C_16
DOCKED: REMARK   10  A    between atoms: N_21  and  C_22
DOCKED: REMARK   11  A    between atoms: C_25  and  C_26
DOCKED: REMARK   12  A    between atoms: N_27  and  O_28
DOCKED: REMARK                            x       y       z     vdW  Elec       q    Type
DOCKED: REMARK                         _______ _______ _______ _____ _____    ______ ____
DOCKED: USER                              x       y       z     vdW  Elec       q    Type
DOCKED: USER                           _______ _______ _______ _____ _____    ______ ____
DOCKED: ROOT
DOCKED: ATOM      1  C   UNL     1      19.639  -9.168  -7.234 -0.15 -0.00    +0.000 C 
DOCKED: ENDROOT
DOCKED: BRANCH   1   2
DOCKED: ATOM      2  C   UNL     1      21.134  -9.284  -7.296 -0.16 -0.00    +0.000 A 
DOCKED: ATOM      3  C   UNL     1      21.942  -8.176  -6.999 -0.13 -0.00    +0.000 A 
DOCKED: ATOM      4  C   UNL     1      23.333  -8.268  -7.090 -0.17 -0.00    +0.000 A 
DOCKED: ATOM      5  C   UNL     1      23.935  -9.468  -7.494 -0.24 -0.00    +0.000 A 
DOCKED: ATOM      6  C   UNL     1      25.332  -9.569  -7.589 -0.28 -0.00    +0.000 A 
DOCKED: ATOM      7  C   UNL     1      25.930 -10.772  -8.000 -0.34 -0.00    +0.000 A 
DOCKED: ATOM      8  C   UNL     1      25.122 -11.876  -8.311 -0.39 -0.00    +0.000 A 
DOCKED: ATOM      9  C   UNL     1      23.731 -11.783  -8.220 -0.41 -0.00    +0.000 A 
DOCKED: ATOM     10  C   UNL     1      23.128 -10.585  -7.812 -0.29 -0.00    +0.000 A 
DOCKED: ATOM     11  C   UNL     1      21.731 -10.483  -7.717 -0.26 -0.00    +0.000 A 
DOCKED: BRANCH   7  12
DOCKED: ATOM     12  C   UNL     1      27.429 -10.894  -8.086 -0.28 -0.00    +0.000 C 
DOCKED: BRANCH  12  13
DOCKED: ATOM     13  N   UNL     1      27.935 -10.132  -9.248 -0.29 -0.00    +0.000 N 
DOCKED: ATOM     14  H   UNL     1      28.699 -10.662  -9.666 -0.03 -0.00    +0.000 HD
DOCKED: BRANCH  13  15
DOCKED: ATOM     15  C   UNL     1      28.527  -8.839  -8.830 -0.20 -0.00    +0.000 C 
DOCKED: ATOM     16  C   UNL     1      29.006  -8.873  -7.380 -0.38 -0.00    +0.000 C 
DOCKED: ENDBRANCH  13  15
DOCKED: BRANCH  13  17
DOCKED: ATOM     17  C   UNL     1      26.920 -10.015 -10.324 -0.17 -0.00    +0.000 C 
DOCKED: ATOM     18  C   UNL     1      26.942 -11.167 -11.340 -0.18 -0.00    +0.000 C 
DOCKED: ENDBRANCH  13  17
DOCKED: ENDBRANCH  12  13
DOCKED: ENDBRANCH   7  12
DOCKED: ENDBRANCH   1   2
DOCKED: BRANCH   1  19
DOCKED: ATOM     19  O   UNL     1      19.283  -8.243  -6.212 -0.11 -0.00    +0.000 OA
DOCKED: BRANCH  19  21
DOCKED: ATOM     20  O   UNL     1      19.737  -7.445  -4.095 -0.23 -0.00    +0.000 OA
DOCKED: ATOM     21  C   UNL     1      19.621  -8.435  -4.869 -0.21 -0.00    +0.000 C 
DOCKED: ATOM     22  N   UNL     1      19.875  -9.764  -4.398 -0.27 -0.00    +0.000 N 
DOCKED: ATOM     23  H   UNL     1      19.929 -10.486  -5.065 -0.00 -0.00    +0.000 HD
DOCKED: BRANCH  22  24
DOCKED: ATOM     24  C   UNL     1      20.057 -10.114  -3.015 -0.40 -0.00    +0.000 A 
DOCKED: ATOM     25  C   UNL     1      19.129 -10.960  -2.393 -0.36 -0.00    +0.000 A 
DOCKED: ATOM     26  C   UNL     1      19.270 -11.299  -1.044 -0.37 -0.00    +0.000 A 
DOCKED: ATOM     27  C   UNL     1      20.339 -10.791  -0.287 -0.56 -0.00    +0.000 A 
DOCKED: ATOM     28  C   UNL     1      21.250  -9.914  -0.903 -0.60 -0.00    +0.000 A 
DOCKED: ATOM     29  C   UNL     1      21.109  -9.576  -2.253 -0.50 -0.00    +0.000 A 
DOCKED: BRANCH  27  30
DOCKED: ATOM     30  C   UNL     1      20.474 -11.156   1.145 -0.73 -0.00    +0.000 C 
DOCKED: ATOM     31  N   UNL     1      19.987 -12.406   1.646 -0.70 -0.00    +0.000 N 
DOCKED: ATOM     32  O   UNL     1      21.014 -10.344   1.944 -0.55 -0.00    +0.000 OA
DOCKED: ATOM     33  H   UNL     1      19.487 -13.012   1.051 -0.46 -0.00    +0.000 HD
DOCKED: BRANCH  31  34
DOCKED: ATOM     34  O   UNL     1      20.211 -12.760   2.934 -1.01 -0.00    +0.000 OA
DOCKED: ATOM     35  H   UNL     1      20.950 -12.242   3.288 -0.56 -0.00    +0.000 HD
DOCKED: ENDBRANCH  31  34
DOCKED: ENDBRANCH  27  30
DOCKED: ENDBRANCH  22  24
DOCKED: ENDBRANCH  19  21
DOCKED: ENDBRANCH   1  19
DOCKED: TORSDOF 10
DOCKED: TER
DOCKED: ENDMDL
________________________________________________________________________________


	BEGINNING GENETIC ALGORITHM DOCKING 73 of 100
Run: 73 Seed: 408001745 675710972 [ Run 73 of 100 GA/GALS ]
Beginning LAMARCKIAN GENETIC ALGORITHM (LGA), with a maximum of 2500000 energy evaluations.

Final-Value: -15.797


	FINAL GENETIC ALGORITHM DOCKED STATE
	_______________________________________________


Detailed state:  trans 20.484 -11.194 -6.349 quatxyzw -0.324892 -0.567581 -0.755319 0.042307 center 1.858 0.218 -0.021 ntor 10 -53.5530 -125.2780 8.9842 20.1869 154.4842 179.8638 53.8083 -110.9165 176.3297 -84.3398
State:	 20.484 -11.194  -6.349  -0.325 -0.568 -0.756 175.151    -53.55 -125.28    8.98   20.19  154.48  179.86   53.81 -110.92  176.33  -84.34

DOCKED: MODEL       73
DOCKED: USER    Run = 73
DOCKED: USER    DPF = ligand_dock.biased.dpf
DOCKED: USER  
DOCKED: USER    Estimated Free Energy of Binding    =  -10.62 kcal/mol  [=(1)+(2)+(3)-(4)]
DOCKED: USER    Estimated Inhibition Constant, Ki   =   16.35 nM (nanomolar)  [Temperature = 298.15 K]
DOCKED: USER    
DOCKED: USER    (1) Final Intermolecular Energy     =  -13.61 kcal/mol
DOCKED: USER        vdW + Hbond + desolv Energy     =  -13.61 kcal/mol
DOCKED: USER        Electrostatic Energy            =   +0.00 kcal/mol
DOCKED: USER    (2) Final Total Internal Energy     =   -2.19 kcal/mol
DOCKED: USER    (3) Torsional Free Energy           =   +2.98 kcal/mol
DOCKED: USER    (4) Unbound System's Energy  [=(2)] =   -2.19 kcal/mol
DOCKED: USER    
DOCKED: USER    
DOCKED: USER    NEWDPF move ligand.pdbqt
DOCKED: USER    NEWDPF about 1.858000 0.218000 -0.021000
DOCKED: USER    NEWDPF tran0 20.483835 -11.193881 -6.349002
DOCKED: USER    NEWDPF quaternion0 -0.324892 -0.567581 -0.755319 0.042307
DOCKED: USER    NEWDPF axisangle0 -0.325183 -0.568090 -0.755996 175.150520
DOCKED: USER    NEWDPF quat0 -0.325183 -0.568090 -0.755996 175.150520
DOCKED: USER    NEWDPF dihe0 -53.55 -125.28 8.98 20.19 154.48 179.86 53.81 -110.92 176.33 -84.34 
DOCKED: USER  keepresnum = 1 
DOCKED: USER  
DOCKED: REMARK  Name = 
DOCKED: REMARK  12 active torsions:
DOCKED: REMARK  status: ('A' for Active; 'I' for Inactive)
DOCKED: REMARK    1  A    between atoms: C_2  and  O_3
DOCKED: REMARK    2  A    between atoms: O_3  and  C_4
DOCKED: REMARK    3  A    between atoms: C_4  and  C_5
DOCKED: REMARK    4  A    between atoms: C_10  and  C_11
DOCKED: REMARK    5  A    between atoms: C_11  and  N_12
DOCKED: REMARK    6  A    between atoms: N_12  and  C_13
DOCKED: REMARK    7  A    between atoms: N_12  and  C_15
DOCKED: REMARK    8  A    between atoms: C_13  and  C_14
DOCKED: REMARK    9  A    between atoms: C_15  and  C_16
DOCKED: REMARK   10  A    between atoms: N_21  and  C_22
DOCKED: REMARK   11  A    between atoms: C_25  and  C_26
DOCKED: REMARK   12  A    between atoms: N_27  and  O_28
DOCKED: REMARK                            x       y       z     vdW  Elec       q    Type
DOCKED: REMARK                         _______ _______ _______ _____ _____    ______ ____
DOCKED: USER                              x       y       z     vdW  Elec       q    Type
DOCKED: USER                           _______ _______ _______ _____ _____    ______ ____
DOCKED: ROOT
DOCKED: ATOM      1  C   UNL     1      21.215  -9.785  -6.784 -0.26 -0.00    +0.000 C 
DOCKED: ENDROOT
DOCKED: BRANCH   1   2
DOCKED: ATOM      2  C   UNL     1      22.003 -10.788  -7.575 -0.29 -0.00    +0.000 A 
DOCKED: ATOM      3  C   UNL     1      23.069 -11.478  -6.979 -0.43 -0.00    +0.000 A 
DOCKED: ATOM      4  C   UNL     1      23.829 -12.386  -7.720 -0.40 -0.00    +0.000 A 
DOCKED: ATOM      5  C   UNL     1      23.540 -12.606  -9.075 -0.38 -0.00    +0.000 A 
DOCKED: ATOM      6  C   UNL     1      24.299 -13.516  -9.827 -0.32 -0.00    +0.000 A 
DOCKED: ATOM      7  C   UNL     1      24.009 -13.729 -11.185 -0.27 -0.00    +0.000 A 
DOCKED: ATOM      8  C   UNL     1      22.952 -13.028 -11.786 -0.18 -0.00    +0.000 A 
DOCKED: ATOM      9  C   UNL     1      22.193 -12.120 -11.043 -0.17 -0.00    +0.000 A 
DOCKED: ATOM     10  C   UNL     1      22.478 -11.902  -9.688 -0.25 -0.00    +0.000 A 
DOCKED: ATOM     11  C   UNL     1      21.720 -10.993  -8.935 -0.22 -0.00    +0.000 A 
DOCKED: BRANCH   7  12
DOCKED: ATOM     12  C   UNL     1      24.807 -14.717 -11.995 -0.27 -0.00    +0.000 C 
DOCKED: BRANCH  12  13
DOCKED: ATOM     13  N   UNL     1      26.186 -14.220 -12.189 -0.20 -0.00    +0.000 N 
DOCKED: ATOM     14  H   UNL     1      26.585 -14.028 -11.272 -0.57 -0.00    +0.000 HD
DOCKED: BRANCH  13  15
DOCKED: ATOM     15  C   UNL     1      26.198 -12.926 -12.911 -0.14 -0.00    +0.000 C 
DOCKED: ATOM     16  C   UNL     1      26.679 -11.781 -12.020 -0.16 -0.00    +0.000 C 
DOCKED: ENDBRANCH  13  15
DOCKED: BRANCH  13  17
DOCKED: ATOM     17  C   UNL     1      27.073 -15.253 -12.780 -0.26 -0.00    +0.000 C 
DOCKED: ATOM     18  C   UNL     1      27.181 -16.542 -11.952 -0.40 -0.00    +0.000 C 
DOCKED: ENDBRANCH  13  17
DOCKED: ENDBRANCH  12  13
DOCKED: ENDBRANCH   7  12
DOCKED: ENDBRANCH   1   2
DOCKED: BRANCH   1  19
DOCKED: ATOM     19  O   UNL     1      20.076 -10.426  -6.217 -0.31 -0.00    +0.000 OA
DOCKED: BRANCH  19  21
DOCKED: ATOM     20  O   UNL     1      20.004 -12.174  -4.714 -0.70 -0.00    +0.000 OA
DOCKED: ATOM     21  C   UNL     1      20.064 -10.929  -4.914 -0.46 -0.00    +0.000 C 
DOCKED: ATOM     22  N   UNL     1      20.078 -10.013  -3.812 -0.34 -0.00    +0.000 N 
DOCKED: ATOM     23  H   UNL     1      19.966  -9.055  -4.010 -0.00 -0.00    +0.000 HD
DOCKED: BRANCH  22  24
DOCKED: ATOM     24  C   UNL     1      20.245 -10.398  -2.437 -0.45 -0.00    +0.000 A 
DOCKED: ATOM     25  C   UNL     1      19.111 -10.625  -1.644 -0.37 -0.00    +0.000 A 
DOCKED: ATOM     26  C   UNL     1      19.245 -10.979  -0.299 -0.47 -0.00    +0.000 A 
DOCKED: ATOM     27  C   UNL     1      20.517 -11.107   0.284 -0.58 -0.00    +0.000 A 
DOCKED: ATOM     28  C   UNL     1      21.653 -10.845  -0.503 -0.47 -0.00    +0.000 A 
DOCKED: ATOM     29  C   UNL     1      21.518 -10.491  -1.849 -0.46 -0.00    +0.000 A 
DOCKED: BRANCH  27  30
DOCKED: ATOM     30  C   UNL     1      20.643 -11.480   1.714 -0.77 -0.00    +0.000 C 
DOCKED: ATOM     31  N   UNL     1      19.877 -10.820   2.729 -0.65 -0.00    +0.000 N 
DOCKED: ATOM     32  O   UNL     1      21.451 -12.388   2.050 -0.97 -0.00    +0.000 OA
DOCKED: ATOM     33  H   UNL     1      19.306 -10.053   2.492 -0.13 -0.00    +0.000 HD
DOCKED: BRANCH  31  34
DOCKED: ATOM     34  O   UNL     1      19.934 -11.246   4.014 -0.80 -0.00    +0.000 OA
DOCKED: ATOM     35  H   UNL     1      20.638 -11.907   4.105 -0.49 -0.00    +0.000 HD
DOCKED: ENDBRANCH  31  34
DOCKED: ENDBRANCH  27  30
DOCKED: ENDBRANCH  22  24
DOCKED: ENDBRANCH  19  21
DOCKED: ENDBRANCH   1  19
DOCKED: TORSDOF 10
DOCKED: TER
DOCKED: ENDMDL
________________________________________________________________________________


	BEGINNING GENETIC ALGORITHM DOCKING 74 of 100
Run: 74 Seed: 181620861 1791104651 [ Run 74 of 100 GA/GALS ]
Beginning LAMARCKIAN GENETIC ALGORITHM (LGA), with a maximum of 2500000 energy evaluations.

Final-Value: -14.119


	FINAL GENETIC ALGORITHM DOCKED STATE
	_______________________________________________


Detailed state:  trans 20.040 -11.371 -3.504 quatxyzw 0.478319 -0.481759 -0.189430 0.709391 center 1.858 0.218 -0.021 ntor 10 -170.0680 136.4327 9.3436 -179.9882 180.0000 1.1483 134.6224 132.2228 34.6071 19.1482
State:	 20.040 -11.371  -3.504   0.679 -0.684 -0.269 89.629   -170.07  136.43    9.34 -179.99  180.00    1.15  134.62  132.22   34.61   19.15

DOCKED: MODEL       74
DOCKED: USER    Run = 74
DOCKED: USER    DPF = ligand_dock.biased.dpf
DOCKED: USER  
DOCKED: USER    Estimated Free Energy of Binding    =   -9.47 kcal/mol  [=(1)+(2)+(3)-(4)]
DOCKED: USER    Estimated Inhibition Constant, Ki   =  114.44 nM (nanomolar)  [Temperature = 298.15 K]
DOCKED: USER    
DOCKED: USER    (1) Final Intermolecular Energy     =  -12.45 kcal/mol
DOCKED: USER        vdW + Hbond + desolv Energy     =  -12.45 kcal/mol
DOCKED: USER        Electrostatic Energy            =   +0.00 kcal/mol
DOCKED: USER    (2) Final Total Internal Energy     =   -1.67 kcal/mol
DOCKED: USER    (3) Torsional Free Energy           =   +2.98 kcal/mol
DOCKED: USER    (4) Unbound System's Energy  [=(2)] =   -1.67 kcal/mol
DOCKED: USER    
DOCKED: USER    
DOCKED: USER    NEWDPF move ligand.pdbqt
DOCKED: USER    NEWDPF about 1.858000 0.218000 -0.021000
DOCKED: USER    NEWDPF tran0 20.039806 -11.371245 -3.504078
DOCKED: USER    NEWDPF quaternion0 0.478319 -0.481759 -0.189430 0.709391
DOCKED: USER    NEWDPF axisangle0 0.678645 -0.683525 -0.268766 89.629263
DOCKED: USER    NEWDPF quat0 0.678645 -0.683525 -0.268766 89.629263
DOCKED: USER    NEWDPF dihe0 -170.07 136.43 9.34 -179.99 180.00 1.15 134.62 132.22 34.61 19.15 
DOCKED: USER  keepresnum = 1 
DOCKED: USER  
DOCKED: REMARK  Name = 
DOCKED: REMARK  12 active torsions:
DOCKED: REMARK  status: ('A' for Active; 'I' for Inactive)
DOCKED: REMARK    1  A    between atoms: C_2  and  O_3
DOCKED: REMARK    2  A    between atoms: O_3  and  C_4
DOCKED: REMARK    3  A    between atoms: C_4  and  C_5
DOCKED: REMARK    4  A    between atoms: C_10  and  C_11
DOCKED: REMARK    5  A    between atoms: C_11  and  N_12
DOCKED: REMARK    6  A    between atoms: N_12  and  C_13
DOCKED: REMARK    7  A    between atoms: N_12  and  C_15
DOCKED: REMARK    8  A    between atoms: C_13  and  C_14
DOCKED: REMARK    9  A    between atoms: C_15  and  C_16
DOCKED: REMARK   10  A    between atoms: N_21  and  C_22
DOCKED: REMARK   11  A    between atoms: C_25  and  C_26
DOCKED: REMARK   12  A    between atoms: N_27  and  O_28
DOCKED: REMARK                            x       y       z     vdW  Elec       q    Type
DOCKED: REMARK                         _______ _______ _______ _____ _____    ______ ____
DOCKED: USER                              x       y       z     vdW  Elec       q    Type
DOCKED: USER                           _______ _______ _______ _____ _____    ______ ____
DOCKED: ROOT
DOCKED: ATOM      1  C   UNL     1      21.200 -10.359  -2.925 -0.55 -0.00    +0.000 C 
DOCKED: ENDROOT
DOCKED: BRANCH   1   2
DOCKED: ATOM      2  C   UNL     1      20.365 -10.589  -1.699 -0.46 -0.00    +0.000 A 
DOCKED: ATOM      3  C   UNL     1      20.979 -10.867  -0.468 -0.53 -0.00    +0.000 A 
DOCKED: ATOM      4  C   UNL     1      20.206 -11.117   0.669 -0.61 -0.00    +0.000 A 
DOCKED: ATOM      5  C   UNL     1      18.807 -11.108   0.586 -0.48 -0.00    +0.000 A 
DOCKED: ATOM      6  C   UNL     1      18.023 -11.360   1.723 -0.45 -0.00    +0.000 A 
DOCKED: ATOM      7  C   UNL     1      16.621 -11.354   1.633 -0.39 +0.00    +0.000 A 
DOCKED: ATOM      8  C   UNL     1      16.007 -11.090   0.398 -0.33 +0.00    +0.000 A 
DOCKED: ATOM      9  C   UNL     1      16.780 -10.840  -0.738 -0.30 -0.00    +0.000 A 
DOCKED: ATOM     10  C   UNL     1      18.180 -10.845  -0.655 -0.35 -0.00    +0.000 A 
DOCKED: ATOM     11  C   UNL     1      18.964 -10.594  -1.791 -0.35 -0.00    +0.000 A 
DOCKED: BRANCH   7  12
DOCKED: ATOM     12  C   UNL     1      15.772 -11.604   2.852 -0.47 +0.00    +0.000 C 
DOCKED: BRANCH  12  13
DOCKED: ATOM     13  N   UNL     1      15.037 -10.376   3.220 -0.40 +0.00    +0.000 N 
DOCKED: ATOM     14  H   UNL     1      14.972 -10.339   4.237 -0.03 +0.00    +0.000 HD
DOCKED: BRANCH  13  15
DOCKED: ATOM     15  C   UNL     1      13.638 -10.415   2.732 -0.34 +0.00    +0.000 C 
DOCKED: ATOM     16  C   UNL     1      13.359 -11.666   1.900 -0.42 +0.00    +0.000 C 
DOCKED: ENDBRANCH  13  15
DOCKED: BRANCH  13  17
DOCKED: ATOM     17  C   UNL     1      15.778  -9.147   2.842 -0.40 +0.00    +0.000 C 
DOCKED: ATOM     18  C   UNL     1      15.391  -7.901   3.653 -0.38 +0.00    +0.000 C 
DOCKED: ENDBRANCH  13  17
DOCKED: ENDBRANCH  12  13
DOCKED: ENDBRANCH   7  12
DOCKED: ENDBRANCH   1   2
DOCKED: BRANCH   1  19
DOCKED: ATOM     19  O   UNL     1      20.792 -11.262  -3.947 -0.53 -0.00    +0.000 OA
DOCKED: BRANCH  19  21
DOCKED: ATOM     20  O   UNL     1      21.786 -12.776  -5.376 -0.81 -0.00    +0.000 OA
DOCKED: ATOM     21  C   UNL     1      21.597 -11.573  -5.046 -0.55 -0.00    +0.000 C 
DOCKED: ATOM     22  N   UNL     1      22.239 -10.510  -5.762 -0.38 -0.00    +0.000 N 
DOCKED: ATOM     23  H   UNL     1      22.194  -9.604  -5.378 -0.02 -0.00    +0.000 HD
DOCKED: BRANCH  22  24
DOCKED: ATOM     24  C   UNL     1      22.944 -10.678  -7.004 -0.34 -0.00    +0.000 A 
DOCKED: ATOM     25  C   UNL     1      23.266 -11.969  -7.442 -0.47 -0.00    +0.000 A 
DOCKED: ATOM     26  C   UNL     1      23.969 -12.159  -8.635 -0.40 -0.00    +0.000 A 
DOCKED: ATOM     27  C   UNL     1      24.373 -11.059  -9.410 -0.22 -0.00    +0.000 A 
DOCKED: ATOM     28  C   UNL     1      24.080  -9.762  -8.951 -0.14 -0.00    +0.000 A 
DOCKED: ATOM     29  C   UNL     1      23.376  -9.573  -7.758 -0.21 -0.00    +0.000 A 
DOCKED: BRANCH  27  30
DOCKED: ATOM     30  C   UNL     1      25.123 -11.276 -10.672 -0.18 -0.00    +0.000 C 
DOCKED: ATOM     31  N   UNL     1      25.862 -12.482 -10.904 -0.14 -0.00    +0.000 N 
DOCKED: ATOM     32  O   UNL     1      25.125 -10.377 -11.556 -0.07 -0.00    +0.000 OA
DOCKED: ATOM     33  H   UNL     1      25.939 -13.155 -10.189 -0.56 -0.00    +0.000 HD
DOCKED: BRANCH  31  34
DOCKED: ATOM     34  O   UNL     1      26.454 -12.700 -12.102 -0.20 -0.00    +0.000 OA
DOCKED: ATOM     35  H   UNL     1      26.411 -11.892 -12.637 -0.00 -0.00    +0.000 HD
DOCKED: ENDBRANCH  31  34
DOCKED: ENDBRANCH  27  30
DOCKED: ENDBRANCH  22  24
DOCKED: ENDBRANCH  19  21
DOCKED: ENDBRANCH   1  19
DOCKED: TORSDOF 10
DOCKED: TER
DOCKED: ENDMDL
________________________________________________________________________________


	BEGINNING GENETIC ALGORITHM DOCKING 75 of 100
Run: 75 Seed: 1443297368 297268383 [ Run 75 of 100 GA/GALS ]
Beginning LAMARCKIAN GENETIC ALGORITHM (LGA), with a maximum of 2500000 energy evaluations.

Final-Value: -15.693


	FINAL GENETIC ALGORITHM DOCKED STATE
	_______________________________________________


Detailed state:  trans 19.781 -8.000 -4.709 quatxyzw 0.654110 -0.702409 -0.165717 0.226495 center 1.858 0.218 -0.021 ntor 10 164.5567 73.7600 28.9584 -17.0350 77.2221 -171.8418 179.8583 82.9809 -17.3085 173.6383
State:	 19.781  -8.000  -4.709   0.672 -0.721 -0.170 153.818    164.56   73.76   28.96  -17.03   77.22 -171.84  179.86   82.98  -17.31  173.64

DOCKED: MODEL       75
DOCKED: USER    Run = 75
DOCKED: USER    DPF = ligand_dock.biased.dpf
DOCKED: USER  
DOCKED: USER    Estimated Free Energy of Binding    =  -10.46 kcal/mol  [=(1)+(2)+(3)-(4)]
DOCKED: USER    Estimated Inhibition Constant, Ki   =   21.58 nM (nanomolar)  [Temperature = 298.15 K]
DOCKED: USER    
DOCKED: USER    (1) Final Intermolecular Energy     =  -13.44 kcal/mol
DOCKED: USER        vdW + Hbond + desolv Energy     =  -13.44 kcal/mol
DOCKED: USER        Electrostatic Energy            =   +0.00 kcal/mol
DOCKED: USER    (2) Final Total Internal Energy     =   -2.25 kcal/mol
DOCKED: USER    (3) Torsional Free Energy           =   +2.98 kcal/mol
DOCKED: USER    (4) Unbound System's Energy  [=(2)] =   -2.25 kcal/mol
DOCKED: USER    
DOCKED: USER    
DOCKED: USER    NEWDPF move ligand.pdbqt
DOCKED: USER    NEWDPF about 1.858000 0.218000 -0.021000
DOCKED: USER    NEWDPF tran0 19.781131 -8.000461 -4.708718
DOCKED: USER    NEWDPF quaternion0 0.654110 -0.702409 -0.165717 0.226495
DOCKED: USER    NEWDPF axisangle0 0.671562 -0.721150 -0.170139 153.818337
DOCKED: USER    NEWDPF quat0 0.671562 -0.721150 -0.170139 153.818337
DOCKED: USER    NEWDPF dihe0 164.56 73.76 28.96 -17.03 77.22 -171.84 179.86 82.98 -17.31 173.64 
DOCKED: USER  keepresnum = 1 
DOCKED: USER  
DOCKED: REMARK  Name = 
DOCKED: REMARK  12 active torsions:
DOCKED: REMARK  status: ('A' for Active; 'I' for Inactive)
DOCKED: REMARK    1  A    between atoms: C_2  and  O_3
DOCKED: REMARK    2  A    between atoms: O_3  and  C_4
DOCKED: REMARK    3  A    between atoms: C_4  and  C_5
DOCKED: REMARK    4  A    between atoms: C_10  and  C_11
DOCKED: REMARK    5  A    between atoms: C_11  and  N_12
DOCKED: REMARK    6  A    between atoms: N_12  and  C_13
DOCKED: REMARK    7  A    between atoms: N_12  and  C_15
DOCKED: REMARK    8  A    between atoms: C_13  and  C_14
DOCKED: REMARK    9  A    between atoms: C_15  and  C_16
DOCKED: REMARK   10  A    between atoms: N_21  and  C_22
DOCKED: REMARK   11  A    between atoms: C_25  and  C_26
DOCKED: REMARK   12  A    between atoms: N_27  and  O_28
DOCKED: REMARK                            x       y       z     vdW  Elec       q    Type
DOCKED: REMARK                         _______ _______ _______ _____ _____    ______ ____
DOCKED: USER                              x       y       z     vdW  Elec       q    Type
DOCKED: USER                           _______ _______ _______ _____ _____    ______ ____
DOCKED: ROOT
DOCKED: ATOM      1  C   UNL     1      20.594  -7.133  -5.847 -0.13 -0.00    +0.000 C 
DOCKED: ENDROOT
DOCKED: BRANCH   1   2
DOCKED: ATOM      2  C   UNL     1      20.706  -6.235  -4.650 -0.17 -0.00    +0.000 A 
DOCKED: ATOM      3  C   UNL     1      21.704  -6.459  -3.690 -0.26 -0.00    +0.000 A 
DOCKED: ATOM      4  C   UNL     1      21.791  -5.648  -2.555 -0.36 -0.00    +0.000 A 
DOCKED: ATOM      5  C   UNL     1      20.870  -4.610  -2.358 -0.32 -0.00    +0.000 A 
DOCKED: ATOM      6  C   UNL     1      20.949  -3.791  -1.221 -0.38 +0.00    +0.000 A 
DOCKED: ATOM      7  C   UNL     1      20.021  -2.755  -1.026 -0.27 -0.00    +0.000 A 
DOCKED: ATOM      8  C   UNL     1      19.014  -2.540  -1.979 -0.14 -0.00    +0.000 A 
DOCKED: ATOM      9  C   UNL     1      18.927  -3.351  -3.113 -0.12 -0.00    +0.000 A 
DOCKED: ATOM     10  C   UNL     1      19.850  -4.387  -3.313 -0.17 -0.00    +0.000 A 
DOCKED: ATOM     11  C   UNL     1      19.771  -5.206  -4.450 -0.14 -0.00    +0.000 A 
DOCKED: BRANCH   7  12
DOCKED: ATOM     12  C   UNL     1      20.111  -1.861   0.182 -0.31 -0.00    +0.000 C 
DOCKED: BRANCH  12  13
DOCKED: ATOM     13  N   UNL     1      19.974  -2.660   1.418 -0.47 -0.00    +0.000 N 
DOCKED: ATOM     14  H   UNL     1      20.154  -3.636   1.186 +0.00 +0.00    +0.000 HD
DOCKED: BRANCH  13  15
DOCKED: ATOM     15  C   UNL     1      18.586  -2.622   1.937 -0.35 -0.00    +0.000 C 
DOCKED: ATOM     16  C   UNL     1      17.877  -1.318   1.575 -0.33 -0.00    +0.000 C 
DOCKED: ENDBRANCH  13  15
DOCKED: BRANCH  13  17
DOCKED: ATOM     17  C   UNL     1      21.008  -2.313   2.425 -0.62 -0.00    +0.000 C 
DOCKED: ATOM     18  C   UNL     1      20.495  -2.279   3.872 -0.83 -0.00    +0.000 C 
DOCKED: ENDBRANCH  13  17
DOCKED: ENDBRANCH  12  13
DOCKED: ENDBRANCH   7  12
DOCKED: ENDBRANCH   1   2
DOCKED: BRANCH   1  19
DOCKED: ATOM     19  O   UNL     1      20.072  -8.394  -5.440 -0.17 -0.00    +0.000 OA
DOCKED: BRANCH  19  21
DOCKED: ATOM     20  O   UNL     1      18.814  -8.343  -3.506 -0.04 -0.00    +0.000 OA
DOCKED: ATOM     21  C   UNL     1      19.861  -8.726  -4.099 -0.28 -0.00    +0.000 C 
DOCKED: ATOM     22  N   UNL     1      20.867  -9.468  -3.398 -0.41 -0.00    +0.000 N 
DOCKED: ATOM     23  H   UNL     1      21.731  -9.610  -3.848 -0.03 -0.00    +0.000 HD
DOCKED: BRANCH  22  24
DOCKED: ATOM     24  C   UNL     1      20.699 -10.021  -2.081 -0.50 -0.00    +0.000 A 
DOCKED: ATOM     25  C   UNL     1      19.431 -10.462  -1.678 -0.39 -0.00    +0.000 A 
DOCKED: ATOM     26  C   UNL     1      19.235 -10.984  -0.396 -0.46 -0.00    +0.000 A 
DOCKED: ATOM     27  C   UNL     1      20.303 -11.066   0.513 -0.61 -0.00    +0.000 A 
DOCKED: ATOM     28  C   UNL     1      21.567 -10.590   0.120 -0.42 -0.00    +0.000 A 
DOCKED: ATOM     29  C   UNL     1      21.762 -10.069  -1.163 -0.39 -0.00    +0.000 A 
DOCKED: BRANCH  27  30
DOCKED: ATOM     30  C   UNL     1      20.079 -11.618   1.872 -0.77 -0.00    +0.000 C 
DOCKED: ATOM     31  N   UNL     1      20.435 -10.879   3.046 -0.69 -0.00    +0.000 N 
DOCKED: ATOM     32  O   UNL     1      19.578 -12.768   2.001 -1.46 -0.00    +0.000 OA
DOCKED: ATOM     33  H   UNL     1      20.905 -10.017   2.960 -0.48 -0.00    +0.000 HD
DOCKED: BRANCH  31  34
DOCKED: ATOM     34  O   UNL     1      20.129 -11.359   4.275 -0.77 -0.00    +0.000 OA
DOCKED: ATOM     35  H   UNL     1      20.108 -12.328   4.248 -0.20 -0.00    +0.000 HD
DOCKED: ENDBRANCH  31  34
DOCKED: ENDBRANCH  27  30
DOCKED: ENDBRANCH  22  24
DOCKED: ENDBRANCH  19  21
DOCKED: ENDBRANCH   1  19
DOCKED: TORSDOF 10
DOCKED: TER
DOCKED: ENDMDL
________________________________________________________________________________


	BEGINNING GENETIC ALGORITHM DOCKING 76 of 100
Run: 76 Seed: 1854315436 1712750294 [ Run 76 of 100 GA/GALS ]
Beginning LAMARCKIAN GENETIC ALGORITHM (LGA), with a maximum of 2500000 energy evaluations.

Final-Value: -15.857


	FINAL GENETIC ALGORITHM DOCKED STATE
	_______________________________________________


Detailed state:  trans 21.855 -10.436 -6.101 quatxyzw 0.337862 0.486628 0.805581 -0.009059 center 1.858 0.218 -0.021 ntor 10 -178.6998 164.6629 34.2328 -64.7896 51.3904 48.3312 37.5522 -66.5250 104.4347 -74.6959
State:	 21.855 -10.436  -6.101   0.338  0.487  0.806 -178.962   -178.70  164.66   34.23  -64.79   51.39   48.33   37.55  -66.52  104.43  -74.70

DOCKED: MODEL       76
DOCKED: USER    Run = 76
DOCKED: USER    DPF = ligand_dock.biased.dpf
DOCKED: USER  
DOCKED: USER    Estimated Free Energy of Binding    =  -11.11 kcal/mol  [=(1)+(2)+(3)-(4)]
DOCKED: USER    Estimated Inhibition Constant, Ki   =    7.18 nM (nanomolar)  [Temperature = 298.15 K]
DOCKED: USER    
DOCKED: USER    (1) Final Intermolecular Energy     =  -14.09 kcal/mol
DOCKED: USER        vdW + Hbond + desolv Energy     =  -14.09 kcal/mol
DOCKED: USER        Electrostatic Energy            =   +0.00 kcal/mol
DOCKED: USER    (2) Final Total Internal Energy     =   -1.76 kcal/mol
DOCKED: USER    (3) Torsional Free Energy           =   +2.98 kcal/mol
DOCKED: USER    (4) Unbound System's Energy  [=(2)] =   -1.76 kcal/mol
DOCKED: USER    
DOCKED: USER    
DOCKED: USER    NEWDPF move ligand.pdbqt
DOCKED: USER    NEWDPF about 1.858000 0.218000 -0.021000
DOCKED: USER    NEWDPF tran0 21.855293 -10.435997 -6.100571
DOCKED: USER    NEWDPF quaternion0 0.337862 0.486628 0.805581 -0.009059
DOCKED: USER    NEWDPF axisangle0 0.337876 0.486648 0.805614 -178.961940
DOCKED: USER    NEWDPF quat0 0.337876 0.486648 0.805614 -178.961940
DOCKED: USER    NEWDPF dihe0 -178.70 164.66 34.23 -64.79 51.39 48.33 37.55 -66.52 104.43 -74.70 
DOCKED: USER  keepresnum = 1 
DOCKED: USER  
DOCKED: REMARK  Name = 
DOCKED: REMARK  12 active torsions:
DOCKED: REMARK  status: ('A' for Active; 'I' for Inactive)
DOCKED: REMARK    1  A    between atoms: C_2  and  O_3
DOCKED: REMARK    2  A    between atoms: O_3  and  C_4
DOCKED: REMARK    3  A    between atoms: C_4  and  C_5
DOCKED: REMARK    4  A    between atoms: C_10  and  C_11
DOCKED: REMARK    5  A    between atoms: C_11  and  N_12
DOCKED: REMARK    6  A    between atoms: N_12  and  C_13
DOCKED: REMARK    7  A    between atoms: N_12  and  C_15
DOCKED: REMARK    8  A    between atoms: C_13  and  C_14
DOCKED: REMARK    9  A    between atoms: C_15  and  C_16
DOCKED: REMARK   10  A    between atoms: N_21  and  C_22
DOCKED: REMARK   11  A    between atoms: C_25  and  C_26
DOCKED: REMARK   12  A    between atoms: N_27  and  O_28
DOCKED: REMARK                            x       y       z     vdW  Elec       q    Type
DOCKED: REMARK                         _______ _______ _______ _____ _____    ______ ____
DOCKED: USER                              x       y       z     vdW  Elec       q    Type
DOCKED: USER                           _______ _______ _______ _____ _____    ______ ____
DOCKED: ROOT
DOCKED: ATOM      1  C   UNL     1      22.599  -8.977  -6.257 -0.25 -0.00    +0.000 C 
DOCKED: ENDROOT
DOCKED: BRANCH   1   2
DOCKED: ATOM      2  C   UNL     1      23.359  -9.808  -7.249 -0.26 -0.00    +0.000 A 
DOCKED: ATOM      3  C   UNL     1      24.668  -9.455  -7.611 -0.25 -0.00    +0.000 A 
DOCKED: ATOM      4  C   UNL     1      25.368 -10.204  -8.560 -0.27 -0.00    +0.000 A 
DOCKED: ATOM      5  C   UNL     1      24.762 -11.311  -9.171 -0.29 -0.00    +0.000 A 
DOCKED: ATOM      6  C   UNL     1      25.457 -12.069 -10.126 -0.24 -0.00    +0.000 A 
DOCKED: ATOM      7  C   UNL     1      24.843 -13.173 -10.739 -0.26 -0.00    +0.000 A 
DOCKED: ATOM      8  C   UNL     1      23.528 -13.518 -10.388 -0.35 -0.00    +0.000 A 
DOCKED: ATOM      9  C   UNL     1      22.829 -12.769  -9.439 -0.32 -0.00    +0.000 A 
DOCKED: ATOM     10  C   UNL     1      23.436 -11.664  -8.824 -0.32 -0.00    +0.000 A 
DOCKED: ATOM     11  C   UNL     1      22.742 -10.906  -7.869 -0.31 -0.00    +0.000 A 
DOCKED: BRANCH   7  12
DOCKED: ATOM     12  C   UNL     1      25.588 -14.003 -11.751 -0.21 -0.00    +0.000 C 
DOCKED: BRANCH  12  13
DOCKED: ATOM     13  N   UNL     1      24.958 -15.334 -11.881 -0.29 +0.00    +0.000 N 
DOCKED: ATOM     14  H   UNL     1      24.532 -15.571 -10.986 -0.03 +0.00    +0.000 HD
DOCKED: BRANCH  13  15
DOCKED: ATOM     15  C   UNL     1      25.968 -16.389 -12.135 -0.23 -0.00    +0.000 C 
DOCKED: ATOM     16  C   UNL     1      27.330 -15.799 -12.498 -0.32 -0.00    +0.000 C 
DOCKED: ENDBRANCH  13  15
DOCKED: BRANCH  13  17
DOCKED: ATOM     17  C   UNL     1      23.831 -15.327 -12.848 -0.22 +0.00    +0.000 C 
DOCKED: ATOM     18  C   UNL     1      22.526 -15.923 -12.301 -0.32 +0.00    +0.000 C 
DOCKED: ENDBRANCH  13  17
DOCKED: ENDBRANCH  12  13
DOCKED: ENDBRANCH   7  12
DOCKED: ENDBRANCH   1   2
DOCKED: BRANCH   1  19
DOCKED: ATOM     19  O   UNL     1      21.461  -9.706  -5.809 -0.30 -0.00    +0.000 OA
DOCKED: BRANCH  19  21
DOCKED: ATOM     20  O   UNL     1      22.139 -11.277  -4.262 -0.58 -0.00    +0.000 OA
DOCKED: ATOM     21  C   UNL     1      21.394 -10.298  -4.546 -0.48 -0.00    +0.000 C 
DOCKED: ATOM     22  N   UNL     1      20.439  -9.808  -3.596 -0.37 -0.00    +0.000 N 
DOCKED: ATOM     23  H   UNL     1      19.774  -9.153  -3.909 -0.00 -0.00    +0.000 HD
DOCKED: BRANCH  22  24
DOCKED: ATOM     24  C   UNL     1      20.388 -10.208  -2.216 -0.47 -0.00    +0.000 A 
DOCKED: ATOM     25  C   UNL     1      19.323 -11.003  -1.770 -0.37 -0.00    +0.000 A 
DOCKED: ATOM     26  C   UNL     1      19.238 -11.388  -0.429 -0.45 -0.00    +0.000 A 
DOCKED: ATOM     27  C   UNL     1      20.213 -10.978   0.497 -0.60 -0.00    +0.000 A 
DOCKED: ATOM     28  C   UNL     1      21.261 -10.151   0.055 -0.61 -0.00    +0.000 A 
DOCKED: ATOM     29  C   UNL     1      21.346  -9.766  -1.287 -0.57 -0.00    +0.000 A 
DOCKED: BRANCH  27  30
DOCKED: ATOM     30  C   UNL     1      20.107 -11.390   1.918 -0.76 -0.00    +0.000 C 
DOCKED: ATOM     31  N   UNL     1      20.642 -10.582   2.972 -0.63 -0.00    +0.000 N 
DOCKED: ATOM     32  O   UNL     1      19.547 -12.483   2.207 -1.49 -0.00    +0.000 OA
DOCKED: ATOM     33  H   UNL     1      21.156  -9.771   2.756 -0.58 -0.00    +0.000 HD
DOCKED: BRANCH  31  34
DOCKED: ATOM     34  O   UNL     1      20.445 -10.929   4.267 -0.74 -0.00    +0.000 OA
DOCKED: ATOM     35  H   UNL     1      20.439 -11.896   4.345 -0.34 -0.00    +0.000 HD
DOCKED: ENDBRANCH  31  34
DOCKED: ENDBRANCH  27  30
DOCKED: ENDBRANCH  22  24
DOCKED: ENDBRANCH  19  21
DOCKED: ENDBRANCH   1  19
DOCKED: TORSDOF 10
DOCKED: TER
DOCKED: ENDMDL
________________________________________________________________________________


	BEGINNING GENETIC ALGORITHM DOCKING 77 of 100
Run: 77 Seed: 1312818822 84000657 [ Run 77 of 100 GA/GALS ]
Beginning LAMARCKIAN GENETIC ALGORITHM (LGA), with a maximum of 2500000 energy evaluations.

Final-Value: -15.085


	FINAL GENETIC ALGORITHM DOCKED STATE
	_______________________________________________


Detailed state:  trans 21.637 -8.899 -5.371 quatxyzw -0.014520 -0.724487 -0.676894 -0.129314 center 1.858 0.218 -0.021 ntor 10 -124.7768 -72.6827 30.8397 -43.1547 -96.1984 -159.5494 91.4893 3.4507 120.0815 -95.7060
State:	 21.637  -8.899  -5.371  -0.015 -0.731 -0.683 -165.140   -124.78  -72.68   30.84  -43.15  -96.20 -159.55   91.49    3.45  120.08  -95.71

DOCKED: MODEL       77
DOCKED: USER    Run = 77
DOCKED: USER    DPF = ligand_dock.biased.dpf
DOCKED: USER  
DOCKED: USER    Estimated Free Energy of Binding    =  -10.04 kcal/mol  [=(1)+(2)+(3)-(4)]
DOCKED: USER    Estimated Inhibition Constant, Ki   =   43.71 nM (nanomolar)  [Temperature = 298.15 K]
DOCKED: USER    
DOCKED: USER    (1) Final Intermolecular Energy     =  -13.02 kcal/mol
DOCKED: USER        vdW + Hbond + desolv Energy     =  -13.02 kcal/mol
DOCKED: USER        Electrostatic Energy            =   +0.00 kcal/mol
DOCKED: USER    (2) Final Total Internal Energy     =   -2.06 kcal/mol
DOCKED: USER    (3) Torsional Free Energy           =   +2.98 kcal/mol
DOCKED: USER    (4) Unbound System's Energy  [=(2)] =   -2.06 kcal/mol
DOCKED: USER    
DOCKED: USER    
DOCKED: USER    NEWDPF move ligand.pdbqt
DOCKED: USER    NEWDPF about 1.858000 0.218000 -0.021000
DOCKED: USER    NEWDPF tran0 21.637324 -8.899148 -5.371164
DOCKED: USER    NEWDPF quaternion0 -0.014520 -0.724487 -0.676894 -0.129314
DOCKED: USER    NEWDPF axisangle0 -0.014643 -0.730622 -0.682625 -165.140045
DOCKED: USER    NEWDPF quat0 -0.014643 -0.730622 -0.682625 -165.140045
DOCKED: USER    NEWDPF dihe0 -124.78 -72.68 30.84 -43.15 -96.20 -159.55 91.49 3.45 120.08 -95.71 
DOCKED: USER  keepresnum = 1 
DOCKED: USER  
DOCKED: REMARK  Name = 
DOCKED: REMARK  12 active torsions:
DOCKED: REMARK  status: ('A' for Active; 'I' for Inactive)
DOCKED: REMARK    1  A    between atoms: C_2  and  O_3
DOCKED: REMARK    2  A    between atoms: O_3  and  C_4
DOCKED: REMARK    3  A    between atoms: C_4  and  C_5
DOCKED: REMARK    4  A    between atoms: C_10  and  C_11
DOCKED: REMARK    5  A    between atoms: C_11  and  N_12
DOCKED: REMARK    6  A    between atoms: N_12  and  C_13
DOCKED: REMARK    7  A    between atoms: N_12  and  C_15
DOCKED: REMARK    8  A    between atoms: C_13  and  C_14
DOCKED: REMARK    9  A    between atoms: C_15  and  C_16
DOCKED: REMARK   10  A    between atoms: N_21  and  C_22
DOCKED: REMARK   11  A    between atoms: C_25  and  C_26
DOCKED: REMARK   12  A    between atoms: N_27  and  O_28
DOCKED: REMARK                            x       y       z     vdW  Elec       q    Type
DOCKED: REMARK                         _______ _______ _______ _____ _____    ______ ____
DOCKED: USER                              x       y       z     vdW  Elec       q    Type
DOCKED: USER                           _______ _______ _______ _____ _____    ______ ____
DOCKED: ROOT
DOCKED: ATOM      1  C   UNL     1      21.408  -7.453  -6.122 -0.15 -0.00    +0.000 C 
DOCKED: ENDROOT
DOCKED: BRANCH   1   2
DOCKED: ATOM      2  C   UNL     1      22.830  -7.760  -6.491 -0.16 -0.00    +0.000 A 
DOCKED: ATOM      3  C   UNL     1      23.794  -6.739  -6.499 -0.12 -0.00    +0.000 A 
DOCKED: ATOM      4  C   UNL     1      25.111  -7.011  -6.875 -0.14 -0.00    +0.000 A 
DOCKED: ATOM      5  C   UNL     1      25.480  -8.307  -7.264 -0.22 -0.00    +0.000 A 
DOCKED: ATOM      6  C   UNL     1      26.801  -8.589  -7.645 -0.26 -0.00    +0.000 A 
DOCKED: ATOM      7  C   UNL     1      27.164  -9.888  -8.038 -0.37 -0.00    +0.000 A 
DOCKED: ATOM      8  C   UNL     1      26.197 -10.906  -8.044 -0.31 -0.00    +0.000 A 
DOCKED: ATOM      9  C   UNL     1      24.880 -10.633  -7.667 -0.32 -0.00    +0.000 A 
DOCKED: ATOM     10  C   UNL     1      24.511  -9.338  -7.274 -0.24 -0.00    +0.000 A 
DOCKED: ATOM     11  C   UNL     1      23.191  -9.055  -6.894 -0.22 -0.00    +0.000 A 
DOCKED: BRANCH   7  12
DOCKED: ATOM     12  C   UNL     1      28.584 -10.203  -8.431 -0.44 -0.00    +0.000 C 
DOCKED: BRANCH  12  13
DOCKED: ATOM     13  N   UNL     1      29.082  -9.194  -9.389 -0.18 -0.00    +0.000 N 
DOCKED: ATOM     14  H   UNL     1      28.300  -8.600  -9.659 +0.01 -0.00    +0.000 HD
DOCKED: BRANCH  13  15
DOCKED: ATOM     15  C   UNL     1      29.555  -9.826 -10.644 -0.22 -0.00    +0.000 C 
DOCKED: ATOM     16  C   UNL     1      28.624 -10.948 -11.103 -0.24 -0.00    +0.000 C 
DOCKED: ENDBRANCH  13  15
DOCKED: BRANCH  13  17
DOCKED: ATOM     17  C   UNL     1      30.064  -8.271  -8.767 -0.15 -0.00    +0.000 C 
DOCKED: ATOM     18  C   UNL     1      30.242  -8.464  -7.254 -0.27 -0.00    +0.000 C 
DOCKED: ENDBRANCH  13  17
DOCKED: ENDBRANCH  12  13
DOCKED: ENDBRANCH   7  12
DOCKED: ENDBRANCH   1   2
DOCKED: BRANCH   1  19
DOCKED: ATOM     19  O   UNL     1      20.823  -8.602  -5.518 -0.21 -0.00    +0.000 OA
DOCKED: BRANCH  19  21
DOCKED: ATOM     20  O   UNL     1      21.601  -8.110  -3.402 -0.42 -0.00    +0.000 OA
DOCKED: ATOM     21  C   UNL     1      20.967  -8.896  -4.159 -0.37 -0.00    +0.000 C 
DOCKED: ATOM     22  N   UNL     1      20.424 -10.121  -3.650 -0.39 -0.00    +0.000 N 
DOCKED: ATOM     23  H   UNL     1      20.078 -10.776  -4.300 -0.01 -0.00    +0.000 HD
DOCKED: BRANCH  22  24
DOCKED: ATOM     24  C   UNL     1      20.350 -10.458  -2.255 -0.46 -0.00    +0.000 A 
DOCKED: ATOM     25  C   UNL     1      21.519 -10.452  -1.483 -0.50 -0.00    +0.000 A 
DOCKED: ATOM     26  C   UNL     1      21.479 -10.796  -0.129 -0.54 -0.00    +0.000 A 
DOCKED: ATOM     27  C   UNL     1      20.266 -11.164   0.480 -0.60 -0.00    +0.000 A 
DOCKED: ATOM     28  C   UNL     1      19.099 -11.204  -0.304 -0.46 -0.00    +0.000 A 
DOCKED: ATOM     29  C   UNL     1      19.141 -10.858  -1.659 -0.40 -0.00    +0.000 A 
DOCKED: BRANCH  27  30
DOCKED: ATOM     30  C   UNL     1      20.239 -11.531   1.916 -0.78 -0.00    +0.000 C 
DOCKED: ATOM     31  N   UNL     1      20.627 -10.599   2.933 -0.64 -0.00    +0.000 N 
DOCKED: ATOM     32  O   UNL     1      19.881 -12.692   2.254 -1.48 -0.00    +0.000 OA
DOCKED: ATOM     33  H   UNL     1      20.989  -9.719   2.680 -0.59 -0.00    +0.000 HD
DOCKED: BRANCH  31  34
DOCKED: ATOM     34  O   UNL     1      20.498 -10.923   4.242 -0.75 -0.00    +0.000 OA
DOCKED: ATOM     35  H   UNL     1      20.610 -11.880   4.351 -0.44 -0.00    +0.000 HD
DOCKED: ENDBRANCH  31  34
DOCKED: ENDBRANCH  27  30
DOCKED: ENDBRANCH  22  24
DOCKED: ENDBRANCH  19  21
DOCKED: ENDBRANCH   1  19
DOCKED: TORSDOF 10
DOCKED: TER
DOCKED: ENDMDL
________________________________________________________________________________


	BEGINNING GENETIC ALGORITHM DOCKING 78 of 100
Run: 78 Seed: 1336084023 1553485981 [ Run 78 of 100 GA/GALS ]
Beginning LAMARCKIAN GENETIC ALGORITHM (LGA), with a maximum of 2500000 energy evaluations.

Final-Value: -14.528


	FINAL GENETIC ALGORITHM DOCKED STATE
	_______________________________________________


Detailed state:  trans 20.343 -7.747 -5.201 quatxyzw 0.731247 -0.601483 -0.238336 0.216083 center 1.858 0.218 -0.021 ntor 10 -147.7694 171.2749 7.3779 -126.2721 61.4445 136.9742 179.8173 93.1051 179.0790 -168.2087
State:	 20.343  -7.747  -5.201   0.749 -0.616 -0.244 155.042   -147.77  171.27    7.38 -126.27   61.44  136.97  179.82   93.11  179.08 -168.21

DOCKED: MODEL       78
DOCKED: USER    Run = 78
DOCKED: USER    DPF = ligand_dock.biased.dpf
DOCKED: USER  
DOCKED: USER    Estimated Free Energy of Binding    =   -8.89 kcal/mol  [=(1)+(2)+(3)-(4)]
DOCKED: USER    Estimated Inhibition Constant, Ki   =  303.41 nM (nanomolar)  [Temperature = 298.15 K]
DOCKED: USER    
DOCKED: USER    (1) Final Intermolecular Energy     =  -11.88 kcal/mol
DOCKED: USER        vdW + Hbond + desolv Energy     =  -11.88 kcal/mol
DOCKED: USER        Electrostatic Energy            =   +0.00 kcal/mol
DOCKED: USER    (2) Final Total Internal Energy     =   -2.65 kcal/mol
DOCKED: USER    (3) Torsional Free Energy           =   +2.98 kcal/mol
DOCKED: USER    (4) Unbound System's Energy  [=(2)] =   -2.65 kcal/mol
DOCKED: USER    
DOCKED: USER    
DOCKED: USER    NEWDPF move ligand.pdbqt
DOCKED: USER    NEWDPF about 1.858000 0.218000 -0.021000
DOCKED: USER    NEWDPF tran0 20.342555 -7.746704 -5.200744
DOCKED: USER    NEWDPF quaternion0 0.731247 -0.601483 -0.238336 0.216083
DOCKED: USER    NEWDPF axisangle0 0.748941 -0.616037 -0.244103 155.041843
DOCKED: USER    NEWDPF quat0 0.748941 -0.616037 -0.244103 155.041843
DOCKED: USER    NEWDPF dihe0 -147.77 171.27 7.38 -126.27 61.44 136.97 179.82 93.11 179.08 -168.21 
DOCKED: USER  keepresnum = 1 
DOCKED: USER  
DOCKED: REMARK  Name = 
DOCKED: REMARK  12 active torsions:
DOCKED: REMARK  status: ('A' for Active; 'I' for Inactive)
DOCKED: REMARK    1  A    between atoms: C_2  and  O_3
DOCKED: REMARK    2  A    between atoms: O_3  and  C_4
DOCKED: REMARK    3  A    between atoms: C_4  and  C_5
DOCKED: REMARK    4  A    between atoms: C_10  and  C_11
DOCKED: REMARK    5  A    between atoms: C_11  and  N_12
DOCKED: REMARK    6  A    between atoms: N_12  and  C_13
DOCKED: REMARK    7  A    between atoms: N_12  and  C_15
DOCKED: REMARK    8  A    between atoms: C_13  and  C_14
DOCKED: REMARK    9  A    between atoms: C_15  and  C_16
DOCKED: REMARK   10  A    between atoms: N_21  and  C_22
DOCKED: REMARK   11  A    between atoms: C_25  and  C_26
DOCKED: REMARK   12  A    between atoms: N_27  and  O_28
DOCKED: REMARK                            x       y       z     vdW  Elec       q    Type
DOCKED: REMARK                         _______ _______ _______ _____ _____    ______ ____
DOCKED: USER                              x       y       z     vdW  Elec       q    Type
DOCKED: USER                           _______ _______ _______ _____ _____    ______ ____
DOCKED: ROOT
DOCKED: ATOM      1  C   UNL     1      20.831  -6.600  -6.275 -0.09 -0.00    +0.000 C 
DOCKED: ENDROOT
DOCKED: BRANCH   1   2
DOCKED: ATOM      2  C   UNL     1      20.754  -5.806  -5.005 -0.13 -0.00    +0.000 A 
DOCKED: ATOM      3  C   UNL     1      19.518  -5.325  -4.546 -0.14 -0.00    +0.000 A 
DOCKED: ATOM      4  C   UNL     1      19.444  -4.555  -3.383 -0.05 -0.00    +0.000 A 
DOCKED: ATOM      5  C   UNL     1      20.610  -4.242  -2.669 -0.25 -0.00    +0.000 A 
DOCKED: ATOM      6  C   UNL     1      20.545  -3.467  -1.500 -0.31 -0.00    +0.000 A 
DOCKED: ATOM      7  C   UNL     1      21.717  -3.153  -0.793 -0.32 +0.00    +0.000 A 
DOCKED: ATOM      8  C   UNL     1      22.955  -3.622  -1.259 -0.08 +0.00    +0.000 A 
DOCKED: ATOM      9  C   UNL     1      23.028  -4.392  -2.422 -0.28 -0.00    +0.000 A 
DOCKED: ATOM     10  C   UNL     1      21.862  -4.709  -3.134 -0.24 -0.00    +0.000 A 
DOCKED: ATOM     11  C   UNL     1      21.926  -5.482  -4.303 -0.18 -0.00    +0.000 A 
DOCKED: BRANCH   7  12
DOCKED: ATOM     12  C   UNL     1      21.655  -2.339   0.473 -0.39 -0.00    +0.000 C 
DOCKED: BRANCH  12  13
DOCKED: ATOM     13  N   UNL     1      22.271  -1.013   0.255 -0.28 -0.00    +0.000 N 
DOCKED: ATOM     14  H   UNL     1      23.259  -1.079   0.497 -0.19 -0.00    +0.000 HD
DOCKED: BRANCH  13  15
DOCKED: ATOM     15  C   UNL     1      21.703   0.006   1.169 -0.29 -0.00    +0.000 C 
DOCKED: ATOM     16  C   UNL     1      20.994  -0.632   2.363 -0.48 -0.00    +0.000 C 
DOCKED: ENDBRANCH  13  15
DOCKED: BRANCH  13  17
DOCKED: ATOM     17  C   UNL     1      22.257  -0.619  -1.176 -0.13 -0.00    +0.000 C 
DOCKED: ATOM     18  C   UNL     1      23.645  -0.332  -1.766 -0.10 -0.00    +0.000 C 
DOCKED: ENDBRANCH  13  17
DOCKED: ENDBRANCH  12  13
DOCKED: ENDBRANCH   7  12
DOCKED: ENDBRANCH   1   2
DOCKED: BRANCH   1  19
DOCKED: ATOM     19  O   UNL     1      20.693  -7.985  -5.972 -0.14 -0.00    +0.000 OA
DOCKED: BRANCH  19  21
DOCKED: ATOM     20  O   UNL     1      19.058  -8.659  -4.489 -0.22 -0.00    +0.000 OA
DOCKED: ATOM     21  C   UNL     1      20.281  -8.445  -4.719 -0.25 -0.00    +0.000 C 
DOCKED: ATOM     22  N   UNL     1      21.260  -8.628  -3.687 -0.37 -0.00    +0.000 N 
DOCKED: ATOM     23  H   UNL     1      22.173  -8.301  -3.857 -0.04 -0.00    +0.000 HD
DOCKED: BRANCH  22  24
DOCKED: ATOM     24  C   UNL     1      20.998  -9.258  -2.422 -0.47 -0.00    +0.000 A 
DOCKED: ATOM     25  C   UNL     1      20.049 -10.287  -2.349 -0.43 -0.00    +0.000 A 
DOCKED: ATOM     26  C   UNL     1      19.759 -10.900  -1.128 -0.44 -0.00    +0.000 A 
DOCKED: ATOM     27  C   UNL     1      20.407 -10.491   0.050 -0.58 -0.00    +0.000 A 
DOCKED: ATOM     28  C   UNL     1      21.333  -9.435  -0.018 -0.51 -0.00    +0.000 A 
DOCKED: ATOM     29  C   UNL     1      21.623  -8.821  -1.240 -0.25 -0.00    +0.000 A 
DOCKED: BRANCH  27  30
DOCKED: ATOM     30  C   UNL     1      20.086 -11.149   1.340 -0.72 -0.00    +0.000 C 
DOCKED: ATOM     31  N   UNL     1      19.999 -10.401   2.559 -0.59 -0.00    +0.000 N 
DOCKED: ATOM     32  O   UNL     1      19.900 -12.396   1.372 -1.64 -0.00    +0.000 OA
DOCKED: ATOM     33  H   UNL     1      20.226  -9.443   2.564 -0.52 -0.00    +0.000 HD
DOCKED: BRANCH  31  34
DOCKED: ATOM     34  O   UNL     1      19.605 -11.006   3.706 -0.76 -0.00    +0.000 OA
DOCKED: ATOM     35  H   UNL     1      19.533 -11.962   3.558 -0.04 -0.00    +0.000 HD
DOCKED: ENDBRANCH  31  34
DOCKED: ENDBRANCH  27  30
DOCKED: ENDBRANCH  22  24
DOCKED: ENDBRANCH  19  21
DOCKED: ENDBRANCH   1  19
DOCKED: TORSDOF 10
DOCKED: TER
DOCKED: ENDMDL
________________________________________________________________________________


	BEGINNING GENETIC ALGORITHM DOCKING 79 of 100
Run: 79 Seed: 639712600 684715123 [ Run 79 of 100 GA/GALS ]
Beginning LAMARCKIAN GENETIC ALGORITHM (LGA), with a maximum of 2500000 energy evaluations.

Final-Value: -15.525


	FINAL GENETIC ALGORITHM DOCKED STATE
	_______________________________________________


Detailed state:  trans 17.219 -9.306 2.770 quatxyzw 0.203842 -0.612992 0.464138 -0.606024 center 1.858 0.218 -0.021 ntor 10 180.0000 178.4419 10.5348 -81.6717 -172.8630 -26.6578 -134.2735 -21.3568 137.6018 -83.1916
State:	 17.219  -9.306   2.770   0.256 -0.771  0.583 -105.395    180.00  178.44   10.53  -81.67 -172.86  -26.66 -134.27  -21.36  137.60  -83.19

DOCKED: MODEL       79
DOCKED: USER    Run = 79
DOCKED: USER    DPF = ligand_dock.biased.dpf
DOCKED: USER  
DOCKED: USER    Estimated Free Energy of Binding    =  -10.44 kcal/mol  [=(1)+(2)+(3)-(4)]
DOCKED: USER    Estimated Inhibition Constant, Ki   =   22.19 nM (nanomolar)  [Temperature = 298.15 K]
DOCKED: USER    
DOCKED: USER    (1) Final Intermolecular Energy     =  -13.42 kcal/mol
DOCKED: USER        vdW + Hbond + desolv Energy     =  -13.42 kcal/mol
DOCKED: USER        Electrostatic Energy            =   +0.00 kcal/mol
DOCKED: USER    (2) Final Total Internal Energy     =   -2.10 kcal/mol
DOCKED: USER    (3) Torsional Free Energy           =   +2.98 kcal/mol
DOCKED: USER    (4) Unbound System's Energy  [=(2)] =   -2.10 kcal/mol
DOCKED: USER    
DOCKED: USER    
DOCKED: USER    NEWDPF move ligand.pdbqt
DOCKED: USER    NEWDPF about 1.858000 0.218000 -0.021000
DOCKED: USER    NEWDPF tran0 17.218929 -9.305648 2.770059
DOCKED: USER    NEWDPF quaternion0 0.203842 -0.612992 0.464138 -0.606024
DOCKED: USER    NEWDPF axisangle0 0.256262 -0.770626 0.583494 -105.394811
DOCKED: USER    NEWDPF quat0 0.256262 -0.770626 0.583494 -105.394811
DOCKED: USER    NEWDPF dihe0 180.00 178.44 10.53 -81.67 -172.86 -26.66 -134.27 -21.36 137.60 -83.19 
DOCKED: USER  keepresnum = 1 
DOCKED: USER  
DOCKED: REMARK  Name = 
DOCKED: REMARK  12 active torsions:
DOCKED: REMARK  status: ('A' for Active; 'I' for Inactive)
DOCKED: REMARK    1  A    between atoms: C_2  and  O_3
DOCKED: REMARK    2  A    between atoms: O_3  and  C_4
DOCKED: REMARK    3  A    between atoms: C_4  and  C_5
DOCKED: REMARK    4  A    between atoms: C_10  and  C_11
DOCKED: REMARK    5  A    between atoms: C_11  and  N_12
DOCKED: REMARK    6  A    between atoms: N_12  and  C_13
DOCKED: REMARK    7  A    between atoms: N_12  and  C_15
DOCKED: REMARK    8  A    between atoms: C_13  and  C_14
DOCKED: REMARK    9  A    between atoms: C_15  and  C_16
DOCKED: REMARK   10  A    between atoms: N_21  and  C_22
DOCKED: REMARK   11  A    between atoms: C_25  and  C_26
DOCKED: REMARK   12  A    between atoms: N_27  and  O_28
DOCKED: REMARK                            x       y       z     vdW  Elec       q    Type
DOCKED: REMARK                         _______ _______ _______ _____ _____    ______ ____
DOCKED: USER                              x       y       z     vdW  Elec       q    Type
DOCKED: USER                           _______ _______ _______ _____ _____    ______ ____
DOCKED: ROOT
DOCKED: ATOM      1  C   UNL     1      16.952 -10.899   3.084 -0.49 +0.00    +0.000 C 
DOCKED: ENDROOT
DOCKED: BRANCH   1   2
DOCKED: ATOM      2  C   UNL     1      17.583 -10.963   1.724 -0.42 +0.00    +0.000 A 
DOCKED: ATOM      3  C   UNL     1      16.902 -11.569   0.657 -0.40 +0.00    +0.000 A 
DOCKED: ATOM      4  C   UNL     1      17.500 -11.664  -0.603 -0.36 -0.00    +0.000 A 
DOCKED: ATOM      5  C   UNL     1      18.795 -11.166  -0.808 -0.42 -0.00    +0.000 A 
DOCKED: ATOM      6  C   UNL     1      19.403 -11.259  -2.070 -0.25 -0.00    +0.000 A 
DOCKED: ATOM      7  C   UNL     1      20.702 -10.763  -2.269 -0.38 -0.00    +0.000 A 
DOCKED: ATOM      8  C   UNL     1      21.389 -10.171  -1.198 -0.59 -0.00    +0.000 A 
DOCKED: ATOM      9  C   UNL     1      20.791 -10.076   0.061 -0.60 -0.00    +0.000 A 
DOCKED: ATOM     10  C   UNL     1      19.495 -10.569   0.267 -0.48 -0.00    +0.000 A 
DOCKED: ATOM     11  C   UNL     1      18.886 -10.478   1.528 -0.46 -0.00    +0.000 A 
DOCKED: BRANCH   7  12
DOCKED: ATOM     12  C   UNL     1      21.355 -10.842  -3.624 -0.49 -0.00    +0.000 C 
DOCKED: BRANCH  12  13
DOCKED: ATOM     13  N   UNL     1      20.948  -9.686  -4.452 -0.34 -0.00    +0.000 N 
DOCKED: ATOM     14  H   UNL     1      19.937  -9.579  -4.370 +0.00 -0.00    +0.000 HD
DOCKED: BRANCH  13  15
DOCKED: ATOM     15  C   UNL     1      21.209  -9.932  -5.890 -0.33 -0.00    +0.000 C 
DOCKED: ATOM     16  C   UNL     1      22.121 -11.139  -6.106 -0.49 -0.00    +0.000 C 
DOCKED: ENDBRANCH  13  15
DOCKED: BRANCH  13  17
DOCKED: ATOM     17  C   UNL     1      21.508  -8.410  -3.942 -0.35 -0.00    +0.000 C 
DOCKED: ATOM     18  C   UNL     1      20.454  -7.416  -3.432 -0.30 -0.00    +0.000 C 
DOCKED: ENDBRANCH  13  17
DOCKED: ENDBRANCH  12  13
DOCKED: ENDBRANCH   7  12
DOCKED: ENDBRANCH   1   2
DOCKED: BRANCH   1  19
DOCKED: ATOM     19  O   UNL     1      17.073  -9.575   3.595 -0.33 +0.00    +0.000 OA
DOCKED: BRANCH  19  21
DOCKED: ATOM     20  O   UNL     1      15.162  -8.747   2.603 -0.35 +0.00    +0.000 OA
DOCKED: ATOM     21  C   UNL     1      16.050  -8.630   3.492 -0.33 +0.00    +0.000 C 
DOCKED: ATOM     22  N   UNL     1      16.048  -7.505   4.381 -0.31 +0.00    +0.000 N 
DOCKED: ATOM     23  H   UNL     1      16.840  -7.368   4.951 -0.21 +0.00    +0.000 HD
DOCKED: BRANCH  22  24
DOCKED: ATOM     24  C   UNL     1      14.968  -6.563   4.497 -0.38 +0.00    +0.000 A 
DOCKED: ATOM     25  C   UNL     1      13.826  -6.914   5.231 -0.36 +0.00    +0.000 A 
DOCKED: ATOM     26  C   UNL     1      12.753  -6.026   5.342 -0.27 +0.00    +0.000 A 
DOCKED: ATOM     27  C   UNL     1      12.796  -4.770   4.712 -0.25 +0.00    +0.000 A 
DOCKED: ATOM     28  C   UNL     1      13.926  -4.434   3.947 -0.24 +0.00    +0.000 A 
DOCKED: ATOM     29  C   UNL     1      15.000  -5.323   3.837 -0.32 +0.00    +0.000 A 
DOCKED: BRANCH  27  30
DOCKED: ATOM     30  C   UNL     1      11.647  -3.840   4.835 -0.38 +0.00    +0.000 C 
DOCKED: ATOM     31  N   UNL     1      10.366  -4.290   5.293 -0.36 +0.00    +0.000 N 
DOCKED: ATOM     32  O   UNL     1      11.792  -2.628   4.516 -0.64 +0.00    +0.000 OA
DOCKED: ATOM     33  H   UNL     1      10.215  -5.248   5.464 -0.01 +0.00    +0.000 HD
DOCKED: BRANCH  31  34
DOCKED: ATOM     34  O   UNL     1       9.362  -3.404   5.494 -0.94 +0.00    +0.000 OA
DOCKED: ATOM     35  H   UNL     1       9.613  -2.541   5.128 -0.58 +0.00    +0.000 HD
DOCKED: ENDBRANCH  31  34
DOCKED: ENDBRANCH  27  30
DOCKED: ENDBRANCH  22  24
DOCKED: ENDBRANCH  19  21
DOCKED: ENDBRANCH   1  19
DOCKED: TORSDOF 10
DOCKED: TER
DOCKED: ENDMDL
________________________________________________________________________________


	BEGINNING GENETIC ALGORITHM DOCKING 80 of 100
Run: 80 Seed: 1459215753 617033103 [ Run 80 of 100 GA/GALS ]
Beginning LAMARCKIAN GENETIC ALGORITHM (LGA), with a maximum of 2500000 energy evaluations.

Final-Value: -15.212


	FINAL GENETIC ALGORITHM DOCKED STATE
	_______________________________________________


Detailed state:  trans 20.745 -8.616 -6.064 quatxyzw 0.019405 -0.812568 0.265461 -0.518544 center 1.858 0.218 -0.021 ntor 10 -129.9195 -176.5602 -0.1705 -161.3161 -99.2131 166.7083 98.2188 157.4736 166.2615 68.8712
State:	 20.745  -8.616  -6.064   0.023 -0.950  0.310 -117.531   -129.92 -176.56   -0.17 -161.32  -99.21  166.71   98.22  157.47  166.26   68.87

DOCKED: MODEL       80
DOCKED: USER    Run = 80
DOCKED: USER    DPF = ligand_dock.biased.dpf
DOCKED: USER  
DOCKED: USER    Estimated Free Energy of Binding    =  -10.17 kcal/mol  [=(1)+(2)+(3)-(4)]
DOCKED: USER    Estimated Inhibition Constant, Ki   =   34.98 nM (nanomolar)  [Temperature = 298.15 K]
DOCKED: USER    
DOCKED: USER    (1) Final Intermolecular Energy     =  -13.16 kcal/mol
DOCKED: USER        vdW + Hbond + desolv Energy     =  -13.16 kcal/mol
DOCKED: USER        Electrostatic Energy            =   +0.00 kcal/mol
DOCKED: USER    (2) Final Total Internal Energy     =   -2.06 kcal/mol
DOCKED: USER    (3) Torsional Free Energy           =   +2.98 kcal/mol
DOCKED: USER    (4) Unbound System's Energy  [=(2)] =   -2.06 kcal/mol
DOCKED: USER    
DOCKED: USER    
DOCKED: USER    NEWDPF move ligand.pdbqt
DOCKED: USER    NEWDPF about 1.858000 0.218000 -0.021000
DOCKED: USER    NEWDPF tran0 20.745201 -8.615998 -6.064219
DOCKED: USER    NEWDPF quaternion0 0.019405 -0.812568 0.265461 -0.518544
DOCKED: USER    NEWDPF axisangle0 0.022694 -0.950315 0.310462 -117.530773
DOCKED: USER    NEWDPF quat0 0.022694 -0.950315 0.310462 -117.530773
DOCKED: USER    NEWDPF dihe0 -129.92 -176.56 -0.17 -161.32 -99.21 166.71 98.22 157.47 166.26 68.87 
DOCKED: USER  keepresnum = 1 
DOCKED: USER  
DOCKED: REMARK  Name = 
DOCKED: REMARK  12 active torsions:
DOCKED: REMARK  status: ('A' for Active; 'I' for Inactive)
DOCKED: REMARK    1  A    between atoms: C_2  and  O_3
DOCKED: REMARK    2  A    between atoms: O_3  and  C_4
DOCKED: REMARK    3  A    between atoms: C_4  and  C_5
DOCKED: REMARK    4  A    between atoms: C_10  and  C_11
DOCKED: REMARK    5  A    between atoms: C_11  and  N_12
DOCKED: REMARK    6  A    between atoms: N_12  and  C_13
DOCKED: REMARK    7  A    between atoms: N_12  and  C_15
DOCKED: REMARK    8  A    between atoms: C_13  and  C_14
DOCKED: REMARK    9  A    between atoms: C_15  and  C_16
DOCKED: REMARK   10  A    between atoms: N_21  and  C_22
DOCKED: REMARK   11  A    between atoms: C_25  and  C_26
DOCKED: REMARK   12  A    between atoms: N_27  and  O_28
DOCKED: REMARK                            x       y       z     vdW  Elec       q    Type
DOCKED: REMARK                         _______ _______ _______ _____ _____    ______ ____
DOCKED: USER                              x       y       z     vdW  Elec       q    Type
DOCKED: USER                           _______ _______ _______ _____ _____    ______ ____
DOCKED: ROOT
DOCKED: ATOM      1  C   UNL     1      19.771  -9.896  -6.409 -0.25 -0.00    +0.000 C 
DOCKED: ENDROOT
DOCKED: BRANCH   1   2
DOCKED: ATOM      2  C   UNL     1      20.886 -10.094  -7.394 -0.23 -0.00    +0.000 A 
DOCKED: ATOM      3  C   UNL     1      20.779  -9.578  -8.695 -0.14 -0.00    +0.000 A 
DOCKED: ATOM      4  C   UNL     1      21.798  -9.789  -9.627 -0.12 -0.00    +0.000 A 
DOCKED: ATOM      5  C   UNL     1      22.933 -10.534  -9.275 -0.17 -0.00    +0.000 A 
DOCKED: ATOM      6  C   UNL     1      23.960 -10.753 -10.206 -0.12 -0.00    +0.000 A 
DOCKED: ATOM      7  C   UNL     1      25.092 -11.504  -9.849 -0.24 -0.00    +0.000 A 
DOCKED: ATOM      8  C   UNL     1      25.192 -12.034  -8.553 -0.40 -0.00    +0.000 A 
DOCKED: ATOM      9  C   UNL     1      24.173 -11.821  -7.621 -0.42 -0.00    +0.000 A 
DOCKED: ATOM     10  C   UNL     1      23.040 -11.073  -7.971 -0.33 -0.00    +0.000 A 
DOCKED: ATOM     11  C   UNL     1      22.012 -10.854  -7.042 -0.33 -0.00    +0.000 A 
DOCKED: BRANCH   7  12
DOCKED: ATOM     12  C   UNL     1      26.208 -11.728 -10.836 -0.15 -0.00    +0.000 C 
DOCKED: BRANCH  12  13
DOCKED: ATOM     13  N   UNL     1      25.868 -12.844 -11.744 -0.18 -0.00    +0.000 N 
DOCKED: ATOM     14  H   UNL     1      26.631 -13.520 -11.714 -0.58 -0.00    +0.000 HD
DOCKED: BRANCH  13  15
DOCKED: ATOM     15  C   UNL     1      25.789 -12.392 -13.153 -0.09 -0.00    +0.000 C 
DOCKED: ATOM     16  C   UNL     1      26.833 -11.321 -13.467 -0.08 -0.00    +0.000 C 
DOCKED: ENDBRANCH  13  15
DOCKED: BRANCH  13  17
DOCKED: ATOM     17  C   UNL     1      24.675 -13.597 -11.280 -0.28 -0.00    +0.000 C 
DOCKED: ATOM     18  C   UNL     1      24.983 -15.009 -10.760 -0.39 -0.00    +0.000 C 
DOCKED: ENDBRANCH  13  17
DOCKED: ENDBRANCH  12  13
DOCKED: ENDBRANCH   7  12
DOCKED: ENDBRANCH   1   2
DOCKED: BRANCH   1  19
DOCKED: ATOM     19  O   UNL     1      20.139  -8.879  -5.484 -0.18 -0.00    +0.000 OA
DOCKED: BRANCH  19  21
DOCKED: ATOM     20  O   UNL     1      21.133  -8.359  -3.468 -0.41 -0.00    +0.000 OA
DOCKED: ATOM     21  C   UNL     1      20.406  -9.143  -4.138 -0.34 -0.00    +0.000 C 
DOCKED: ATOM     22  N   UNL     1      19.880 -10.337  -3.545 -0.37 -0.00    +0.000 N 
DOCKED: ATOM     23  H   UNL     1      19.454 -10.997  -4.139 -0.01 -0.00    +0.000 HD
DOCKED: BRANCH  22  24
DOCKED: ATOM     24  C   UNL     1      19.932 -10.636  -2.139 -0.42 -0.00    +0.000 A 
DOCKED: ATOM     25  C   UNL     1      21.148 -10.509  -1.454 -0.55 -0.00    +0.000 A 
DOCKED: ATOM     26  C   UNL     1      21.232 -10.813  -0.093 -0.58 -0.00    +0.000 A 
DOCKED: ATOM     27  C   UNL     1      20.100 -11.261   0.611 -0.61 -0.00    +0.000 A 
DOCKED: ATOM     28  C   UNL     1      18.889 -11.422  -0.086 -0.47 -0.00    +0.000 A 
DOCKED: ATOM     29  C   UNL     1      18.806 -11.116  -1.448 -0.38 -0.00    +0.000 A 
DOCKED: BRANCH  27  30
DOCKED: ATOM     30  C   UNL     1      20.205 -11.585   2.054 -0.78 -0.00    +0.000 C 
DOCKED: ATOM     31  N   UNL     1      20.644 -10.611   3.009 -0.64 -0.00    +0.000 N 
DOCKED: ATOM     32  O   UNL     1      19.917 -12.746   2.453 -1.34 -0.00    +0.000 OA
DOCKED: ATOM     33  H   UNL     1      20.953  -9.728   2.702 -0.59 -0.00    +0.000 HD
DOCKED: BRANCH  31  34
DOCKED: ATOM     34  O   UNL     1      20.634 -10.899   4.333 -0.75 -0.00    +0.000 OA
DOCKED: ATOM     35  H   UNL     1      20.302 -11.800   4.465 -0.23 -0.00    +0.000 HD
DOCKED: ENDBRANCH  31  34
DOCKED: ENDBRANCH  27  30
DOCKED: ENDBRANCH  22  24
DOCKED: ENDBRANCH  19  21
DOCKED: ENDBRANCH   1  19
DOCKED: TORSDOF 10
DOCKED: TER
DOCKED: ENDMDL
________________________________________________________________________________


	BEGINNING GENETIC ALGORITHM DOCKING 81 of 100
Run: 81 Seed: 1726285545 1391969691 [ Run 81 of 100 GA/GALS ]
Beginning LAMARCKIAN GENETIC ALGORITHM (LGA), with a maximum of 2500000 energy evaluations.

Final-Value: -15.485


	FINAL GENETIC ALGORITHM DOCKED STATE
	_______________________________________________


Detailed state:  trans 20.262 -10.136 1.701 quatxyzw 0.482092 0.160023 -0.004899 -0.861369 center 1.858 0.218 -0.021 ntor 10 88.6171 180.0000 -0.2900 -67.9521 -71.3865 -20.6077 179.7523 -179.1116 -168.5249 105.1444
State:	 20.262 -10.136   1.701   0.949  0.315 -0.010 -61.059     88.62  180.00   -0.29  -67.95  -71.39  -20.61  179.75 -179.11 -168.52  105.14

DOCKED: MODEL       81
DOCKED: USER    Run = 81
DOCKED: USER    DPF = ligand_dock.biased.dpf
DOCKED: USER  
DOCKED: USER    Estimated Free Energy of Binding    =  -10.15 kcal/mol  [=(1)+(2)+(3)-(4)]
DOCKED: USER    Estimated Inhibition Constant, Ki   =   36.41 nM (nanomolar)  [Temperature = 298.15 K]
DOCKED: USER    
DOCKED: USER    (1) Final Intermolecular Energy     =  -13.13 kcal/mol
DOCKED: USER        vdW + Hbond + desolv Energy     =  -13.13 kcal/mol
DOCKED: USER        Electrostatic Energy            =   +0.00 kcal/mol
DOCKED: USER    (2) Final Total Internal Energy     =   -2.35 kcal/mol
DOCKED: USER    (3) Torsional Free Energy           =   +2.98 kcal/mol
DOCKED: USER    (4) Unbound System's Energy  [=(2)] =   -2.35 kcal/mol
DOCKED: USER    
DOCKED: USER    
DOCKED: USER    NEWDPF move ligand.pdbqt
DOCKED: USER    NEWDPF about 1.858000 0.218000 -0.021000
DOCKED: USER    NEWDPF tran0 20.262450 -10.135693 1.700924
DOCKED: USER    NEWDPF quaternion0 0.482092 0.160023 -0.004899 -0.861369
DOCKED: USER    NEWDPF axisangle0 0.949037 0.315018 -0.009644 -61.058800
DOCKED: USER    NEWDPF quat0 0.949037 0.315018 -0.009644 -61.058800
DOCKED: USER    NEWDPF dihe0 88.62 180.00 -0.29 -67.95 -71.39 -20.61 179.75 -179.11 -168.52 105.14 
DOCKED: USER  keepresnum = 1 
DOCKED: USER  
DOCKED: REMARK  Name = 
DOCKED: REMARK  12 active torsions:
DOCKED: REMARK  status: ('A' for Active; 'I' for Inactive)
DOCKED: REMARK    1  A    between atoms: C_2  and  O_3
DOCKED: REMARK    2  A    between atoms: O_3  and  C_4
DOCKED: REMARK    3  A    between atoms: C_4  and  C_5
DOCKED: REMARK    4  A    between atoms: C_10  and  C_11
DOCKED: REMARK    5  A    between atoms: C_11  and  N_12
DOCKED: REMARK    6  A    between atoms: N_12  and  C_13
DOCKED: REMARK    7  A    between atoms: N_12  and  C_15
DOCKED: REMARK    8  A    between atoms: C_13  and  C_14
DOCKED: REMARK    9  A    between atoms: C_15  and  C_16
DOCKED: REMARK   10  A    between atoms: N_21  and  C_22
DOCKED: REMARK   11  A    between atoms: C_25  and  C_26
DOCKED: REMARK   12  A    between atoms: N_27  and  O_28
DOCKED: REMARK                            x       y       z     vdW  Elec       q    Type
DOCKED: REMARK                         _______ _______ _______ _____ _____    ______ ____
DOCKED: USER                              x       y       z     vdW  Elec       q    Type
DOCKED: USER                           _______ _______ _______ _____ _____    ______ ____
DOCKED: ROOT
DOCKED: ATOM      1  C   UNL     1      20.413 -11.759   1.925 -0.78 -0.00    +0.000 C 
DOCKED: ENDROOT
DOCKED: BRANCH   1   2
DOCKED: ATOM      2  C   UNL     1      18.923 -11.586   1.978 -0.55 -0.00    +0.000 A 
DOCKED: ATOM      3  C   UNL     1      18.328 -10.906   3.051 -0.45 -0.00    +0.000 A 
DOCKED: ATOM      4  C   UNL     1      16.939 -10.773   3.123 -0.43 +0.00    +0.000 A 
DOCKED: ATOM      5  C   UNL     1      16.124 -11.333   2.128 -0.40 +0.00    +0.000 A 
DOCKED: ATOM      6  C   UNL     1      14.728 -11.205   2.194 -0.41 +0.00    +0.000 A 
DOCKED: ATOM      7  C   UNL     1      13.917 -11.771   1.197 -0.40 +0.00    +0.000 A 
DOCKED: ATOM      8  C   UNL     1      14.511 -12.464   0.131 -0.43 +0.00    +0.000 A 
DOCKED: ATOM      9  C   UNL     1      15.900 -12.596   0.059 -0.48 +0.00    +0.000 A 
DOCKED: ATOM     10  C   UNL     1      16.715 -12.034   1.051 -0.43 +0.00    +0.000 A 
DOCKED: ATOM     11  C   UNL     1      18.111 -12.161   0.987 -0.50 -0.00    +0.000 A 
DOCKED: BRANCH   7  12
DOCKED: ATOM     12  C   UNL     1      12.419 -11.623   1.250 -0.45 +0.00    +0.000 C 
DOCKED: BRANCH  12  13
DOCKED: ATOM     13  N   UNL     1      12.002 -10.410   0.514 -0.23 +0.00    +0.000 N 
DOCKED: ATOM     14  H   UNL     1      12.734  -9.709   0.618 +0.01 +0.00    +0.000 HD
DOCKED: BRANCH  13  15
DOCKED: ATOM     15  C   UNL     1      10.784  -9.808   1.108 -0.18 +0.00    +0.000 C 
DOCKED: ATOM     16  C   UNL     1       9.543 -10.075   0.258 -0.19 +0.00    +0.000 C 
DOCKED: ENDBRANCH  13  15
DOCKED: BRANCH  13  17
DOCKED: ATOM     17  C   UNL     1      11.910 -10.648  -0.948 -0.22 +0.00    +0.000 C 
DOCKED: ATOM     18  C   UNL     1      12.950  -9.882  -1.779 -0.24 -0.00    +0.000 C 
DOCKED: ENDBRANCH  13  17
DOCKED: ENDBRANCH  12  13
DOCKED: ENDBRANCH   7  12
DOCKED: ENDBRANCH   1   2
DOCKED: BRANCH   1  19
DOCKED: ATOM     19  O   UNL     1      21.010 -10.544   1.483 -0.75 -0.00    +0.000 OA
DOCKED: BRANCH  19  21
DOCKED: ATOM     20  O   UNL     1      21.513  -9.038  -0.191 -0.67 -0.00    +0.000 OA
DOCKED: ATOM     21  C   UNL     1      20.971 -10.126   0.150 -0.70 -0.00    +0.000 C 
DOCKED: ATOM     22  N   UNL     1      20.272 -10.927  -0.812 -0.52 -0.00    +0.000 N 
DOCKED: ATOM     23  H   UNL     1      19.733 -11.680  -0.478 -0.03 -0.00    +0.000 HD
DOCKED: BRANCH  22  24
DOCKED: ATOM     24  C   UNL     1      20.306 -10.704  -2.232 -0.41 -0.00    +0.000 A 
DOCKED: ATOM     25  C   UNL     1      21.466 -10.180  -2.818 -0.44 -0.00    +0.000 A 
DOCKED: ATOM     26  C   UNL     1      21.518  -9.933  -4.193 -0.39 -0.00    +0.000 A 
DOCKED: ATOM     27  C   UNL     1      20.405 -10.198  -5.009 -0.33 -0.00    +0.000 A 
DOCKED: ATOM     28  C   UNL     1      19.229 -10.690  -4.414 -0.35 -0.00    +0.000 A 
DOCKED: ATOM     29  C   UNL     1      19.178 -10.937  -3.039 -0.35 -0.00    +0.000 A 
DOCKED: BRANCH  27  30
DOCKED: ATOM     30  C   UNL     1      20.473  -9.927  -6.466 -0.27 -0.00    +0.000 C 
DOCKED: ATOM     31  N   UNL     1      20.998 -10.895  -7.382 -0.28 -0.00    +0.000 N 
DOCKED: ATOM     32  O   UNL     1      20.074  -8.816  -6.911 -0.13 -0.00    +0.000 OA
DOCKED: ATOM     33  H   UNL     1      21.391 -11.731  -7.041 -0.47 -0.00    +0.000 HD
DOCKED: BRANCH  31  34
DOCKED: ATOM     34  O   UNL     1      20.956 -10.666  -8.717 -0.27 -0.00    +0.000 OA
DOCKED: ATOM     35  H   UNL     1      20.537  -9.808  -8.885 -0.00 -0.00    +0.000 HD
DOCKED: ENDBRANCH  31  34
DOCKED: ENDBRANCH  27  30
DOCKED: ENDBRANCH  22  24
DOCKED: ENDBRANCH  19  21
DOCKED: ENDBRANCH   1  19
DOCKED: TORSDOF 10
DOCKED: TER
DOCKED: ENDMDL
________________________________________________________________________________


	BEGINNING GENETIC ALGORITHM DOCKING 82 of 100
Run: 82 Seed: 402355809 1279298620 [ Run 82 of 100 GA/GALS ]
Beginning LAMARCKIAN GENETIC ALGORITHM (LGA), with a maximum of 2500000 energy evaluations.

Final-Value: -15.563


	FINAL GENETIC ALGORITHM DOCKED STATE
	_______________________________________________


Detailed state:  trans 20.646 -10.199 -6.126 quatxyzw 0.768629 0.285616 0.060619 0.569173 center 1.858 0.218 -0.021 ntor 10 -44.4960 -30.1017 30.7278 38.8597 72.2492 -179.9759 6.1428 178.0894 -168.3471 104.2201
State:	 20.646 -10.199  -6.126   0.935  0.347  0.074 110.615    -44.50  -30.10   30.73   38.86   72.25 -179.98    6.14  178.09 -168.35  104.22

DOCKED: MODEL       82
DOCKED: USER    Run = 82
DOCKED: USER    DPF = ligand_dock.biased.dpf
DOCKED: USER  
DOCKED: USER    Estimated Free Energy of Binding    =  -10.26 kcal/mol  [=(1)+(2)+(3)-(4)]
DOCKED: USER    Estimated Inhibition Constant, Ki   =   30.29 nM (nanomolar)  [Temperature = 298.15 K]
DOCKED: USER    
DOCKED: USER    (1) Final Intermolecular Energy     =  -13.24 kcal/mol
DOCKED: USER        vdW + Hbond + desolv Energy     =  -13.24 kcal/mol
DOCKED: USER        Electrostatic Energy            =   +0.00 kcal/mol
DOCKED: USER    (2) Final Total Internal Energy     =   -2.32 kcal/mol
DOCKED: USER    (3) Torsional Free Energy           =   +2.98 kcal/mol
DOCKED: USER    (4) Unbound System's Energy  [=(2)] =   -2.32 kcal/mol
DOCKED: USER    
DOCKED: USER    
DOCKED: USER    NEWDPF move ligand.pdbqt
DOCKED: USER    NEWDPF about 1.858000 0.218000 -0.021000
DOCKED: USER    NEWDPF tran0 20.645825 -10.198834 -6.125897
DOCKED: USER    NEWDPF quaternion0 0.768629 0.285616 0.060619 0.569173
DOCKED: USER    NEWDPF axisangle0 0.934824 0.347373 0.073726 110.614791
DOCKED: USER    NEWDPF quat0 0.934824 0.347373 0.073726 110.614791
DOCKED: USER    NEWDPF dihe0 -44.50 -30.10 30.73 38.86 72.25 -179.98 6.14 178.09 -168.35 104.22 
DOCKED: USER  keepresnum = 1 
DOCKED: USER  
DOCKED: REMARK  Name = 
DOCKED: REMARK  12 active torsions:
DOCKED: REMARK  status: ('A' for Active; 'I' for Inactive)
DOCKED: REMARK    1  A    between atoms: C_2  and  O_3
DOCKED: REMARK    2  A    between atoms: O_3  and  C_4
DOCKED: REMARK    3  A    between atoms: C_4  and  C_5
DOCKED: REMARK    4  A    between atoms: C_10  and  C_11
DOCKED: REMARK    5  A    between atoms: C_11  and  N_12
DOCKED: REMARK    6  A    between atoms: N_12  and  C_13
DOCKED: REMARK    7  A    between atoms: N_12  and  C_15
DOCKED: REMARK    8  A    between atoms: C_13  and  C_14
DOCKED: REMARK    9  A    between atoms: C_15  and  C_16
DOCKED: REMARK   10  A    between atoms: N_21  and  C_22
DOCKED: REMARK   11  A    between atoms: C_25  and  C_26
DOCKED: REMARK   12  A    between atoms: N_27  and  O_28
DOCKED: REMARK                            x       y       z     vdW  Elec       q    Type
DOCKED: REMARK                         _______ _______ _______ _____ _____    ______ ____
DOCKED: USER                              x       y       z     vdW  Elec       q    Type
DOCKED: USER                           _______ _______ _______ _____ _____    ______ ____
DOCKED: ROOT
DOCKED: ATOM      1  C   UNL     1      19.833  -8.768  -6.156 -0.16 -0.00    +0.000 C 
DOCKED: ENDROOT
DOCKED: BRANCH   1   2
DOCKED: ATOM      2  C   UNL     1      18.736  -9.742  -6.473 -0.18 -0.00    +0.000 A 
DOCKED: ATOM      3  C   UNL     1      18.738 -10.436  -7.692 -0.25 -0.00    +0.000 A 
DOCKED: ATOM      4  C   UNL     1      17.701 -11.317  -8.009 -0.17 -0.00    +0.000 A 
DOCKED: ATOM      5  C   UNL     1      16.639 -11.505  -7.113 -0.33 -0.00    +0.000 A 
DOCKED: ATOM      6  C   UNL     1      15.592 -12.387  -7.423 -0.34 -0.00    +0.000 A 
DOCKED: ATOM      7  C   UNL     1      14.528 -12.569  -6.525 -0.31 -0.00    +0.000 A 
DOCKED: ATOM      8  C   UNL     1      14.518 -11.864  -5.311 -0.23 -0.00    +0.000 A 
DOCKED: ATOM      9  C   UNL     1      15.556 -10.983  -4.996 -0.22 -0.00    +0.000 A 
DOCKED: ATOM     10  C   UNL     1      16.620 -10.797  -5.888 -0.25 -0.00    +0.000 A 
DOCKED: ATOM     11  C   UNL     1      17.667  -9.915  -5.580 -0.20 -0.00    +0.000 A 
DOCKED: BRANCH   7  12
DOCKED: ATOM     12  C   UNL     1      13.410 -13.528  -6.842 -0.40 -0.00    +0.000 C 
DOCKED: BRANCH  12  13
DOCKED: ATOM     13  N   UNL     1      12.603 -13.013  -7.968 -0.22 -0.00    +0.000 N 
DOCKED: ATOM     14  H   UNL     1      13.141 -13.135  -8.825 -0.00 -0.00    +0.000 HD
DOCKED: BRANCH  13  15
DOCKED: ATOM     15  C   UNL     1      12.370 -11.555  -7.846 -0.14 -0.00    +0.000 C 
DOCKED: ATOM     16  C   UNL     1      12.898 -10.789  -9.059 -0.07 -0.00    +0.000 C 
DOCKED: ENDBRANCH  13  15
DOCKED: BRANCH  13  17
DOCKED: ATOM     17  C   UNL     1      11.368 -13.810  -8.179 -0.20 -0.00    +0.000 C 
DOCKED: ATOM     18  C   UNL     1      10.712 -14.312  -6.885 -0.24 -0.00    +0.000 C 
DOCKED: ENDBRANCH  13  17
DOCKED: ENDBRANCH  12  13
DOCKED: ENDBRANCH   7  12
DOCKED: ENDBRANCH   1   2
DOCKED: BRANCH   1  19
DOCKED: ATOM     19  O   UNL     1      20.993  -9.486  -5.746 -0.26 -0.00    +0.000 OA
DOCKED: BRANCH  19  21
DOCKED: ATOM     20  O   UNL     1      22.138 -10.742  -4.185 -0.53 -0.00    +0.000 OA
DOCKED: ATOM     21  C   UNL     1      21.112 -10.068  -4.481 -0.44 -0.00    +0.000 C 
DOCKED: ATOM     22  N   UNL     1      20.038  -9.924  -3.543 -0.35 -0.00    +0.000 N 
DOCKED: ATOM     23  H   UNL     1      19.196  -9.528  -3.866 -0.00 -0.00    +0.000 HD
DOCKED: BRANCH  22  24
DOCKED: ATOM     24  C   UNL     1      20.107 -10.319  -2.162 -0.44 -0.00    +0.000 A 
DOCKED: ATOM     25  C   UNL     1      18.986 -10.906  -1.559 -0.39 -0.00    +0.000 A 
DOCKED: ATOM     26  C   UNL     1      19.020 -11.279  -0.212 -0.47 -0.00    +0.000 A 
DOCKED: ATOM     27  C   UNL     1      20.173 -11.065   0.561 -0.60 -0.00    +0.000 A 
DOCKED: ATOM     28  C   UNL     1      21.284 -10.444  -0.036 -0.62 -0.00    +0.000 A 
DOCKED: ATOM     29  C   UNL     1      21.251 -10.071  -1.384 -0.57 -0.00    +0.000 A 
DOCKED: BRANCH  27  30
DOCKED: ATOM     30  C   UNL     1      20.192 -11.463   1.990 -0.77 -0.00    +0.000 C 
DOCKED: ATOM     31  N   UNL     1      20.630 -10.559   3.011 -0.64 -0.00    +0.000 N 
DOCKED: ATOM     32  O   UNL     1      19.829 -12.625   2.317 -1.46 -0.00    +0.000 OA
DOCKED: ATOM     33  H   UNL     1      20.997  -9.679   2.764 -0.59 -0.00    +0.000 HD
DOCKED: BRANCH  31  34
DOCKED: ATOM     34  O   UNL     1      20.543 -10.908   4.317 -0.74 -0.00    +0.000 OA
DOCKED: ATOM     35  H   UNL     1      20.643 -11.869   4.402 -0.45 -0.00    +0.000 HD
DOCKED: ENDBRANCH  31  34
DOCKED: ENDBRANCH  27  30
DOCKED: ENDBRANCH  22  24
DOCKED: ENDBRANCH  19  21
DOCKED: ENDBRANCH   1  19
DOCKED: TORSDOF 10
DOCKED: TER
DOCKED: ENDMDL
________________________________________________________________________________


	BEGINNING GENETIC ALGORITHM DOCKING 83 of 100
Run: 83 Seed: 114296238 528838120 [ Run 83 of 100 GA/GALS ]
Beginning LAMARCKIAN GENETIC ALGORITHM (LGA), with a maximum of 2500000 energy evaluations.

Final-Value: -15.501


	FINAL GENETIC ALGORITHM DOCKED STATE
	_______________________________________________


Detailed state:  trans 19.585 -12.220 0.741 quatxyzw -0.497666 0.033241 -0.829491 -0.251333 center 1.858 0.218 -0.021 ntor 10 -144.2647 63.5327 6.2293 178.6025 122.0914 -9.1080 -3.5689 139.0922 69.7501 103.0291
State:	 19.585 -12.220   0.741  -0.514  0.034 -0.857 -150.887   -144.26   63.53    6.23  178.60  122.09   -9.11   -3.57  139.09   69.75  103.03

DOCKED: MODEL       83
DOCKED: USER    Run = 83
DOCKED: USER    DPF = ligand_dock.biased.dpf
DOCKED: USER  
DOCKED: USER    Estimated Free Energy of Binding    =  -10.24 kcal/mol  [=(1)+(2)+(3)-(4)]
DOCKED: USER    Estimated Inhibition Constant, Ki   =   31.01 nM (nanomolar)  [Temperature = 298.15 K]
DOCKED: USER    
DOCKED: USER    (1) Final Intermolecular Energy     =  -13.23 kcal/mol
DOCKED: USER        vdW + Hbond + desolv Energy     =  -13.23 kcal/mol
DOCKED: USER        Electrostatic Energy            =   +0.00 kcal/mol
DOCKED: USER    (2) Final Total Internal Energy     =   -2.27 kcal/mol
DOCKED: USER    (3) Torsional Free Energy           =   +2.98 kcal/mol
DOCKED: USER    (4) Unbound System's Energy  [=(2)] =   -2.27 kcal/mol
DOCKED: USER    
DOCKED: USER    
DOCKED: USER    NEWDPF move ligand.pdbqt
DOCKED: USER    NEWDPF about 1.858000 0.218000 -0.021000
DOCKED: USER    NEWDPF tran0 19.584533 -12.220240 0.741025
DOCKED: USER    NEWDPF quaternion0 -0.497666 0.033241 -0.829491 -0.251333
DOCKED: USER    NEWDPF axisangle0 -0.514170 0.034343 -0.857000 -150.887150
DOCKED: USER    NEWDPF quat0 -0.514170 0.034343 -0.857000 -150.887150
DOCKED: USER    NEWDPF dihe0 -144.26 63.53 6.23 178.60 122.09 -9.11 -3.57 139.09 69.75 103.03 
DOCKED: USER  keepresnum = 1 
DOCKED: USER  
DOCKED: REMARK  Name = 
DOCKED: REMARK  12 active torsions:
DOCKED: REMARK  status: ('A' for Active; 'I' for Inactive)
DOCKED: REMARK    1  A    between atoms: C_2  and  O_3
DOCKED: REMARK    2  A    between atoms: O_3  and  C_4
DOCKED: REMARK    3  A    between atoms: C_4  and  C_5
DOCKED: REMARK    4  A    between atoms: C_10  and  C_11
DOCKED: REMARK    5  A    between atoms: C_11  and  N_12
DOCKED: REMARK    6  A    between atoms: N_12  and  C_13
DOCKED: REMARK    7  A    between atoms: N_12  and  C_15
DOCKED: REMARK    8  A    between atoms: C_13  and  C_14
DOCKED: REMARK    9  A    between atoms: C_15  and  C_16
DOCKED: REMARK   10  A    between atoms: N_21  and  C_22
DOCKED: REMARK   11  A    between atoms: C_25  and  C_26
DOCKED: REMARK   12  A    between atoms: N_27  and  O_28
DOCKED: REMARK                            x       y       z     vdW  Elec       q    Type
DOCKED: REMARK                         _______ _______ _______ _____ _____    ______ ____
DOCKED: USER                              x       y       z     vdW  Elec       q    Type
DOCKED: USER                           _______ _______ _______ _____ _____    ______ ____
DOCKED: ROOT
DOCKED: ATOM      1  C   UNL     1      20.655 -11.284   1.569 -0.74 -0.00    +0.000 C 
DOCKED: ENDROOT
DOCKED: BRANCH   1   2
DOCKED: ATOM      2  C   UNL     1      20.705 -10.661   0.204 -0.61 -0.00    +0.000 A 
DOCKED: ATOM      3  C   UNL     1      21.371  -9.442   0.008 -0.50 -0.00    +0.000 A 
DOCKED: ATOM      4  C   UNL     1      21.391  -8.839  -1.252 -0.49 -0.00    +0.000 A 
DOCKED: ATOM      5  C   UNL     1      20.731  -9.442  -2.332 -0.47 -0.00    +0.000 A 
DOCKED: ATOM      6  C   UNL     1      20.744  -8.843  -3.602 -0.36 -0.00    +0.000 A 
DOCKED: ATOM      7  C   UNL     1      20.077  -9.449  -4.679 -0.26 -0.00    +0.000 A 
DOCKED: ATOM      8  C   UNL     1      19.399 -10.661  -4.480 -0.36 -0.00    +0.000 A 
DOCKED: ATOM      9  C   UNL     1      19.380 -11.263  -3.219 -0.31 -0.00    +0.000 A 
DOCKED: ATOM     10  C   UNL     1      20.043 -10.663  -2.140 -0.41 -0.00    +0.000 A 
DOCKED: ATOM     11  C   UNL     1      20.029 -11.261  -0.870 -0.22 -0.00    +0.000 A 
DOCKED: BRANCH   7  12
DOCKED: ATOM     12  C   UNL     1      20.103  -8.822  -6.048 -0.17 -0.00    +0.000 C 
DOCKED: BRANCH  12  13
DOCKED: ATOM     13  N   UNL     1      21.068  -9.532  -6.914 -0.19 -0.00    +0.000 N 
DOCKED: ATOM     14  H   UNL     1      21.487  -8.851  -7.547 +0.00 -0.00    +0.000 HD
DOCKED: BRANCH  13  15
DOCKED: ATOM     15  C   UNL     1      20.390 -10.521  -7.784 -0.27 -0.00    +0.000 C 
DOCKED: ATOM     16  C   UNL     1      18.908 -10.198  -7.968 -0.24 -0.00    +0.000 C 
DOCKED: ENDBRANCH  13  15
DOCKED: BRANCH  13  17
DOCKED: ATOM     17  C   UNL     1      22.210 -10.084  -6.142 -0.36 -0.00    +0.000 C 
DOCKED: ATOM     18  C   UNL     1      22.512 -11.561  -6.432 -0.51 -0.00    +0.000 C 
DOCKED: ENDBRANCH  13  17
DOCKED: ENDBRANCH  12  13
DOCKED: ENDBRANCH   7  12
DOCKED: ENDBRANCH   1   2
DOCKED: BRANCH   1  19
DOCKED: ATOM     19  O   UNL     1      19.577 -12.213   1.621 -1.59 -0.00    +0.000 OA
DOCKED: BRANCH  19  21
DOCKED: ATOM     20  O   UNL     1      17.342 -12.379   1.072 -0.77 +0.00    +0.000 OA
DOCKED: ATOM     21  C   UNL     1      18.244 -11.816   1.752 -0.50 -0.00    +0.000 C 
DOCKED: ATOM     22  N   UNL     1      17.923 -10.734   2.636 -0.49 -0.00    +0.000 N 
DOCKED: ATOM     23  H   UNL     1      18.668 -10.221   3.025 -0.04 -0.00    +0.000 HD
DOCKED: BRANCH  22  24
DOCKED: ATOM     24  C   UNL     1      16.585 -10.347   2.993 -0.42 +0.00    +0.000 A 
DOCKED: ATOM     25  C   UNL     1      16.321  -9.010   3.322 -0.30 +0.00    +0.000 A 
DOCKED: ATOM     26  C   UNL     1      15.034  -8.611   3.694 -0.34 +0.00    +0.000 A 
DOCKED: ATOM     27  C   UNL     1      13.985  -9.545   3.752 -0.31 +0.00    +0.000 A 
DOCKED: ATOM     28  C   UNL     1      14.259 -10.892   3.456 -0.29 +0.00    +0.000 A 
DOCKED: ATOM     29  C   UNL     1      15.547 -11.290   3.084 -0.47 +0.00    +0.000 A 
DOCKED: BRANCH  27  30
DOCKED: ATOM     30  C   UNL     1      12.625  -9.108   4.153 -0.24 +0.00    +0.000 C 
DOCKED: ATOM     31  N   UNL     1      12.274  -8.927   5.530 -0.38 +0.00    +0.000 N 
DOCKED: ATOM     32  O   UNL     1      11.752  -8.903   3.266 -0.20 +0.00    +0.000 OA
DOCKED: ATOM     33  H   UNL     1      12.918  -9.165   6.236 -0.04 +0.00    +0.000 HD
DOCKED: BRANCH  31  34
DOCKED: ATOM     34  O   UNL     1      11.059  -8.431   5.866 -0.38 +0.00    +0.000 OA
DOCKED: ATOM     35  H   UNL     1      10.514  -8.342   5.068 -0.01 +0.00    +0.000 HD
DOCKED: ENDBRANCH  31  34
DOCKED: ENDBRANCH  27  30
DOCKED: ENDBRANCH  22  24
DOCKED: ENDBRANCH  19  21
DOCKED: ENDBRANCH   1  19
DOCKED: TORSDOF 10
DOCKED: TER
DOCKED: ENDMDL
________________________________________________________________________________


	BEGINNING GENETIC ALGORITHM DOCKING 84 of 100
Run: 84 Seed: 949339415 584566283 [ Run 84 of 100 GA/GALS ]
Beginning LAMARCKIAN GENETIC ALGORITHM (LGA), with a maximum of 2500000 energy evaluations.

Final-Value: -15.186


	FINAL GENETIC ALGORITHM DOCKED STATE
	_______________________________________________


Detailed state:  trans 20.874 -8.102 -5.508 quatxyzw 0.698142 0.449639 0.082791 0.550970 center 1.858 0.218 -0.021 ntor 10 -176.0082 -169.7532 33.2691 -21.5732 -133.4065 157.3653 100.8217 -85.8511 179.8117 93.1118
State:	 20.874  -8.102  -5.508   0.837  0.539  0.099 113.133   -176.01 -169.75   33.27  -21.57 -133.41  157.37  100.82  -85.85  179.81   93.11

DOCKED: MODEL       84
DOCKED: USER    Run = 84
DOCKED: USER    DPF = ligand_dock.biased.dpf
DOCKED: USER  
DOCKED: USER    Estimated Free Energy of Binding    =   -9.96 kcal/mol  [=(1)+(2)+(3)-(4)]
DOCKED: USER    Estimated Inhibition Constant, Ki   =   49.64 nM (nanomolar)  [Temperature = 298.15 K]
DOCKED: USER    
DOCKED: USER    (1) Final Intermolecular Energy     =  -12.95 kcal/mol
DOCKED: USER        vdW + Hbond + desolv Energy     =  -12.95 kcal/mol
DOCKED: USER        Electrostatic Energy            =   +0.00 kcal/mol
DOCKED: USER    (2) Final Total Internal Energy     =   -2.24 kcal/mol
DOCKED: USER    (3) Torsional Free Energy           =   +2.98 kcal/mol
DOCKED: USER    (4) Unbound System's Energy  [=(2)] =   -2.24 kcal/mol
DOCKED: USER    
DOCKED: USER    
DOCKED: USER    NEWDPF move ligand.pdbqt
DOCKED: USER    NEWDPF about 1.858000 0.218000 -0.021000
DOCKED: USER    NEWDPF tran0 20.874249 -8.101749 -5.508093
DOCKED: USER    NEWDPF quaternion0 0.698142 0.449639 0.082791 0.550970
DOCKED: USER    NEWDPF axisangle0 0.836574 0.538796 0.099207 113.132853
DOCKED: USER    NEWDPF quat0 0.836574 0.538796 0.099207 113.132853
DOCKED: USER    NEWDPF dihe0 -176.01 -169.75 33.27 -21.57 -133.41 157.37 100.82 -85.85 179.81 93.11 
DOCKED: USER  keepresnum = 1 
DOCKED: USER  
DOCKED: REMARK  Name = 
DOCKED: REMARK  12 active torsions:
DOCKED: REMARK  status: ('A' for Active; 'I' for Inactive)
DOCKED: REMARK    1  A    between atoms: C_2  and  O_3
DOCKED: REMARK    2  A    between atoms: O_3  and  C_4
DOCKED: REMARK    3  A    between atoms: C_4  and  C_5
DOCKED: REMARK    4  A    between atoms: C_10  and  C_11
DOCKED: REMARK    5  A    between atoms: C_11  and  N_12
DOCKED: REMARK    6  A    between atoms: N_12  and  C_13
DOCKED: REMARK    7  A    between atoms: N_12  and  C_15
DOCKED: REMARK    8  A    between atoms: C_13  and  C_14
DOCKED: REMARK    9  A    between atoms: C_15  and  C_16
DOCKED: REMARK   10  A    between atoms: N_21  and  C_22
DOCKED: REMARK   11  A    between atoms: C_25  and  C_26
DOCKED: REMARK   12  A    between atoms: N_27  and  O_28
DOCKED: REMARK                            x       y       z     vdW  Elec       q    Type
DOCKED: REMARK                         _______ _______ _______ _____ _____    ______ ____
DOCKED: USER                              x       y       z     vdW  Elec       q    Type
DOCKED: USER                           _______ _______ _______ _____ _____    ______ ____
DOCKED: ROOT
DOCKED: ATOM      1  C   UNL     1      19.740  -6.928  -5.716 -0.12 -0.00    +0.000 C 
DOCKED: ENDROOT
DOCKED: BRANCH   1   2
DOCKED: ATOM      2  C   UNL     1      19.045  -8.122  -6.301 -0.09 -0.00    +0.000 A 
DOCKED: ATOM      3  C   UNL     1      19.346  -8.547  -7.604 -0.08 -0.00    +0.000 A 
DOCKED: ATOM      4  C   UNL     1      18.677  -9.636  -8.167 -0.16 -0.00    +0.000 A 
DOCKED: ATOM      5  C   UNL     1      17.685 -10.308  -7.438 -0.22 -0.00    +0.000 A 
DOCKED: ATOM      6  C   UNL     1      17.007 -11.403  -7.996 -0.25 -0.00    +0.000 A 
DOCKED: ATOM      7  C   UNL     1      16.011 -12.069  -7.264 -0.33 -0.00    +0.000 A 
DOCKED: ATOM      8  C   UNL     1      15.700 -11.636  -5.966 -0.26 -0.00    +0.000 A 
DOCKED: ATOM      9  C   UNL     1      16.369 -10.546  -5.403 -0.22 -0.00    +0.000 A 
DOCKED: ATOM     10  C   UNL     1      17.364  -9.876  -6.130 -0.17 -0.00    +0.000 A 
DOCKED: ATOM     11  C   UNL     1      18.042  -8.782  -5.572 -0.14 -0.00    +0.000 A 
DOCKED: BRANCH   7  12
DOCKED: ATOM     12  C   UNL     1      15.292 -13.256  -7.848 -0.43 +0.00    +0.000 C 
DOCKED: BRANCH  12  13
DOCKED: ATOM     13  N   UNL     1      14.071 -12.813  -8.555 -0.27 -0.00    +0.000 N 
DOCKED: ATOM     14  H   UNL     1      14.123 -11.802  -8.674 +0.00 -0.00    +0.000 HD
DOCKED: BRANCH  13  15
DOCKED: ATOM     15  C   UNL     1      12.856 -13.058  -7.742 -0.29 -0.00    +0.000 C 
DOCKED: ATOM     16  C   UNL     1      13.156 -13.912  -6.511 -0.40 -0.00    +0.000 C 
DOCKED: ENDBRANCH  13  15
DOCKED: BRANCH  13  17
DOCKED: ATOM     17  C   UNL     1      13.998 -13.355  -9.935 -0.26 +0.00    +0.000 C 
DOCKED: ATOM     18  C   UNL     1      14.360 -12.342 -11.031 -0.16 -0.00    +0.000 C 
DOCKED: ENDBRANCH  13  17
DOCKED: ENDBRANCH  12  13
DOCKED: ENDBRANCH   7  12
DOCKED: ENDBRANCH   1   2
DOCKED: BRANCH   1  19
DOCKED: ATOM     19  O   UNL     1      20.922  -7.355  -5.046 -0.19 -0.00    +0.000 OA
DOCKED: BRANCH  19  21
DOCKED: ATOM     20  O   UNL     1      21.059  -6.929  -2.783 -0.43 -0.00    +0.000 OA
DOCKED: ATOM     21  C   UNL     1      20.926  -7.772  -3.713 -0.35 -0.00    +0.000 C 
DOCKED: ATOM     22  N   UNL     1      20.820  -9.171  -3.420 -0.38 -0.00    +0.000 N 
DOCKED: ATOM     23  H   UNL     1      20.877  -9.804  -4.172 -0.00 -0.00    +0.000 HD
DOCKED: BRANCH  22  24
DOCKED: ATOM     24  C   UNL     1      20.635  -9.713  -2.101 -0.49 -0.00    +0.000 A 
DOCKED: ATOM     25  C   UNL     1      21.431  -9.242  -1.047 -0.51 -0.00    +0.000 A 
DOCKED: ATOM     26  C   UNL     1      21.287  -9.767   0.240 -0.58 -0.00    +0.000 A 
DOCKED: ATOM     27  C   UNL     1      20.349 -10.781   0.499 -0.60 -0.00    +0.000 A 
DOCKED: ATOM     28  C   UNL     1      19.576 -11.277  -0.566 -0.43 -0.00    +0.000 A 
DOCKED: ATOM     29  C   UNL     1      19.720 -10.751  -1.854 -0.40 -0.00    +0.000 A 
DOCKED: BRANCH  27  30
DOCKED: ATOM     30  C   UNL     1      20.211 -11.331   1.869 -0.76 -0.00    +0.000 C 
DOCKED: ATOM     31  N   UNL     1      20.600 -10.573   3.021 -0.64 -0.00    +0.000 N 
DOCKED: ATOM     32  O   UNL     1      19.755 -12.496   2.028 -1.62 -0.00    +0.000 OA
DOCKED: ATOM     33  H   UNL     1      21.036  -9.698   2.908 -0.60 -0.00    +0.000 HD
DOCKED: BRANCH  31  34
DOCKED: ATOM     34  O   UNL     1      20.370 -11.056   4.266 -0.74 -0.00    +0.000 OA
DOCKED: ATOM     35  H   UNL     1      20.448 -12.022   4.258 -0.37 -0.00    +0.000 HD
DOCKED: ENDBRANCH  31  34
DOCKED: ENDBRANCH  27  30
DOCKED: ENDBRANCH  22  24
DOCKED: ENDBRANCH  19  21
DOCKED: ENDBRANCH   1  19
DOCKED: TORSDOF 10
DOCKED: TER
DOCKED: ENDMDL
________________________________________________________________________________


	BEGINNING GENETIC ALGORITHM DOCKING 85 of 100
Run: 85 Seed: 1293958333 748916624 [ Run 85 of 100 GA/GALS ]
Beginning LAMARCKIAN GENETIC ALGORITHM (LGA), with a maximum of 2500000 energy evaluations.

Final-Value: -15.233


	FINAL GENETIC ALGORITHM DOCKED STATE
	_______________________________________________


Detailed state:  trans 21.538 -9.017 -4.714 quatxyzw -0.959900 -0.268693 -0.013508 0.078831 center 1.858 0.218 -0.021 ntor 10 87.5130 155.8630 21.4466 173.1644 -29.0542 -16.1502 73.6436 -125.0962 166.4724 -180.0000
State:	 21.538  -9.017  -4.714  -0.963 -0.270 -0.014 170.957     87.51  155.86   21.45  173.16  -29.05  -16.15   73.64 -125.10  166.47 -180.00

DOCKED: MODEL       85
DOCKED: USER    Run = 85
DOCKED: USER    DPF = ligand_dock.biased.dpf
DOCKED: USER  
DOCKED: USER    Estimated Free Energy of Binding    =   -8.76 kcal/mol  [=(1)+(2)+(3)-(4)]
DOCKED: USER    Estimated Inhibition Constant, Ki   =  381.03 nM (nanomolar)  [Temperature = 298.15 K]
DOCKED: USER    
DOCKED: USER    (1) Final Intermolecular Energy     =  -11.74 kcal/mol
DOCKED: USER        vdW + Hbond + desolv Energy     =  -11.74 kcal/mol
DOCKED: USER        Electrostatic Energy            =   +0.00 kcal/mol
DOCKED: USER    (2) Final Total Internal Energy     =   -3.49 kcal/mol
DOCKED: USER    (3) Torsional Free Energy           =   +2.98 kcal/mol
DOCKED: USER    (4) Unbound System's Energy  [=(2)] =   -3.49 kcal/mol
DOCKED: USER    
DOCKED: USER    
DOCKED: USER    NEWDPF move ligand.pdbqt
DOCKED: USER    NEWDPF about 1.858000 0.218000 -0.021000
DOCKED: USER    NEWDPF tran0 21.538303 -9.017206 -4.714311
DOCKED: USER    NEWDPF quaternion0 -0.959900 -0.268693 -0.013508 0.078831
DOCKED: USER    NEWDPF axisangle0 -0.962896 -0.269531 -0.013550 170.957231
DOCKED: USER    NEWDPF quat0 -0.962896 -0.269531 -0.013550 170.957231
DOCKED: USER    NEWDPF dihe0 87.51 155.86 21.45 173.16 -29.05 -16.15 73.64 -125.10 166.47 -180.00 
DOCKED: USER  keepresnum = 1 
DOCKED: USER  
DOCKED: REMARK  Name = 
DOCKED: REMARK  12 active torsions:
DOCKED: REMARK  status: ('A' for Active; 'I' for Inactive)
DOCKED: REMARK    1  A    between atoms: C_2  and  O_3
DOCKED: REMARK    2  A    between atoms: O_3  and  C_4
DOCKED: REMARK    3  A    between atoms: C_4  and  C_5
DOCKED: REMARK    4  A    between atoms: C_10  and  C_11
DOCKED: REMARK    5  A    between atoms: C_11  and  N_12
DOCKED: REMARK    6  A    between atoms: N_12  and  C_13
DOCKED: REMARK    7  A    between atoms: N_12  and  C_15
DOCKED: REMARK    8  A    between atoms: C_13  and  C_14
DOCKED: REMARK    9  A    between atoms: C_15  and  C_16
DOCKED: REMARK   10  A    between atoms: N_21  and  C_22
DOCKED: REMARK   11  A    between atoms: C_25  and  C_26
DOCKED: REMARK   12  A    between atoms: N_27  and  O_28
DOCKED: REMARK                            x       y       z     vdW  Elec       q    Type
DOCKED: REMARK                         _______ _______ _______ _____ _____    ______ ____
DOCKED: USER                              x       y       z     vdW  Elec       q    Type
DOCKED: USER                           _______ _______ _______ _____ _____    ______ ____
DOCKED: ROOT
DOCKED: ATOM      1  C   UNL     1      21.168  -8.760  -6.297 -0.20 -0.00    +0.000 C 
DOCKED: ENDROOT
DOCKED: BRANCH   1   2
DOCKED: ATOM      2  C   UNL     1      19.878  -9.321  -5.775 -0.18 -0.00    +0.000 A 
DOCKED: ATOM      3  C   UNL     1      19.619 -10.697  -5.865 -0.33 -0.00    +0.000 A 
DOCKED: ATOM      4  C   UNL     1      18.405 -11.221  -5.414 -0.32 -0.00    +0.000 A 
DOCKED: ATOM      5  C   UNL     1      17.426 -10.371  -4.879 -0.23 -0.00    +0.000 A 
DOCKED: ATOM      6  C   UNL     1      16.203 -10.889  -4.425 -0.04 -0.00    +0.000 A 
DOCKED: ATOM      7  C   UNL     1      15.224 -10.033  -3.895 -0.21 -0.00    +0.000 A 
DOCKED: ATOM      8  C   UNL     1      15.477  -8.654  -3.818 -0.16 -0.00    +0.000 A 
DOCKED: ATOM      9  C   UNL     1      16.691  -8.131  -4.269 -0.09 -0.00    +0.000 A 
DOCKED: ATOM     10  C   UNL     1      17.672  -8.980  -4.800 -0.17 -0.00    +0.000 A 
DOCKED: ATOM     11  C   UNL     1      18.895  -8.464  -5.255 -0.15 -0.00    +0.000 A 
DOCKED: BRANCH   7  12
DOCKED: ATOM     12  C   UNL     1      13.916 -10.582  -3.388 -0.28 -0.00    +0.000 C 
DOCKED: BRANCH  12  13
DOCKED: ATOM     13  N   UNL     1      13.989 -10.801  -1.927 -0.29 -0.00    +0.000 N 
DOCKED: ATOM     14  H   UNL     1      13.352 -11.561  -1.689 -0.03 -0.00    +0.000 HD
DOCKED: BRANCH  13  15
DOCKED: ATOM     15  C   UNL     1      13.501  -9.620  -1.177 -0.22 -0.00    +0.000 C 
DOCKED: ATOM     16  C   UNL     1      14.646  -8.841  -0.532 -0.25 -0.00    +0.000 C 
DOCKED: ENDBRANCH  13  15
DOCKED: BRANCH  13  17
DOCKED: ATOM     17  C   UNL     1      15.328 -11.280  -1.501 -0.33 -0.00    +0.000 C 
DOCKED: ATOM     18  C   UNL     1      15.292 -12.411  -0.463 -0.51 +0.00    +0.000 C 
DOCKED: ENDBRANCH  13  17
DOCKED: ENDBRANCH  12  13
DOCKED: ENDBRANCH   7  12
DOCKED: ENDBRANCH   1   2
DOCKED: BRANCH   1  19
DOCKED: ATOM     19  O   UNL     1      22.033  -8.477  -5.201 -0.31 -0.00    +0.000 OA
DOCKED: BRANCH  19  21
DOCKED: ATOM     20  O   UNL     1      21.745  -7.783  -3.020 -0.45 -0.00    +0.000 OA
DOCKED: ATOM     21  C   UNL     1      21.670  -8.711  -3.873 -0.33 -0.00    +0.000 C 
DOCKED: ATOM     22  N   UNL     1      21.253 -10.027  -3.485 -0.47 -0.00    +0.000 N 
DOCKED: ATOM     23  H   UNL     1      21.358 -10.754  -4.140 -0.03 -0.00    +0.000 HD
DOCKED: BRANCH  22  24
DOCKED: ATOM     24  C   UNL     1      20.690 -10.355  -2.204 -0.49 -0.00    +0.000 A 
DOCKED: ATOM     25  C   UNL     1      21.524 -10.407  -1.079 -0.55 -0.00    +0.000 A 
DOCKED: ATOM     26  C   UNL     1      21.007 -10.745   0.174 -0.62 -0.00    +0.000 A 
DOCKED: ATOM     27  C   UNL     1      19.643 -11.047   0.327 -0.54 -0.00    +0.000 A 
DOCKED: ATOM     28  C   UNL     1      18.813 -11.029  -0.808 -0.41 -0.00    +0.000 A 
DOCKED: ATOM     29  C   UNL     1      19.332 -10.690  -2.062 -0.39 -0.00    +0.000 A 
DOCKED: BRANCH  27  30
DOCKED: ATOM     30  C   UNL     1      19.109 -11.408   1.663 -0.64 -0.00    +0.000 C 
DOCKED: ATOM     31  N   UNL     1      17.963 -10.746   2.213 -0.47 -0.00    +0.000 N 
DOCKED: ATOM     32  O   UNL     1      19.680 -12.307   2.339 -1.50 -0.00    +0.000 OA
DOCKED: ATOM     33  H   UNL     1      17.559  -9.986   1.736 -0.02 -0.00    +0.000 HD
DOCKED: BRANCH  31  34
DOCKED: ATOM     34  O   UNL     1      17.433 -11.162   3.389 -0.52 +0.00    +0.000 OA
DOCKED: ATOM     35  H   UNL     1      18.101 -11.659   3.887 -0.02 +0.00    +0.000 HD
DOCKED: ENDBRANCH  31  34
DOCKED: ENDBRANCH  27  30
DOCKED: ENDBRANCH  22  24
DOCKED: ENDBRANCH  19  21
DOCKED: ENDBRANCH   1  19
DOCKED: TORSDOF 10
DOCKED: TER
DOCKED: ENDMDL
________________________________________________________________________________


	BEGINNING GENETIC ALGORITHM DOCKING 86 of 100
Run: 86 Seed: 909251363 221130806 [ Run 86 of 100 GA/GALS ]
Beginning LAMARCKIAN GENETIC ALGORITHM (LGA), with a maximum of 2500000 energy evaluations.

Final-Value: -15.879


	FINAL GENETIC ALGORITHM DOCKED STATE
	_______________________________________________


Detailed state:  trans 20.666 -9.321 -6.172 quatxyzw -0.121409 0.904765 -0.239932 0.330292 center 1.858 0.218 -0.021 ntor 10 173.9695 176.9809 26.9121 -98.0741 66.2553 -43.4353 103.9908 -28.6633 -148.6718 65.3812
State:	 20.666  -9.321  -6.172  -0.129  0.959 -0.254 141.427    173.97  176.98   26.91  -98.07   66.26  -43.44  103.99  -28.66 -148.67   65.38

DOCKED: MODEL       86
DOCKED: USER    Run = 86
DOCKED: USER    DPF = ligand_dock.biased.dpf
DOCKED: USER  
DOCKED: USER    Estimated Free Energy of Binding    =  -10.92 kcal/mol  [=(1)+(2)+(3)-(4)]
DOCKED: USER    Estimated Inhibition Constant, Ki   =    9.82 nM (nanomolar)  [Temperature = 298.15 K]
DOCKED: USER    
DOCKED: USER    (1) Final Intermolecular Energy     =  -13.91 kcal/mol
DOCKED: USER        vdW + Hbond + desolv Energy     =  -13.91 kcal/mol
DOCKED: USER        Electrostatic Energy            =   +0.00 kcal/mol
DOCKED: USER    (2) Final Total Internal Energy     =   -1.97 kcal/mol
DOCKED: USER    (3) Torsional Free Energy           =   +2.98 kcal/mol
DOCKED: USER    (4) Unbound System's Energy  [=(2)] =   -1.97 kcal/mol
DOCKED: USER    
DOCKED: USER    
DOCKED: USER    NEWDPF move ligand.pdbqt
DOCKED: USER    NEWDPF about 1.858000 0.218000 -0.021000
DOCKED: USER    NEWDPF tran0 20.665534 -9.321390 -6.172044
DOCKED: USER    NEWDPF quaternion0 -0.121409 0.904765 -0.239932 0.330292
DOCKED: USER    NEWDPF axisangle0 -0.128628 0.958560 -0.254198 141.427020
DOCKED: USER    NEWDPF quat0 -0.128628 0.958560 -0.254198 141.427020
DOCKED: USER    NEWDPF dihe0 173.97 176.98 26.91 -98.07 66.26 -43.44 103.99 -28.66 -148.67 65.38 
DOCKED: USER  keepresnum = 1 
DOCKED: USER  
DOCKED: REMARK  Name = 
DOCKED: REMARK  12 active torsions:
DOCKED: REMARK  status: ('A' for Active; 'I' for Inactive)
DOCKED: REMARK    1  A    between atoms: C_2  and  O_3
DOCKED: REMARK    2  A    between atoms: O_3  and  C_4
DOCKED: REMARK    3  A    between atoms: C_4  and  C_5
DOCKED: REMARK    4  A    between atoms: C_10  and  C_11
DOCKED: REMARK    5  A    between atoms: C_11  and  N_12
DOCKED: REMARK    6  A    between atoms: N_12  and  C_13
DOCKED: REMARK    7  A    between atoms: N_12  and  C_15
DOCKED: REMARK    8  A    between atoms: C_13  and  C_14
DOCKED: REMARK    9  A    between atoms: C_15  and  C_16
DOCKED: REMARK   10  A    between atoms: N_21  and  C_22
DOCKED: REMARK   11  A    between atoms: C_25  and  C_26
DOCKED: REMARK   12  A    between atoms: N_27  and  O_28
DOCKED: REMARK                            x       y       z     vdW  Elec       q    Type
DOCKED: REMARK                         _______ _______ _______ _____ _____    ______ ____
DOCKED: USER                              x       y       z     vdW  Elec       q    Type
DOCKED: USER                           _______ _______ _______ _____ _____    ______ ____
DOCKED: ROOT
DOCKED: ATOM      1  C   UNL     1      20.223 -10.646  -7.042 -0.29 -0.00    +0.000 C 
DOCKED: ENDROOT
DOCKED: BRANCH   1   2
DOCKED: ATOM      2  C   UNL     1      21.601 -10.383  -7.577 -0.25 -0.00    +0.000 A 
DOCKED: ATOM      3  C   UNL     1      21.968  -9.090  -7.978 -0.13 -0.00    +0.000 A 
DOCKED: ATOM      4  C   UNL     1      23.236  -8.846  -8.509 -0.11 -0.00    +0.000 A 
DOCKED: ATOM      5  C   UNL     1      24.152  -9.897  -8.660 -0.18 -0.00    +0.000 A 
DOCKED: ATOM      6  C   UNL     1      25.429  -9.661  -9.194 -0.16 -0.00    +0.000 A 
DOCKED: ATOM      7  C   UNL     1      26.340 -10.719  -9.347 -0.28 -0.00    +0.000 A 
DOCKED: ATOM      8  C   UNL     1      25.968 -12.015  -8.959 -0.18 -0.00    +0.000 A 
DOCKED: ATOM      9  C   UNL     1      24.699 -12.258  -8.428 -0.41 -0.00    +0.000 A 
DOCKED: ATOM     10  C   UNL     1      23.784 -11.207  -8.273 -0.34 -0.00    +0.000 A 
DOCKED: ATOM     11  C   UNL     1      22.508 -11.442  -7.740 -0.31 -0.00    +0.000 A 
DOCKED: BRANCH   7  12
DOCKED: ATOM     12  C   UNL     1      27.718 -10.471  -9.902 -0.28 -0.00    +0.000 C 
DOCKED: BRANCH  12  13
DOCKED: ATOM     13  N   UNL     1      28.514  -9.670  -8.948 -0.27 -0.00    +0.000 N 
DOCKED: ATOM     14  H   UNL     1      28.061  -8.764  -8.840 +0.01 -0.00    +0.000 HD
DOCKED: BRANCH  13  15
DOCKED: ATOM     15  C   UNL     1      29.867  -9.381  -9.480 -0.23 -0.00    +0.000 C 
DOCKED: ATOM     16  C   UNL     1      30.259 -10.347 -10.596 -0.27 -0.00    +0.000 C 
DOCKED: ENDBRANCH  13  15
DOCKED: BRANCH  13  17
DOCKED: ATOM     17  C   UNL     1      28.511 -10.261  -7.586 -0.51 -0.00    +0.000 C 
DOCKED: ATOM     18  C   UNL     1      27.849  -9.379  -6.517 -0.49 -0.00    +0.000 C 
DOCKED: ENDBRANCH  13  17
DOCKED: ENDBRANCH  12  13
DOCKED: ENDBRANCH   7  12
DOCKED: ENDBRANCH   1   2
DOCKED: BRANCH   1  19
DOCKED: ATOM     19  O   UNL     1      20.000  -9.827  -5.899 -0.23 -0.00    +0.000 OA
DOCKED: BRANCH  19  21
DOCKED: ATOM     20  O   UNL     1      19.306 -11.496  -4.464 -0.49 -0.00    +0.000 OA
DOCKED: ATOM     21  C   UNL     1      19.822 -10.354  -4.617 -0.39 -0.00    +0.000 C 
DOCKED: ATOM     22  N   UNL     1      20.193  -9.563  -3.481 -0.34 -0.00    +0.000 N 
DOCKED: ATOM     23  H   UNL     1      20.442  -8.623  -3.636 -0.01 -0.00    +0.000 HD
DOCKED: BRANCH  22  24
DOCKED: ATOM     24  C   UNL     1      20.226 -10.049  -2.128 -0.45 -0.00    +0.000 A 
DOCKED: ATOM     25  C   UNL     1      19.174 -10.849  -1.660 -0.40 -0.00    +0.000 A 
DOCKED: ATOM     26  C   UNL     1      19.170 -11.317  -0.343 -0.46 -0.00    +0.000 A 
DOCKED: ATOM     27  C   UNL     1      20.216 -10.988   0.536 -0.60 -0.00    +0.000 A 
DOCKED: ATOM     28  C   UNL     1      21.252 -10.156   0.076 -0.61 -0.00    +0.000 A 
DOCKED: ATOM     29  C   UNL     1      21.256  -9.688  -1.242 -0.57 -0.00    +0.000 A 
DOCKED: BRANCH  27  30
DOCKED: ATOM     30  C   UNL     1      20.196 -11.488   1.933 -0.77 -0.00    +0.000 C 
DOCKED: ATOM     31  N   UNL     1      20.533 -10.639   3.036 -0.66 -0.00    +0.000 N 
DOCKED: ATOM     32  O   UNL     1      19.890 -12.691   2.157 -1.53 -0.00    +0.000 OA
DOCKED: ATOM     33  H   UNL     1      20.855  -9.723   2.869 -0.59 -0.00    +0.000 HD
DOCKED: BRANCH  31  34
DOCKED: ATOM     34  O   UNL     1      20.410 -11.089   4.308 -0.72 -0.00    +0.000 OA
DOCKED: ATOM     35  H   UNL     1      20.504 -12.054   4.320 -0.40 -0.00    +0.000 HD
DOCKED: ENDBRANCH  31  34
DOCKED: ENDBRANCH  27  30
DOCKED: ENDBRANCH  22  24
DOCKED: ENDBRANCH  19  21
DOCKED: ENDBRANCH   1  19
DOCKED: TORSDOF 10
DOCKED: TER
DOCKED: ENDMDL
________________________________________________________________________________


	BEGINNING GENETIC ALGORITHM DOCKING 87 of 100
Run: 87 Seed: 182869804 502531352 [ Run 87 of 100 GA/GALS ]
Beginning LAMARCKIAN GENETIC ALGORITHM (LGA), with a maximum of 2500000 energy evaluations.

Final-Value: -14.720


	FINAL GENETIC ALGORITHM DOCKED STATE
	_______________________________________________


Detailed state:  trans 20.617 -11.663 -0.632 quatxyzw -0.554312 0.004967 -0.768014 -0.320731 center 1.858 0.218 -0.021 ntor 10 88.7612 145.6040 11.3590 130.5165 174.0246 151.3005 -160.5485 -100.6948 35.6934 73.6679
State:	 20.617 -11.663  -0.632  -0.585  0.005 -0.811 -142.586     88.76  145.60   11.36  130.52  174.02  151.30 -160.55 -100.69   35.69   73.67

DOCKED: MODEL       87
DOCKED: USER    Run = 87
DOCKED: USER    DPF = ligand_dock.biased.dpf
DOCKED: USER  
DOCKED: USER    Estimated Free Energy of Binding    =   -9.53 kcal/mol  [=(1)+(2)+(3)-(4)]
DOCKED: USER    Estimated Inhibition Constant, Ki   =  103.21 nM (nanomolar)  [Temperature = 298.15 K]
DOCKED: USER    
DOCKED: USER    (1) Final Intermolecular Energy     =  -12.51 kcal/mol
DOCKED: USER        vdW + Hbond + desolv Energy     =  -12.51 kcal/mol
DOCKED: USER        Electrostatic Energy            =   +0.00 kcal/mol
DOCKED: USER    (2) Final Total Internal Energy     =   -2.21 kcal/mol
DOCKED: USER    (3) Torsional Free Energy           =   +2.98 kcal/mol
DOCKED: USER    (4) Unbound System's Energy  [=(2)] =   -2.21 kcal/mol
DOCKED: USER    
DOCKED: USER    
DOCKED: USER    NEWDPF move ligand.pdbqt
DOCKED: USER    NEWDPF about 1.858000 0.218000 -0.021000
DOCKED: USER    NEWDPF tran0 20.617262 -11.662870 -0.631956
DOCKED: USER    NEWDPF quaternion0 -0.554312 0.004967 -0.768014 -0.320731
DOCKED: USER    NEWDPF axisangle0 -0.585229 0.005244 -0.810851 -142.585691
DOCKED: USER    NEWDPF quat0 -0.585229 0.005244 -0.810851 -142.585691
DOCKED: USER    NEWDPF dihe0 88.76 145.60 11.36 130.52 174.02 151.30 -160.55 -100.69 35.69 73.67 
DOCKED: USER  keepresnum = 1 
DOCKED: USER  
DOCKED: REMARK  Name = 
DOCKED: REMARK  12 active torsions:
DOCKED: REMARK  status: ('A' for Active; 'I' for Inactive)
DOCKED: REMARK    1  A    between atoms: C_2  and  O_3
DOCKED: REMARK    2  A    between atoms: O_3  and  C_4
DOCKED: REMARK    3  A    between atoms: C_4  and  C_5
DOCKED: REMARK    4  A    between atoms: C_10  and  C_11
DOCKED: REMARK    5  A    between atoms: C_11  and  N_12
DOCKED: REMARK    6  A    between atoms: N_12  and  C_13
DOCKED: REMARK    7  A    between atoms: N_12  and  C_15
DOCKED: REMARK    8  A    between atoms: C_13  and  C_14
DOCKED: REMARK    9  A    between atoms: C_15  and  C_16
DOCKED: REMARK   10  A    between atoms: N_21  and  C_22
DOCKED: REMARK   11  A    between atoms: C_25  and  C_26
DOCKED: REMARK   12  A    between atoms: N_27  and  O_28
DOCKED: REMARK                            x       y       z     vdW  Elec       q    Type
DOCKED: REMARK                         _______ _______ _______ _____ _____    ______ ____
DOCKED: USER                              x       y       z     vdW  Elec       q    Type
DOCKED: USER                           _______ _______ _______ _____ _____    ______ ____
DOCKED: ROOT
DOCKED: ATOM      1  C   UNL     1      21.607 -10.540   0.052 -0.53 -0.00    +0.000 C 
DOCKED: ENDROOT
DOCKED: BRANCH   1   2
DOCKED: ATOM      2  C   UNL     1      21.361  -9.938  -1.300 -0.57 -0.00    +0.000 A 
DOCKED: ATOM      3  C   UNL     1      21.076  -8.569  -1.423 -0.46 -0.00    +0.000 A 
DOCKED: ATOM      4  C   UNL     1      20.811  -8.010  -2.675 -0.35 -0.00    +0.000 A 
DOCKED: ATOM      5  C   UNL     1      20.813  -8.816  -3.823 -0.34 -0.00    +0.000 A 
DOCKED: ATOM      6  C   UNL     1      20.547  -8.263  -5.085 -0.20 -0.00    +0.000 A 
DOCKED: ATOM      7  C   UNL     1      20.545  -9.076  -6.229 -0.17 -0.00    +0.000 A 
DOCKED: ATOM      8  C   UNL     1      20.816 -10.447  -6.106 -0.32 -0.00    +0.000 A 
DOCKED: ATOM      9  C   UNL     1      21.081 -11.006  -4.853 -0.47 -0.00    +0.000 A 
DOCKED: ATOM     10  C   UNL     1      21.083 -10.200  -3.706 -0.45 -0.00    +0.000 A 
DOCKED: ATOM     11  C   UNL     1      21.349 -10.752  -2.444 -0.37 -0.00    +0.000 A 
DOCKED: BRANCH   7  12
DOCKED: ATOM     12  C   UNL     1      20.279  -8.486  -7.590 -0.10 -0.00    +0.000 C 
DOCKED: BRANCH  12  13
DOCKED: ATOM     13  N   UNL     1      18.860  -8.678  -7.958 -0.08 -0.00    +0.000 N 
DOCKED: ATOM     14  H   UNL     1      18.654  -8.074  -8.753 +0.00 -0.00    +0.000 HD
DOCKED: BRANCH  13  15
DOCKED: ATOM     15  C   UNL     1      17.954  -8.235  -6.873 -0.08 -0.00    +0.000 C 
DOCKED: ATOM     16  C   UNL     1      17.344  -9.416  -6.120 -0.15 -0.00    +0.000 C 
DOCKED: ENDBRANCH  13  15
DOCKED: BRANCH  13  17
DOCKED: ATOM     17  C   UNL     1      18.592 -10.054  -8.449 -0.21 -0.00    +0.000 C 
DOCKED: ATOM     18  C   UNL     1      17.492 -10.140  -9.517 -0.15 -0.00    +0.000 C 
DOCKED: ENDBRANCH  13  17
DOCKED: ENDBRANCH  12  13
DOCKED: ENDBRANCH   7  12
DOCKED: ENDBRANCH   1   2
DOCKED: BRANCH   1  19
DOCKED: ATOM     19  O   UNL     1      20.728 -11.644   0.241 -0.70 -0.00    +0.000 OA
DOCKED: BRANCH  19  21
DOCKED: ATOM     20  O   UNL     1      19.669 -12.119   2.235 -1.54 -0.00    +0.000 OA
DOCKED: ATOM     21  C   UNL     1      19.619 -11.590   1.090 -0.69 -0.00    +0.000 C 
DOCKED: ATOM     22  N   UNL     1      18.416 -10.965   0.626 -0.43 -0.00    +0.000 N 
DOCKED: ATOM     23  H   UNL     1      18.368 -10.707  -0.323 -0.01 -0.00    +0.000 HD
DOCKED: BRANCH  22  24
DOCKED: ATOM     24  C   UNL     1      17.273 -10.688   1.454 -0.37 +0.00    +0.000 A 
DOCKED: ATOM     25  C   UNL     1      17.450  -9.993   2.658 -0.42 +0.00    +0.000 A 
DOCKED: ATOM     26  C   UNL     1      16.360  -9.730   3.492 -0.32 +0.00    +0.000 A 
DOCKED: ATOM     27  C   UNL     1      15.070 -10.166   3.143 -0.38 +0.00    +0.000 A 
DOCKED: ATOM     28  C   UNL     1      14.900 -10.894   1.952 -0.36 +0.00    +0.000 A 
DOCKED: ATOM     29  C   UNL     1      15.991 -11.156   1.117 -0.35 +0.00    +0.000 A 
DOCKED: BRANCH  27  30
DOCKED: ATOM     30  C   UNL     1      13.923  -9.883   4.040 -0.38 +0.00    +0.000 C 
DOCKED: ATOM     31  N   UNL     1      14.098  -9.745   5.455 -0.46 +0.00    +0.000 N 
DOCKED: ATOM     32  O   UNL     1      12.765  -9.776   3.553 -0.28 +0.00    +0.000 OA
DOCKED: ATOM     33  H   UNL     1      14.981  -9.910   5.859 -0.04 +0.00    +0.000 HD
DOCKED: BRANCH  31  34
DOCKED: ATOM     34  O   UNL     1      13.054  -9.387   6.241 -0.77 +0.00    +0.000 OA
DOCKED: ATOM     35  H   UNL     1      12.232  -9.437   5.730 -0.04 +0.00    +0.000 HD
DOCKED: ENDBRANCH  31  34
DOCKED: ENDBRANCH  27  30
DOCKED: ENDBRANCH  22  24
DOCKED: ENDBRANCH  19  21
DOCKED: ENDBRANCH   1  19
DOCKED: TORSDOF 10
DOCKED: TER
DOCKED: ENDMDL
________________________________________________________________________________


	BEGINNING GENETIC ALGORITHM DOCKING 88 of 100
Run: 88 Seed: 1502378937 1499624481 [ Run 88 of 100 GA/GALS ]
Beginning LAMARCKIAN GENETIC ALGORITHM (LGA), with a maximum of 2500000 energy evaluations.

Final-Value: -16.342


	FINAL GENETIC ALGORITHM DOCKED STATE
	_______________________________________________


Detailed state:  trans 19.643 -10.532 2.373 quatxyzw -0.069202 0.155355 0.123402 0.977675 center 1.858 0.218 -0.021 ntor 10 -145.3744 149.9582 7.0680 180.0000 -161.5507 179.8722 -161.0475 -72.0562 176.8692 146.7029
State:	 19.643 -10.532   2.373  -0.329  0.739  0.587 24.259   -145.37  149.96    7.07  180.00 -161.55  179.87 -161.05  -72.06  176.87  146.70

DOCKED: MODEL       88
DOCKED: USER    Run = 88
DOCKED: USER    DPF = ligand_dock.biased.dpf
DOCKED: USER  
DOCKED: USER    Estimated Free Energy of Binding    =  -10.52 kcal/mol  [=(1)+(2)+(3)-(4)]
DOCKED: USER    Estimated Inhibition Constant, Ki   =   19.37 nM (nanomolar)  [Temperature = 298.15 K]
DOCKED: USER    
DOCKED: USER    (1) Final Intermolecular Energy     =  -13.51 kcal/mol
DOCKED: USER        vdW + Hbond + desolv Energy     =  -13.51 kcal/mol
DOCKED: USER        Electrostatic Energy            =   +0.00 kcal/mol
DOCKED: USER    (2) Final Total Internal Energy     =   -2.84 kcal/mol
DOCKED: USER    (3) Torsional Free Energy           =   +2.98 kcal/mol
DOCKED: USER    (4) Unbound System's Energy  [=(2)] =   -2.84 kcal/mol
DOCKED: USER    
DOCKED: USER    
DOCKED: USER    NEWDPF move ligand.pdbqt
DOCKED: USER    NEWDPF about 1.858000 0.218000 -0.021000
DOCKED: USER    NEWDPF tran0 19.643298 -10.531603 2.373459
DOCKED: USER    NEWDPF quaternion0 -0.069202 0.155355 0.123402 0.977675
DOCKED: USER    NEWDPF axisangle0 -0.329337 0.739349 0.587283 24.259294
DOCKED: USER    NEWDPF quat0 -0.329337 0.739349 0.587283 24.259294
DOCKED: USER    NEWDPF dihe0 -145.37 149.96 7.07 180.00 -161.55 179.87 -161.05 -72.06 176.87 146.70 
DOCKED: USER  keepresnum = 1 
DOCKED: USER  
DOCKED: REMARK  Name = 
DOCKED: REMARK  12 active torsions:
DOCKED: REMARK  status: ('A' for Active; 'I' for Inactive)
DOCKED: REMARK    1  A    between atoms: C_2  and  O_3
DOCKED: REMARK    2  A    between atoms: O_3  and  C_4
DOCKED: REMARK    3  A    between atoms: C_4  and  C_5
DOCKED: REMARK    4  A    between atoms: C_10  and  C_11
DOCKED: REMARK    5  A    between atoms: C_11  and  N_12
DOCKED: REMARK    6  A    between atoms: N_12  and  C_13
DOCKED: REMARK    7  A    between atoms: N_12  and  C_15
DOCKED: REMARK    8  A    between atoms: C_13  and  C_14
DOCKED: REMARK    9  A    between atoms: C_15  and  C_16
DOCKED: REMARK   10  A    between atoms: N_21  and  C_22
DOCKED: REMARK   11  A    between atoms: C_25  and  C_26
DOCKED: REMARK   12  A    between atoms: N_27  and  O_28
DOCKED: REMARK                            x       y       z     vdW  Elec       q    Type
DOCKED: REMARK                         _______ _______ _______ _____ _____    ______ ____
DOCKED: USER                              x       y       z     vdW  Elec       q    Type
DOCKED: USER                           _______ _______ _______ _____ _____    ______ ____
DOCKED: ROOT
DOCKED: ATOM      1  C   UNL     1      18.873 -11.267   3.627 -0.42 -0.00    +0.000 C 
DOCKED: ENDROOT
DOCKED: BRANCH   1   2
DOCKED: ATOM      2  C   UNL     1      17.724 -10.951   2.715 -0.44 +0.00    +0.000 A 
DOCKED: ATOM      3  C   UNL     1      17.141  -9.675   2.730 -0.38 +0.00    +0.000 A 
DOCKED: ATOM      4  C   UNL     1      16.049  -9.385   1.909 -0.28 +0.00    +0.000 A 
DOCKED: ATOM      5  C   UNL     1      15.515 -10.373   1.070 -0.28 +0.00    +0.000 A 
DOCKED: ATOM      6  C   UNL     1      14.417 -10.091   0.242 -0.22 +0.00    +0.000 A 
DOCKED: ATOM      7  C   UNL     1      13.884 -11.086  -0.592 -0.30 +0.00    +0.000 A 
DOCKED: ATOM      8  C   UNL     1      14.458 -12.367  -0.597 -0.41 +0.00    +0.000 A 
DOCKED: ATOM      9  C   UNL     1      15.550 -12.657   0.224 -0.48 +0.00    +0.000 A 
DOCKED: ATOM     10  C   UNL     1      16.087 -11.668   1.060 -0.39 +0.00    +0.000 A 
DOCKED: ATOM     11  C   UNL     1      17.184 -11.949   1.888 -0.06 +0.00    +0.000 A 
DOCKED: BRANCH   7  12
DOCKED: ATOM     12  C   UNL     1      12.718 -10.787  -1.498 -0.25 -0.00    +0.000 C 
DOCKED: BRANCH  12  13
DOCKED: ATOM     13  N   UNL     1      11.496 -10.562  -0.696 -0.25 +0.00    +0.000 N 
DOCKED: ATOM     14  H   UNL     1      10.703 -10.934  -1.216 -0.03 -0.00    +0.000 HD
DOCKED: BRANCH  13  15
DOCKED: ATOM     15  C   UNL     1      11.219  -9.116  -0.524 -0.14 -0.00    +0.000 C 
DOCKED: ATOM     16  C   UNL     1      11.915  -8.272  -1.592 -0.11 -0.00    +0.000 C 
DOCKED: ENDBRANCH  13  15
DOCKED: BRANCH  13  17
DOCKED: ATOM     17  C   UNL     1      11.513 -11.331   0.574 -0.39 +0.00    +0.000 C 
DOCKED: ATOM     18  C   UNL     1      10.143 -11.882   0.996 -0.42 +0.00    +0.000 C 
DOCKED: ENDBRANCH  13  17
DOCKED: ENDBRANCH  12  13
DOCKED: ENDBRANCH   7  12
DOCKED: ENDBRANCH   1   2
DOCKED: BRANCH   1  19
DOCKED: ATOM     19  O   UNL     1      20.097 -11.028   2.941 -0.91 -0.00    +0.000 OA
DOCKED: BRANCH  19  21
DOCKED: ATOM     20  O   UNL     1      20.305 -12.407   1.102 -1.35 -0.00    +0.000 OA
DOCKED: ATOM     21  C   UNL     1      20.245 -11.234   1.567 -0.75 -0.00    +0.000 C 
DOCKED: ATOM     22  N   UNL     1      20.370 -10.099   0.701 -0.58 -0.00    +0.000 N 
DOCKED: ATOM     23  H   UNL     1      20.477  -9.213   1.117 -0.34 -0.00    +0.000 HD
DOCKED: BRANCH  22  24
DOCKED: ATOM     24  C   UNL     1      20.351 -10.167  -0.735 -0.54 -0.00    +0.000 A 
DOCKED: ATOM     25  C   UNL     1      19.305 -10.845  -1.377 -0.41 -0.00    +0.000 A 
DOCKED: ATOM     26  C   UNL     1      19.274 -10.945  -2.770 -0.36 -0.00    +0.000 A 
DOCKED: ATOM     27  C   UNL     1      20.293 -10.375  -3.552 -0.42 -0.00    +0.000 A 
DOCKED: ATOM     28  C   UNL     1      21.360  -9.726  -2.905 -0.46 -0.00    +0.000 A 
DOCKED: ATOM     29  C   UNL     1      21.391  -9.626  -1.511 -0.54 -0.00    +0.000 A 
DOCKED: BRANCH  27  30
DOCKED: ATOM     30  C   UNL     1      20.249 -10.493  -5.030 -0.41 -0.00    +0.000 C 
DOCKED: ATOM     31  N   UNL     1      19.230 -11.255  -5.688 -0.40 -0.00    +0.000 N 
DOCKED: ATOM     32  O   UNL     1      21.133  -9.923  -5.725 -0.31 -0.00    +0.000 OA
DOCKED: ATOM     33  H   UNL     1      18.585 -11.775  -5.156 -0.04 -0.00    +0.000 HD
DOCKED: BRANCH  31  34
DOCKED: ATOM     34  O   UNL     1      19.150 -11.265  -7.041 -0.40 -0.00    +0.000 OA
DOCKED: ATOM     35  H   UNL     1      19.916 -10.800  -7.413 -0.03 -0.00    +0.000 HD
DOCKED: ENDBRANCH  31  34
DOCKED: ENDBRANCH  27  30
DOCKED: ENDBRANCH  22  24
DOCKED: ENDBRANCH  19  21
DOCKED: ENDBRANCH   1  19
DOCKED: TORSDOF 10
DOCKED: TER
DOCKED: ENDMDL
________________________________________________________________________________


	BEGINNING GENETIC ALGORITHM DOCKING 89 of 100
Run: 89 Seed: 1920685430 981118538 [ Run 89 of 100 GA/GALS ]
Beginning LAMARCKIAN GENETIC ALGORITHM (LGA), with a maximum of 2500000 energy evaluations.

Final-Value: -15.210


	FINAL GENETIC ALGORITHM DOCKED STATE
	_______________________________________________


Detailed state:  trans 19.130 -11.204 -7.231 quatxyzw 0.958615 0.098345 -0.263105 0.046496 center 1.858 0.218 -0.021 ntor 10 -58.4193 151.8432 15.0276 -21.1752 -124.4881 2.0026 -104.2593 -85.0081 157.9429 144.0958
State:	 19.130 -11.204  -7.231   0.960  0.098 -0.263 174.670    -58.42  151.84   15.03  -21.18 -124.49    2.00 -104.26  -85.01  157.94  144.10

DOCKED: MODEL       89
DOCKED: USER    Run = 89
DOCKED: USER    DPF = ligand_dock.biased.dpf
DOCKED: USER  
DOCKED: USER    Estimated Free Energy of Binding    =   -9.13 kcal/mol  [=(1)+(2)+(3)-(4)]
DOCKED: USER    Estimated Inhibition Constant, Ki   =  203.74 nM (nanomolar)  [Temperature = 298.15 K]
DOCKED: USER    
DOCKED: USER    (1) Final Intermolecular Energy     =  -12.11 kcal/mol
DOCKED: USER        vdW + Hbond + desolv Energy     =  -12.11 kcal/mol
DOCKED: USER        Electrostatic Energy            =   +0.00 kcal/mol
DOCKED: USER    (2) Final Total Internal Energy     =   -3.10 kcal/mol
DOCKED: USER    (3) Torsional Free Energy           =   +2.98 kcal/mol
DOCKED: USER    (4) Unbound System's Energy  [=(2)] =   -3.10 kcal/mol
DOCKED: USER    
DOCKED: USER    
DOCKED: USER    NEWDPF move ligand.pdbqt
DOCKED: USER    NEWDPF about 1.858000 0.218000 -0.021000
DOCKED: USER    NEWDPF tran0 19.129559 -11.203986 -7.231336
DOCKED: USER    NEWDPF quaternion0 0.958615 0.098345 -0.263105 0.046496
DOCKED: USER    NEWDPF axisangle0 0.959653 0.098451 -0.263390 174.670067
DOCKED: USER    NEWDPF quat0 0.959653 0.098451 -0.263390 174.670067
DOCKED: USER    NEWDPF dihe0 -58.42 151.84 15.03 -21.18 -124.49 2.00 -104.26 -85.01 157.94 144.10 
DOCKED: USER  keepresnum = 1 
DOCKED: USER  
DOCKED: REMARK  Name = 
DOCKED: REMARK  12 active torsions:
DOCKED: REMARK  status: ('A' for Active; 'I' for Inactive)
DOCKED: REMARK    1  A    between atoms: C_2  and  O_3
DOCKED: REMARK    2  A    between atoms: O_3  and  C_4
DOCKED: REMARK    3  A    between atoms: C_4  and  C_5
DOCKED: REMARK    4  A    between atoms: C_10  and  C_11
DOCKED: REMARK    5  A    between atoms: C_11  and  N_12
DOCKED: REMARK    6  A    between atoms: N_12  and  C_13
DOCKED: REMARK    7  A    between atoms: N_12  and  C_15
DOCKED: REMARK    8  A    between atoms: C_13  and  C_14
DOCKED: REMARK    9  A    between atoms: C_15  and  C_16
DOCKED: REMARK   10  A    between atoms: N_21  and  C_22
DOCKED: REMARK   11  A    between atoms: C_25  and  C_26
DOCKED: REMARK   12  A    between atoms: N_27  and  O_28
DOCKED: REMARK                            x       y       z     vdW  Elec       q    Type
DOCKED: REMARK                         _______ _______ _______ _____ _____    ______ ____
DOCKED: USER                              x       y       z     vdW  Elec       q    Type
DOCKED: USER                           _______ _______ _______ _____ _____    ______ ____
DOCKED: ROOT
DOCKED: ATOM      1  C   UNL     1      18.119 -10.539  -8.347 -0.23 -0.00    +0.000 C 
DOCKED: ENDROOT
DOCKED: BRANCH   1   2
DOCKED: ATOM      2  C   UNL     1      17.188 -10.753  -7.189 -0.27 -0.00    +0.000 A 
DOCKED: ATOM      3  C   UNL     1      16.301 -11.840  -7.188 -0.33 -0.00    +0.000 A 
DOCKED: ATOM      4  C   UNL     1      15.407 -12.025  -6.130 -0.24 -0.00    +0.000 A 
DOCKED: ATOM      5  C   UNL     1      15.379 -11.114  -5.064 -0.23 -0.00    +0.000 A 
DOCKED: ATOM      6  C   UNL     1      14.483 -11.291  -3.998 -0.26 -0.00    +0.000 A 
DOCKED: ATOM      7  C   UNL     1      14.455 -10.373  -2.936 -0.25 -0.00    +0.000 A 
DOCKED: ATOM      8  C   UNL     1      15.333  -9.277  -2.944 -0.20 -0.00    +0.000 A 
DOCKED: ATOM      9  C   UNL     1      16.226  -9.094  -4.002 -0.18 -0.00    +0.000 A 
DOCKED: ATOM     10  C   UNL     1      16.258 -10.006  -5.066 -0.18 -0.00    +0.000 A 
DOCKED: ATOM     11  C   UNL     1      17.153  -9.829  -6.132 -0.16 -0.00    +0.000 A 
DOCKED: BRANCH   7  12
DOCKED: ATOM     12  C   UNL     1      13.510 -10.565  -1.778 -0.30 -0.00    +0.000 C 
DOCKED: BRANCH  12  13
DOCKED: ATOM     13  N   UNL     1      14.271 -10.852  -0.543 -0.27 +0.00    +0.000 N 
DOCKED: ATOM     14  H   UNL     1      15.250 -10.623  -0.714 +0.00 +0.00    +0.000 HD
DOCKED: BRANCH  13  15
DOCKED: ATOM     15  C   UNL     1      14.249 -12.298  -0.217 -0.47 +0.00    +0.000 C 
DOCKED: ATOM     16  C   UNL     1      15.601 -12.961  -0.473 -0.54 +0.00    +0.000 C 
DOCKED: ENDBRANCH  13  15
DOCKED: BRANCH  13  17
DOCKED: ATOM     17  C   UNL     1      13.865  -9.970   0.580 -0.23 +0.00    +0.000 C 
DOCKED: ATOM     18  C   UNL     1      15.027  -9.505   1.469 -0.30 +0.00    +0.000 C 
DOCKED: ENDBRANCH  13  17
DOCKED: ENDBRANCH  12  13
DOCKED: ENDBRANCH   7  12
DOCKED: ENDBRANCH   1   2
DOCKED: BRANCH   1  19
DOCKED: ATOM     19  O   UNL     1      19.458 -10.765  -7.919 -0.32 -0.00    +0.000 OA
DOCKED: BRANCH  19  21
DOCKED: ATOM     20  O   UNL     1      20.338  -9.247  -6.420 -0.17 -0.00    +0.000 OA
DOCKED: ATOM     21  C   UNL     1      19.913 -10.414  -6.645 -0.31 -0.00    +0.000 C 
DOCKED: ATOM     22  N   UNL     1      19.931 -11.408  -5.613 -0.42 -0.00    +0.000 N 
DOCKED: ATOM     23  H   UNL     1      19.742 -12.340  -5.869 -0.44 -0.00    +0.000 HD
DOCKED: BRANCH  22  24
DOCKED: ATOM     24  C   UNL     1      20.206 -11.136  -4.228 -0.44 -0.00    +0.000 A 
DOCKED: ATOM     25  C   UNL     1      19.162 -11.199  -3.295 -0.27 -0.00    +0.000 A 
DOCKED: ATOM     26  C   UNL     1      19.397 -10.919  -1.947 -0.38 -0.00    +0.000 A 
DOCKED: ATOM     27  C   UNL     1      20.682 -10.560  -1.504 -0.50 -0.00    +0.000 A 
DOCKED: ATOM     28  C   UNL     1      21.721 -10.462  -2.447 -0.33 -0.00    +0.000 A 
DOCKED: ATOM     29  C   UNL     1      21.485 -10.744  -3.796 -0.44 -0.00    +0.000 A 
DOCKED: BRANCH  27  30
DOCKED: ATOM     30  C   UNL     1      20.916 -10.260  -0.070 -0.70 -0.00    +0.000 C 
DOCKED: ATOM     31  N   UNL     1      20.183 -10.931   0.962 -0.60 -0.00    +0.000 N 
DOCKED: ATOM     32  O   UNL     1      21.767  -9.387   0.251 -0.73 -0.00    +0.000 OA
DOCKED: ATOM     33  H   UNL     1      19.457 -11.552   0.724 -0.01 -0.00    +0.000 HD
DOCKED: BRANCH  31  34
DOCKED: ATOM     34  O   UNL     1      20.485 -10.715   2.265 -0.88 -0.00    +0.000 OA
DOCKED: ATOM     35  H   UNL     1      21.040  -9.923   2.341 -0.52 -0.00    +0.000 HD
DOCKED: ENDBRANCH  31  34
DOCKED: ENDBRANCH  27  30
DOCKED: ENDBRANCH  22  24
DOCKED: ENDBRANCH  19  21
DOCKED: ENDBRANCH   1  19
DOCKED: TORSDOF 10
DOCKED: TER
DOCKED: ENDMDL
________________________________________________________________________________


	BEGINNING GENETIC ALGORITHM DOCKING 90 of 100
Run: 90 Seed: 1577826198 306022917 [ Run 90 of 100 GA/GALS ]
Beginning LAMARCKIAN GENETIC ALGORITHM (LGA), with a maximum of 2500000 energy evaluations.

Final-Value: -14.788


	FINAL GENETIC ALGORITHM DOCKED STATE
	_______________________________________________


Detailed state:  trans 20.454 -10.673 1.744 quatxyzw -0.523794 -0.079513 0.210401 0.821614 center 1.858 0.218 -0.021 ntor 10 20.4835 165.5758 -0.8622 -71.4406 -105.0632 -179.9033 171.3128 -172.5841 -132.5409 104.3645
State:	 20.454 -10.673   1.744  -0.919 -0.139  0.369 69.507     20.48  165.58   -0.86  -71.44 -105.06 -179.90  171.31 -172.58 -132.54  104.36

DOCKED: MODEL       90
DOCKED: USER    Run = 90
DOCKED: USER    DPF = ligand_dock.biased.dpf
DOCKED: USER  
DOCKED: USER    Estimated Free Energy of Binding    =   -9.61 kcal/mol  [=(1)+(2)+(3)-(4)]
DOCKED: USER    Estimated Inhibition Constant, Ki   =   90.96 nM (nanomolar)  [Temperature = 298.15 K]
DOCKED: USER    
DOCKED: USER    (1) Final Intermolecular Energy     =  -12.59 kcal/mol
DOCKED: USER        vdW + Hbond + desolv Energy     =  -12.59 kcal/mol
DOCKED: USER        Electrostatic Energy            =   +0.00 kcal/mol
DOCKED: USER    (2) Final Total Internal Energy     =   -2.20 kcal/mol
DOCKED: USER    (3) Torsional Free Energy           =   +2.98 kcal/mol
DOCKED: USER    (4) Unbound System's Energy  [=(2)] =   -2.20 kcal/mol
DOCKED: USER    
DOCKED: USER    
DOCKED: USER    NEWDPF move ligand.pdbqt
DOCKED: USER    NEWDPF about 1.858000 0.218000 -0.021000
DOCKED: USER    NEWDPF tran0 20.454163 -10.672783 1.743617
DOCKED: USER    NEWDPF quaternion0 -0.523794 -0.079513 0.210401 0.821614
DOCKED: USER    NEWDPF axisangle0 -0.918864 -0.139486 0.369096 69.506685
DOCKED: USER    NEWDPF quat0 -0.918864 -0.139486 0.369096 69.506685
DOCKED: USER    NEWDPF dihe0 20.48 165.58 -0.86 -71.44 -105.06 -179.90 171.31 -172.58 -132.54 104.36 
DOCKED: USER  keepresnum = 1 
DOCKED: USER  
DOCKED: REMARK  Name = 
DOCKED: REMARK  12 active torsions:
DOCKED: REMARK  status: ('A' for Active; 'I' for Inactive)
DOCKED: REMARK    1  A    between atoms: C_2  and  O_3
DOCKED: REMARK    2  A    between atoms: O_3  and  C_4
DOCKED: REMARK    3  A    between atoms: C_4  and  C_5
DOCKED: REMARK    4  A    between atoms: C_10  and  C_11
DOCKED: REMARK    5  A    between atoms: C_11  and  N_12
DOCKED: REMARK    6  A    between atoms: N_12  and  C_13
DOCKED: REMARK    7  A    between atoms: N_12  and  C_15
DOCKED: REMARK    8  A    between atoms: C_13  and  C_14
DOCKED: REMARK    9  A    between atoms: C_15  and  C_16
DOCKED: REMARK   10  A    between atoms: N_21  and  C_22
DOCKED: REMARK   11  A    between atoms: C_25  and  C_26
DOCKED: REMARK   12  A    between atoms: N_27  and  O_28
DOCKED: REMARK                            x       y       z     vdW  Elec       q    Type
DOCKED: REMARK                         _______ _______ _______ _____ _____    ______ ____
DOCKED: USER                              x       y       z     vdW  Elec       q    Type
DOCKED: USER                           _______ _______ _______ _____ _____    ______ ____
DOCKED: ROOT
DOCKED: ATOM      1  C   UNL     1      19.896 -12.212   1.912 -0.74 -0.00    +0.000 C 
DOCKED: ENDROOT
DOCKED: BRANCH   1   2
DOCKED: ATOM      2  C   UNL     1      18.636 -11.415   2.087 -0.51 -0.00    +0.000 A 
DOCKED: ATOM      3  C   UNL     1      18.681 -10.143   2.678 -0.50 -0.00    +0.000 A 
DOCKED: ATOM      4  C   UNL     1      17.507  -9.412   2.876 -0.26 -0.00    +0.000 A 
DOCKED: ATOM      5  C   UNL     1      16.268  -9.951   2.498 -0.37 +0.00    +0.000 A 
DOCKED: ATOM      6  C   UNL     1      15.084  -9.224   2.695 -0.31 +0.00    +0.000 A 
DOCKED: ATOM      7  C   UNL     1      13.846  -9.770   2.319 -0.24 +0.00    +0.000 A 
DOCKED: ATOM      8  C   UNL     1      13.800 -11.049   1.742 -0.34 +0.00    +0.000 A 
DOCKED: ATOM      9  C   UNL     1      14.974 -11.779   1.544 -0.42 +0.00    +0.000 A 
DOCKED: ATOM     10  C   UNL     1      16.213 -11.240   1.917 -0.39 +0.00    +0.000 A 
DOCKED: ATOM     11  C   UNL     1      17.397 -11.966   1.722 -0.26 +0.00    +0.000 A 
DOCKED: BRANCH   7  12
DOCKED: ATOM     12  C   UNL     1      12.572  -8.989   2.510 -0.19 +0.00    +0.000 C 
DOCKED: BRANCH  12  13
DOCKED: ATOM     13  N   UNL     1      12.273  -8.848   3.950 -0.23 +0.00    +0.000 N 
DOCKED: ATOM     14  H   UNL     1      12.553  -9.709   4.418 -0.02 +0.00    +0.000 HD
DOCKED: BRANCH  13  15
DOCKED: ATOM     15  C   UNL     1      10.816  -8.718   4.191 -0.14 +0.00    +0.000 C 
DOCKED: ATOM     16  C   UNL     1      10.504  -8.408   5.654 -0.32 +0.00    +0.000 C 
DOCKED: ENDBRANCH  13  15
DOCKED: BRANCH  13  17
DOCKED: ATOM     17  C   UNL     1      13.090  -7.786   4.589 -0.30 +0.00    +0.000 C 
DOCKED: ATOM     18  C   UNL     1      13.845  -8.241   5.847 -0.51 +0.00    +0.000 C 
DOCKED: ENDBRANCH  13  17
DOCKED: ENDBRANCH  12  13
DOCKED: ENDBRANCH   7  12
DOCKED: ENDBRANCH   1   2
DOCKED: BRANCH   1  19
DOCKED: ATOM     19  O   UNL     1      20.935 -11.351   1.456 -1.05 -0.00    +0.000 OA
DOCKED: BRANCH  19  21
DOCKED: ATOM     20  O   UNL     1      22.013 -10.229  -0.248 -0.75 -0.00    +0.000 OA
DOCKED: ATOM     21  C   UNL     1      21.010 -10.893   0.138 -0.69 -0.00    +0.000 C 
DOCKED: ATOM     22  N   UNL     1      19.917 -11.149  -0.753 -0.47 -0.00    +0.000 N 
DOCKED: ATOM     23  H   UNL     1      19.093 -11.529  -0.372 -0.02 -0.00    +0.000 HD
DOCKED: BRANCH  22  24
DOCKED: ATOM     24  C   UNL     1      19.944 -10.889  -2.167 -0.37 -0.00    +0.000 A 
DOCKED: ATOM     25  C   UNL     1      21.176 -10.838  -2.833 -0.36 -0.00    +0.000 A 
DOCKED: ATOM     26  C   UNL     1      21.232 -10.566  -4.203 -0.45 -0.00    +0.000 A 
DOCKED: ATOM     27  C   UNL     1      20.056 -10.330  -4.934 -0.34 -0.00    +0.000 A 
DOCKED: ATOM     28  C   UNL     1      18.822 -10.346  -4.257 -0.30 -0.00    +0.000 A 
DOCKED: ATOM     29  C   UNL     1      18.767 -10.619  -2.887 -0.31 -0.00    +0.000 A 
DOCKED: BRANCH  27  30
DOCKED: ATOM     30  C   UNL     1      20.131 -10.038  -6.386 -0.27 -0.00    +0.000 C 
DOCKED: ATOM     31  N   UNL     1      20.844 -10.896  -7.285 -0.28 -0.00    +0.000 N 
DOCKED: ATOM     32  O   UNL     1      19.568  -9.006  -6.842 -0.13 -0.00    +0.000 OA
DOCKED: ATOM     33  H   UNL     1      21.359 -11.657  -6.931 -0.46 -0.00    +0.000 HD
DOCKED: BRANCH  31  34
DOCKED: ATOM     34  O   UNL     1      20.814 -10.665  -8.619 -0.27 -0.00    +0.000 OA
DOCKED: ATOM     35  H   UNL     1      20.256  -9.893  -8.801 -0.01 -0.00    +0.000 HD
DOCKED: ENDBRANCH  31  34
DOCKED: ENDBRANCH  27  30
DOCKED: ENDBRANCH  22  24
DOCKED: ENDBRANCH  19  21
DOCKED: ENDBRANCH   1  19
DOCKED: TORSDOF 10
DOCKED: TER
DOCKED: ENDMDL
________________________________________________________________________________


	BEGINNING GENETIC ALGORITHM DOCKING 91 of 100
Run: 91 Seed: 1851279807 621276641 [ Run 91 of 100 GA/GALS ]
Beginning LAMARCKIAN GENETIC ALGORITHM (LGA), with a maximum of 2500000 energy evaluations.

Final-Value: -16.089


	FINAL GENETIC ALGORITHM DOCKED STATE
	_______________________________________________


Detailed state:  trans 13.681 -10.722 -2.546 quatxyzw 0.027422 0.858235 0.434889 0.271207 center 1.858 0.218 -0.021 ntor 10 -146.8081 178.4021 5.5508 -144.5736 171.3130 155.0188 -0.2136 -98.3441 -9.7322 -161.5216
State:	 13.681 -10.722  -2.546   0.028  0.892  0.452 148.528   -146.81  178.40    5.55 -144.57  171.31  155.02   -0.21  -98.34   -9.73 -161.52

DOCKED: MODEL       91
DOCKED: USER    Run = 91
DOCKED: USER    DPF = ligand_dock.biased.dpf
DOCKED: USER  
DOCKED: USER    Estimated Free Energy of Binding    =   -9.93 kcal/mol  [=(1)+(2)+(3)-(4)]
DOCKED: USER    Estimated Inhibition Constant, Ki   =   52.59 nM (nanomolar)  [Temperature = 298.15 K]
DOCKED: USER    
DOCKED: USER    (1) Final Intermolecular Energy     =  -12.91 kcal/mol
DOCKED: USER        vdW + Hbond + desolv Energy     =  -12.91 kcal/mol
DOCKED: USER        Electrostatic Energy            =   +0.00 kcal/mol
DOCKED: USER    (2) Final Total Internal Energy     =   -3.18 kcal/mol
DOCKED: USER    (3) Torsional Free Energy           =   +2.98 kcal/mol
DOCKED: USER    (4) Unbound System's Energy  [=(2)] =   -3.18 kcal/mol
DOCKED: USER    
DOCKED: USER    
DOCKED: USER    NEWDPF move ligand.pdbqt
DOCKED: USER    NEWDPF about 1.858000 0.218000 -0.021000
DOCKED: USER    NEWDPF tran0 13.680908 -10.721974 -2.545562
DOCKED: USER    NEWDPF quaternion0 0.027422 0.858235 0.434889 0.271207
DOCKED: USER    NEWDPF axisangle0 0.028489 0.891653 0.451823 148.527844
DOCKED: USER    NEWDPF quat0 0.028489 0.891653 0.451823 148.527844
DOCKED: USER    NEWDPF dihe0 -146.81 178.40 5.55 -144.57 171.31 155.02 -0.21 -98.34 -9.73 -161.52 
DOCKED: USER  keepresnum = 1 
DOCKED: USER  
DOCKED: REMARK  Name = 
DOCKED: REMARK  12 active torsions:
DOCKED: REMARK  status: ('A' for Active; 'I' for Inactive)
DOCKED: REMARK    1  A    between atoms: C_2  and  O_3
DOCKED: REMARK    2  A    between atoms: O_3  and  C_4
DOCKED: REMARK    3  A    between atoms: C_4  and  C_5
DOCKED: REMARK    4  A    between atoms: C_10  and  C_11
DOCKED: REMARK    5  A    between atoms: C_11  and  N_12
DOCKED: REMARK    6  A    between atoms: N_12  and  C_13
DOCKED: REMARK    7  A    between atoms: N_12  and  C_15
DOCKED: REMARK    8  A    between atoms: C_13  and  C_14
DOCKED: REMARK    9  A    between atoms: C_15  and  C_16
DOCKED: REMARK   10  A    between atoms: N_21  and  C_22
DOCKED: REMARK   11  A    between atoms: C_25  and  C_26
DOCKED: REMARK   12  A    between atoms: N_27  and  O_28
DOCKED: REMARK                            x       y       z     vdW  Elec       q    Type
DOCKED: REMARK                         _______ _______ _______ _____ _____    ______ ____
DOCKED: USER                              x       y       z     vdW  Elec       q    Type
DOCKED: USER                           _______ _______ _______ _____ _____    ______ ____
DOCKED: ROOT
DOCKED: ATOM      1  C   UNL     1      12.966  -9.958  -3.816 -0.18 -0.00    +0.000 C 
DOCKED: ENDROOT
DOCKED: BRANCH   1   2
DOCKED: ATOM      2  C   UNL     1      14.361 -10.157  -4.333 -0.20 -0.00    +0.000 A 
DOCKED: ATOM      3  C   UNL     1      14.690 -11.320  -5.046 -0.26 -0.00    +0.000 A 
DOCKED: ATOM      4  C   UNL     1      15.995 -11.527  -5.499 -0.13 -0.00    +0.000 A 
DOCKED: ATOM      5  C   UNL     1      16.994 -10.579  -5.232 -0.23 -0.00    +0.000 A 
DOCKED: ATOM      6  C   UNL     1      18.308 -10.780  -5.682 -0.31 -0.00    +0.000 A 
DOCKED: ATOM      7  C   UNL     1      19.305  -9.830  -5.408 -0.23 -0.00    +0.000 A 
DOCKED: ATOM      8  C   UNL     1      18.978  -8.674  -4.682 -0.18 -0.00    +0.000 A 
DOCKED: ATOM      9  C   UNL     1      17.673  -8.467  -4.229 -0.10 -0.00    +0.000 A 
DOCKED: ATOM     10  C   UNL     1      16.673  -9.412  -4.499 -0.18 -0.00    +0.000 A 
DOCKED: ATOM     11  C   UNL     1      15.359  -9.213  -4.049 -0.17 -0.00    +0.000 A 
DOCKED: BRANCH   7  12
DOCKED: ATOM     12  C   UNL     1      20.713 -10.028  -5.903 -0.32 -0.00    +0.000 C 
DOCKED: BRANCH  12  13
DOCKED: ATOM     13  N   UNL     1      21.530 -10.689  -4.863 -0.45 -0.00    +0.000 N 
DOCKED: ATOM     14  H   UNL     1      22.194 -10.006  -4.500 -0.03 -0.00    +0.000 HD
DOCKED: BRANCH  13  15
DOCKED: ATOM     15  C   UNL     1      22.352 -11.783  -5.434 -0.45 -0.00    +0.000 C 
DOCKED: ATOM     16  C   UNL     1      22.515 -11.644  -6.946 -0.43 -0.00    +0.000 C 
DOCKED: ENDBRANCH  13  15
DOCKED: BRANCH  13  17
DOCKED: ATOM     17  C   UNL     1      20.717 -11.091  -3.687 -0.39 -0.00    +0.000 C 
DOCKED: ATOM     18  C   UNL     1      21.077 -10.353  -2.390 -0.57 -0.00    +0.000 C 
DOCKED: ENDBRANCH  13  17
DOCKED: ENDBRANCH  12  13
DOCKED: ENDBRANCH   7  12
DOCKED: ENDBRANCH   1   2
DOCKED: BRANCH   1  19
DOCKED: ATOM     19  O   UNL     1      12.804 -10.696  -2.608 -0.27 -0.00    +0.000 OA
DOCKED: BRANCH  19  21
DOCKED: ATOM     20  O   UNL     1      14.272 -12.348  -1.947 -0.47 +0.00    +0.000 OA
DOCKED: ATOM     21  C   UNL     1      13.886 -11.150  -1.851 -0.35 -0.00    +0.000 C 
DOCKED: ATOM     22  N   UNL     1      14.521 -10.251  -0.933 -0.23 -0.00    +0.000 N 
DOCKED: ATOM     23  H   UNL     1      14.093  -9.379  -0.773 +0.00 -0.00    +0.000 HD
DOCKED: BRANCH  22  24
DOCKED: ATOM     24  C   UNL     1      15.743 -10.536  -0.230 -0.27 +0.00    +0.000 A 
DOCKED: ATOM     25  C   UNL     1      15.938 -10.005   1.052 -0.27 +0.00    +0.000 A 
DOCKED: ATOM     26  C   UNL     1      17.125 -10.249   1.748 -0.35 +0.00    +0.000 A 
DOCKED: ATOM     27  C   UNL     1      18.146 -11.023   1.172 -0.44 -0.00    +0.000 A 
DOCKED: ATOM     28  C   UNL     1      17.963 -11.526  -0.129 -0.42 -0.00    +0.000 A 
DOCKED: ATOM     29  C   UNL     1      16.775 -11.282  -0.825 -0.31 -0.00    +0.000 A 
DOCKED: BRANCH  27  30
DOCKED: ATOM     30  C   UNL     1      19.402 -11.270   1.921 -0.68 -0.00    +0.000 C 
DOCKED: ATOM     31  N   UNL     1      19.924 -10.306   2.843 -0.59 -0.00    +0.000 N 
DOCKED: ATOM     32  O   UNL     1      20.036 -12.345   1.735 -1.74 -0.00    +0.000 OA
DOCKED: ATOM     33  H   UNL     1      19.487  -9.428   2.935 -0.53 -0.00    +0.000 HD
DOCKED: BRANCH  31  34
DOCKED: ATOM     34  O   UNL     1      21.016 -10.596   3.590 -0.67 -0.00    +0.000 OA
DOCKED: ATOM     35  H   UNL     1      21.374 -11.456   3.320 -0.53 -0.00    +0.000 HD
DOCKED: ENDBRANCH  31  34
DOCKED: ENDBRANCH  27  30
DOCKED: ENDBRANCH  22  24
DOCKED: ENDBRANCH  19  21
DOCKED: ENDBRANCH   1  19
DOCKED: TORSDOF 10
DOCKED: TER
DOCKED: ENDMDL
________________________________________________________________________________


	BEGINNING GENETIC ALGORITHM DOCKING 92 of 100
Run: 92 Seed: 892644016 1479987082 [ Run 92 of 100 GA/GALS ]
Beginning LAMARCKIAN GENETIC ALGORITHM (LGA), with a maximum of 2500000 energy evaluations.

Final-Value: -15.940


	FINAL GENETIC ALGORITHM DOCKED STATE
	_______________________________________________


Detailed state:  trans 20.861 -9.718 -5.330 quatxyzw -0.976005 -0.062250 0.036197 0.205497 center 1.858 0.218 -0.021 ntor 10 -52.7290 87.8651 29.0056 28.5423 -114.2246 172.2374 -145.5658 102.8968 -26.2541 -132.7649
State:	 20.861  -9.718  -5.330  -0.997 -0.064  0.037 156.283    -52.73   87.87   29.01   28.54 -114.22  172.24 -145.57  102.90  -26.25 -132.76

DOCKED: MODEL       92
DOCKED: USER    Run = 92
DOCKED: USER    DPF = ligand_dock.biased.dpf
DOCKED: USER  
DOCKED: USER    Estimated Free Energy of Binding    =  -10.16 kcal/mol  [=(1)+(2)+(3)-(4)]
DOCKED: USER    Estimated Inhibition Constant, Ki   =   35.48 nM (nanomolar)  [Temperature = 298.15 K]
DOCKED: USER    
DOCKED: USER    (1) Final Intermolecular Energy     =  -13.15 kcal/mol
DOCKED: USER        vdW + Hbond + desolv Energy     =  -13.15 kcal/mol
DOCKED: USER        Electrostatic Energy            =   +0.00 kcal/mol
DOCKED: USER    (2) Final Total Internal Energy     =   -2.79 kcal/mol
DOCKED: USER    (3) Torsional Free Energy           =   +2.98 kcal/mol
DOCKED: USER    (4) Unbound System's Energy  [=(2)] =   -2.79 kcal/mol
DOCKED: USER    
DOCKED: USER    
DOCKED: USER    NEWDPF move ligand.pdbqt
DOCKED: USER    NEWDPF about 1.858000 0.218000 -0.021000
DOCKED: USER    NEWDPF tran0 20.861385 -9.717724 -5.329736
DOCKED: USER    NEWDPF quaternion0 -0.976005 -0.062250 0.036197 0.205497
DOCKED: USER    NEWDPF axisangle0 -0.997289 -0.063607 0.036986 156.282822
DOCKED: USER    NEWDPF quat0 -0.997289 -0.063607 0.036986 156.282822
DOCKED: USER    NEWDPF dihe0 -52.73 87.87 29.01 28.54 -114.22 172.24 -145.57 102.90 -26.25 -132.76 
DOCKED: USER  keepresnum = 1 
DOCKED: USER  
DOCKED: REMARK  Name = 
DOCKED: REMARK  12 active torsions:
DOCKED: REMARK  status: ('A' for Active; 'I' for Inactive)
DOCKED: REMARK    1  A    between atoms: C_2  and  O_3
DOCKED: REMARK    2  A    between atoms: O_3  and  C_4
DOCKED: REMARK    3  A    between atoms: C_4  and  C_5
DOCKED: REMARK    4  A    between atoms: C_10  and  C_11
DOCKED: REMARK    5  A    between atoms: C_11  and  N_12
DOCKED: REMARK    6  A    between atoms: N_12  and  C_13
DOCKED: REMARK    7  A    between atoms: N_12  and  C_15
DOCKED: REMARK    8  A    between atoms: C_13  and  C_14
DOCKED: REMARK    9  A    between atoms: C_15  and  C_16
DOCKED: REMARK   10  A    between atoms: N_21  and  C_22
DOCKED: REMARK   11  A    between atoms: C_25  and  C_26
DOCKED: REMARK   12  A    between atoms: N_27  and  O_28
DOCKED: REMARK                            x       y       z     vdW  Elec       q    Type
DOCKED: REMARK                         _______ _______ _______ _____ _____    ______ ____
DOCKED: USER                              x       y       z     vdW  Elec       q    Type
DOCKED: USER                           _______ _______ _______ _____ _____    ______ ____
DOCKED: ROOT
DOCKED: ATOM      1  C   UNL     1      20.549  -9.746  -6.945 -0.23 -0.00    +0.000 C 
DOCKED: ENDROOT
DOCKED: BRANCH   1   2
DOCKED: ATOM      2  C   UNL     1      19.169  -9.586  -6.376 -0.18 -0.00    +0.000 A 
DOCKED: ATOM      3  C   UNL     1      18.764  -8.355  -5.840 -0.12 -0.00    +0.000 A 
DOCKED: ATOM      4  C   UNL     1      17.494  -8.210  -5.276 -0.13 -0.00    +0.000 A 
DOCKED: ATOM      5  C   UNL     1      16.615  -9.301  -5.229 -0.15 -0.00    +0.000 A 
DOCKED: ATOM      6  C   UNL     1      15.338  -9.165  -4.663 -0.14 -0.00    +0.000 A 
DOCKED: ATOM      7  C   UNL     1      14.464 -10.263  -4.614 -0.20 -0.00    +0.000 A 
DOCKED: ATOM      8  C   UNL     1      14.874 -11.500  -5.137 -0.25 -0.00    +0.000 A 
DOCKED: ATOM      9  C   UNL     1      16.144 -11.643  -5.701 -0.15 -0.00    +0.000 A 
DOCKED: ATOM     10  C   UNL     1      17.022 -10.552  -5.752 -0.24 -0.00    +0.000 A 
DOCKED: ATOM     11  C   UNL     1      18.299 -10.687  -6.317 -0.30 -0.00    +0.000 A 
DOCKED: BRANCH   7  12
DOCKED: ATOM     12  C   UNL     1      13.084 -10.121  -4.026 -0.19 -0.00    +0.000 C 
DOCKED: BRANCH  12  13
DOCKED: ATOM     13  N   UNL     1      13.161 -10.090  -2.550 -0.23 -0.00    +0.000 N 
DOCKED: ATOM     14  H   UNL     1      13.684  -9.259  -2.277 +0.00 -0.00    +0.000 HD
DOCKED: BRANCH  13  15
DOCKED: ATOM     15  C   UNL     1      13.935 -11.240  -2.024 -0.35 -0.00    +0.000 C 
DOCKED: ATOM     16  C   UNL     1      15.241 -10.796  -1.366 -0.32 -0.00    +0.000 C 
DOCKED: ENDBRANCH  13  15
DOCKED: BRANCH  13  17
DOCKED: ATOM     17  C   UNL     1      11.826  -9.920  -1.925 -0.20 -0.00    +0.000 C 
DOCKED: ATOM     18  C   UNL     1      11.722 -10.473  -0.496 -0.27 +0.00    +0.000 C 
DOCKED: ENDBRANCH  13  17
DOCKED: ENDBRANCH  12  13
DOCKED: ENDBRANCH   7  12
DOCKED: ENDBRANCH   1   2
DOCKED: BRANCH   1  19
DOCKED: ATOM     19  O   UNL     1      21.507  -9.567  -5.907 -0.29 -0.00    +0.000 OA
DOCKED: BRANCH  19  21
DOCKED: ATOM     20  O   UNL     1      22.093 -11.213  -4.400 -0.58 -0.00    +0.000 OA
DOCKED: ATOM     21  C   UNL     1      21.398 -10.192  -4.663 -0.46 -0.00    +0.000 C 
DOCKED: ATOM     22  N   UNL     1      20.457  -9.685  -3.708 -0.35 -0.00    +0.000 N 
DOCKED: ATOM     23  H   UNL     1      19.826  -8.990  -4.008 -0.00 -0.00    +0.000 HD
DOCKED: BRANCH  22  24
DOCKED: ATOM     24  C   UNL     1      20.371 -10.122  -2.341 -0.47 -0.00    +0.000 A 
DOCKED: ATOM     25  C   UNL     1      21.426  -9.840  -1.462 -0.53 -0.00    +0.000 A 
DOCKED: ATOM     26  C   UNL     1      21.378 -10.272  -0.134 -0.64 -0.00    +0.000 A 
DOCKED: ATOM     27  C   UNL     1      20.276 -11.004   0.341 -0.59 -0.00    +0.000 A 
DOCKED: ATOM     28  C   UNL     1      19.234 -11.316  -0.551 -0.44 -0.00    +0.000 A 
DOCKED: ATOM     29  C   UNL     1      19.283 -10.883  -1.880 -0.39 -0.00    +0.000 A 
DOCKED: BRANCH  27  30
DOCKED: ATOM     30  C   UNL     1      20.240 -11.459   1.752 -0.77 -0.00    +0.000 C 
DOCKED: ATOM     31  N   UNL     1      20.641 -10.599   2.825 -0.63 -0.00    +0.000 N 
DOCKED: ATOM     32  O   UNL     1      19.864 -12.634   2.017 -1.59 -0.00    +0.000 OA
DOCKED: ATOM     33  H   UNL     1      21.018  -9.711   2.627 -0.59 -0.00    +0.000 HD
DOCKED: BRANCH  31  34
DOCKED: ATOM     34  O   UNL     1      20.505 -11.002   4.112 -0.76 -0.00    +0.000 OA
DOCKED: ATOM     35  H   UNL     1      20.573 -11.968   4.157 -0.45 -0.00    +0.000 HD
DOCKED: ENDBRANCH  31  34
DOCKED: ENDBRANCH  27  30
DOCKED: ENDBRANCH  22  24
DOCKED: ENDBRANCH  19  21
DOCKED: ENDBRANCH   1  19
DOCKED: TORSDOF 10
DOCKED: TER
DOCKED: ENDMDL
________________________________________________________________________________


	BEGINNING GENETIC ALGORITHM DOCKING 93 of 100
Run: 93 Seed: 64223420 231271363 [ Run 93 of 100 GA/GALS ]
Beginning LAMARCKIAN GENETIC ALGORITHM (LGA), with a maximum of 2500000 energy evaluations.

Final-Value: -16.070


	FINAL GENETIC ALGORITHM DOCKED STATE
	_______________________________________________


Detailed state:  trans 20.467 -7.412 -4.846 quatxyzw -0.724846 0.612167 0.179161 -0.260290 center 1.858 0.218 -0.021 ntor 10 165.7044 48.4851 56.2093 -24.1432 -141.7642 -60.3927 23.1574 79.9868 -169.3974 -178.3439
State:	 20.467  -7.412  -4.846  -0.751  0.634  0.186 -149.825    165.70   48.49   56.21  -24.14 -141.76  -60.39   23.16   79.99 -169.40 -178.34

DOCKED: MODEL       93
DOCKED: USER    Run = 93
DOCKED: USER    DPF = ligand_dock.biased.dpf
DOCKED: USER  
DOCKED: USER    Estimated Free Energy of Binding    =  -10.95 kcal/mol  [=(1)+(2)+(3)-(4)]
DOCKED: USER    Estimated Inhibition Constant, Ki   =    9.36 nM (nanomolar)  [Temperature = 298.15 K]
DOCKED: USER    
DOCKED: USER    (1) Final Intermolecular Energy     =  -13.94 kcal/mol
DOCKED: USER        vdW + Hbond + desolv Energy     =  -13.94 kcal/mol
DOCKED: USER        Electrostatic Energy            =   +0.00 kcal/mol
DOCKED: USER    (2) Final Total Internal Energy     =   -2.13 kcal/mol
DOCKED: USER    (3) Torsional Free Energy           =   +2.98 kcal/mol
DOCKED: USER    (4) Unbound System's Energy  [=(2)] =   -2.13 kcal/mol
DOCKED: USER    
DOCKED: USER    
DOCKED: USER    NEWDPF move ligand.pdbqt
DOCKED: USER    NEWDPF about 1.858000 0.218000 -0.021000
DOCKED: USER    NEWDPF tran0 20.466879 -7.412412 -4.846165
DOCKED: USER    NEWDPF quaternion0 -0.724846 0.612167 0.179161 -0.260290
DOCKED: USER    NEWDPF axisangle0 -0.750723 0.634022 0.185557 -149.825422
DOCKED: USER    NEWDPF quat0 -0.750723 0.634022 0.185557 -149.825422
DOCKED: USER    NEWDPF dihe0 165.70 48.49 56.21 -24.14 -141.76 -60.39 23.16 79.99 -169.40 -178.34 
DOCKED: USER  keepresnum = 1 
DOCKED: USER  
DOCKED: REMARK  Name = 
DOCKED: REMARK  12 active torsions:
DOCKED: REMARK  status: ('A' for Active; 'I' for Inactive)
DOCKED: REMARK    1  A    between atoms: C_2  and  O_3
DOCKED: REMARK    2  A    between atoms: O_3  and  C_4
DOCKED: REMARK    3  A    between atoms: C_4  and  C_5
DOCKED: REMARK    4  A    between atoms: C_10  and  C_11
DOCKED: REMARK    5  A    between atoms: C_11  and  N_12
DOCKED: REMARK    6  A    between atoms: N_12  and  C_13
DOCKED: REMARK    7  A    between atoms: N_12  and  C_15
DOCKED: REMARK    8  A    between atoms: C_13  and  C_14
DOCKED: REMARK    9  A    between atoms: C_15  and  C_16
DOCKED: REMARK   10  A    between atoms: N_21  and  C_22
DOCKED: REMARK   11  A    between atoms: C_25  and  C_26
DOCKED: REMARK   12  A    between atoms: N_27  and  O_28
DOCKED: REMARK                            x       y       z     vdW  Elec       q    Type
DOCKED: REMARK                         _______ _______ _______ _____ _____    ______ ____
DOCKED: USER                              x       y       z     vdW  Elec       q    Type
DOCKED: USER                           _______ _______ _______ _____ _____    ______ ____
DOCKED: ROOT
DOCKED: ATOM      1  C   UNL     1      21.171  -6.317  -5.852 -0.12 -0.00    +0.000 C 
DOCKED: ENDROOT
DOCKED: BRANCH   1   2
DOCKED: ATOM      2  C   UNL     1      20.984  -5.502  -4.606 -0.15 -0.00    +0.000 A 
DOCKED: ATOM      3  C   UNL     1      19.696  -5.135  -4.189 -0.14 -0.00    +0.000 A 
DOCKED: ATOM      4  C   UNL     1      19.517  -4.346  -3.050 -0.07 -0.00    +0.000 A 
DOCKED: ATOM      5  C   UNL     1      20.628  -3.902  -2.319 -0.26 -0.00    +0.000 A 
DOCKED: ATOM      6  C   UNL     1      20.458  -3.108  -1.173 -0.31 -0.00    +0.000 A 
DOCKED: ATOM      7  C   UNL     1      21.574  -2.661  -0.448 -0.33 -0.00    +0.000 A 
DOCKED: ATOM      8  C   UNL     1      22.864  -3.017  -0.873 -0.23 +0.00    +0.000 A 
DOCKED: ATOM      9  C   UNL     1      23.042  -3.805  -2.012 -0.29 +0.00    +0.000 A 
DOCKED: ATOM     10  C   UNL     1      21.931  -4.254  -2.741 -0.25 -0.00    +0.000 A 
DOCKED: ATOM     11  C   UNL     1      22.100  -5.047  -3.886 -0.19 -0.00    +0.000 A 
DOCKED: BRANCH   7  12
DOCKED: ATOM     12  C   UNL     1      21.400  -1.825   0.793 -0.42 -0.00    +0.000 C 
DOCKED: BRANCH  12  13
DOCKED: ATOM     13  N   UNL     1      20.441  -2.473   1.712 -0.52 -0.00    +0.000 N 
DOCKED: ATOM     14  H   UNL     1      20.266  -3.418   1.373 -0.04 +0.00    +0.000 HD
DOCKED: BRANCH  13  15
DOCKED: ATOM     15  C   UNL     1      19.125  -1.791   1.692 -0.41 -0.00    +0.000 C 
DOCKED: ATOM     16  C   UNL     1      19.256  -0.311   1.335 -0.25 -0.00    +0.000 C 
DOCKED: ENDBRANCH  13  15
DOCKED: BRANCH  13  17
DOCKED: ATOM     17  C   UNL     1      21.008  -2.657   3.072 -0.66 -0.00    +0.000 C 
DOCKED: ATOM     18  C   UNL     1      20.295  -1.852   4.168 -0.74 -0.00    +0.000 C 
DOCKED: ENDBRANCH  13  17
DOCKED: ENDBRANCH  12  13
DOCKED: ENDBRANCH   7  12
DOCKED: ENDBRANCH   1   2
DOCKED: BRANCH   1  19
DOCKED: ATOM     19  O   UNL     1      20.898  -7.684  -5.563 -0.16 -0.00    +0.000 OA
DOCKED: BRANCH  19  21
DOCKED: ATOM     20  O   UNL     1      19.287  -7.978  -3.938 -0.23 -0.00    +0.000 OA
DOCKED: ATOM     21  C   UNL     1      20.487  -8.122  -4.301 -0.29 -0.00    +0.000 C 
DOCKED: ATOM     22  N   UNL     1      21.456  -8.694  -3.413 -0.39 -0.00    +0.000 N 
DOCKED: ATOM     23  H   UNL     1      22.404  -8.644  -3.672 -0.04 -0.00    +0.000 HD
DOCKED: BRANCH  22  24
DOCKED: ATOM     24  C   UNL     1      21.135  -9.338  -2.168 -0.49 -0.00    +0.000 A 
DOCKED: ATOM     25  C   UNL     1      21.735  -8.885  -0.985 -0.13 -0.00    +0.000 A 
DOCKED: ATOM     26  C   UNL     1      21.457  -9.507   0.235 -0.41 -0.00    +0.000 A 
DOCKED: ATOM     27  C   UNL     1      20.578 -10.602   0.296 -0.61 -0.00    +0.000 A 
DOCKED: ATOM     28  C   UNL     1      20.004 -11.078  -0.897 -0.35 -0.00    +0.000 A 
DOCKED: ATOM     29  C   UNL     1      20.282 -10.455  -2.117 -0.46 -0.00    +0.000 A 
DOCKED: BRANCH  27  30
DOCKED: ATOM     30  C   UNL     1      20.296 -11.255   1.598 -0.75 -0.00    +0.000 C 
DOCKED: ATOM     31  N   UNL     1      20.623 -10.619   2.839 -0.63 -0.00    +0.000 N 
DOCKED: ATOM     32  O   UNL     1      19.771 -12.401   1.617 -1.67 -0.00    +0.000 OA
DOCKED: ATOM     33  H   UNL     1      21.111  -9.763   2.838 -0.59 -0.00    +0.000 HD
DOCKED: BRANCH  31  34
DOCKED: ATOM     34  O   UNL     1      20.265 -11.189   4.015 -0.83 -0.00    +0.000 OA
DOCKED: ATOM     35  H   UNL     1      20.626 -12.088   4.062 -0.52 -0.00    +0.000 HD
DOCKED: ENDBRANCH  31  34
DOCKED: ENDBRANCH  27  30
DOCKED: ENDBRANCH  22  24
DOCKED: ENDBRANCH  19  21
DOCKED: ENDBRANCH   1  19
DOCKED: TORSDOF 10
DOCKED: TER
DOCKED: ENDMDL
________________________________________________________________________________


	BEGINNING GENETIC ALGORITHM DOCKING 94 of 100
Run: 94 Seed: 313442819 110746968 [ Run 94 of 100 GA/GALS ]
Beginning LAMARCKIAN GENETIC ALGORITHM (LGA), with a maximum of 2500000 energy evaluations.

Final-Value: -15.214


	FINAL GENETIC ALGORITHM DOCKED STATE
	_______________________________________________


Detailed state:  trans 18.162 -12.481 0.375 quatxyzw -0.367446 0.281887 -0.873853 -0.148003 center 1.858 0.218 -0.021 ntor 10 69.5266 -136.3812 5.7457 154.7251 180.0000 170.5812 22.4775 -175.8142 66.0943 88.9702
State:	 18.162 -12.481   0.375  -0.372  0.285 -0.884 -162.978     69.53 -136.38    5.75  154.73  180.00  170.58   22.48 -175.81   66.09   88.97

DOCKED: MODEL       94
DOCKED: USER    Run = 94
DOCKED: USER    DPF = ligand_dock.biased.dpf
DOCKED: USER  
DOCKED: USER    Estimated Free Energy of Binding    =   -9.88 kcal/mol  [=(1)+(2)+(3)-(4)]
DOCKED: USER    Estimated Inhibition Constant, Ki   =   57.66 nM (nanomolar)  [Temperature = 298.15 K]
DOCKED: USER    
DOCKED: USER    (1) Final Intermolecular Energy     =  -12.86 kcal/mol
DOCKED: USER        vdW + Hbond + desolv Energy     =  -12.86 kcal/mol
DOCKED: USER        Electrostatic Energy            =   +0.00 kcal/mol
DOCKED: USER    (2) Final Total Internal Energy     =   -2.35 kcal/mol
DOCKED: USER    (3) Torsional Free Energy           =   +2.98 kcal/mol
DOCKED: USER    (4) Unbound System's Energy  [=(2)] =   -2.35 kcal/mol
DOCKED: USER    
DOCKED: USER    
DOCKED: USER    NEWDPF move ligand.pdbqt
DOCKED: USER    NEWDPF about 1.858000 0.218000 -0.021000
DOCKED: USER    NEWDPF tran0 18.161616 -12.481000 0.374834
DOCKED: USER    NEWDPF quaternion0 -0.367446 0.281887 -0.873853 -0.148003
DOCKED: USER    NEWDPF axisangle0 -0.371538 0.285026 -0.883584 -162.977592
DOCKED: USER    NEWDPF quat0 -0.371538 0.285026 -0.883584 -162.977592
DOCKED: USER    NEWDPF dihe0 69.53 -136.38 5.75 154.73 180.00 170.58 22.48 -175.81 66.09 88.97 
DOCKED: USER  keepresnum = 1 
DOCKED: USER  
DOCKED: REMARK  Name = 
DOCKED: REMARK  12 active torsions:
DOCKED: REMARK  status: ('A' for Active; 'I' for Inactive)
DOCKED: REMARK    1  A    between atoms: C_2  and  O_3
DOCKED: REMARK    2  A    between atoms: O_3  and  C_4
DOCKED: REMARK    3  A    between atoms: C_4  and  C_5
DOCKED: REMARK    4  A    between atoms: C_10  and  C_11
DOCKED: REMARK    5  A    between atoms: C_11  and  N_12
DOCKED: REMARK    6  A    between atoms: N_12  and  C_13
DOCKED: REMARK    7  A    between atoms: N_12  and  C_15
DOCKED: REMARK    8  A    between atoms: C_13  and  C_14
DOCKED: REMARK    9  A    between atoms: C_15  and  C_16
DOCKED: REMARK   10  A    between atoms: N_21  and  C_22
DOCKED: REMARK   11  A    between atoms: C_25  and  C_26
DOCKED: REMARK   12  A    between atoms: N_27  and  O_28
DOCKED: REMARK                            x       y       z     vdW  Elec       q    Type
DOCKED: REMARK                         _______ _______ _______ _____ _____    ______ ____
DOCKED: USER                              x       y       z     vdW  Elec       q    Type
DOCKED: USER                           _______ _______ _______ _____ _____    ______ ____
DOCKED: ROOT
DOCKED: ATOM      1  C   UNL     1      19.324 -12.459   1.539 -0.60 -0.00    +0.000 C 
DOCKED: ENDROOT
DOCKED: BRANCH   1   2
DOCKED: ATOM      2  C   UNL     1      19.902 -11.520   0.522 -0.57 -0.00    +0.000 A 
DOCKED: ATOM      3  C   UNL     1      20.983 -10.691   0.860 -0.55 -0.00    +0.000 A 
DOCKED: ATOM      4  C   UNL     1      21.503  -9.789  -0.072 -0.59 -0.00    +0.000 A 
DOCKED: ATOM      5  C   UNL     1      20.938  -9.694  -1.352 -0.56 -0.00    +0.000 A 
DOCKED: ATOM      6  C   UNL     1      21.453  -8.790  -2.294 -0.41 -0.00    +0.000 A 
DOCKED: ATOM      7  C   UNL     1      20.881  -8.696  -3.573 -0.36 -0.00    +0.000 A 
DOCKED: ATOM      8  C   UNL     1      19.791  -9.515  -3.907 -0.30 -0.00    +0.000 A 
DOCKED: ATOM      9  C   UNL     1      19.272 -10.416  -2.975 -0.36 -0.00    +0.000 A 
DOCKED: ATOM     10  C   UNL     1      19.838 -10.515  -1.696 -0.44 -0.00    +0.000 A 
DOCKED: ATOM     11  C   UNL     1      19.324 -11.418  -0.753 -0.35 -0.00    +0.000 A 
DOCKED: BRANCH   7  12
DOCKED: ATOM     12  C   UNL     1      21.440  -7.741  -4.597 -0.28 -0.00    +0.000 C 
DOCKED: BRANCH  12  13
DOCKED: ATOM     13  N   UNL     1      20.987  -6.364  -4.307 -0.20 -0.00    +0.000 N 
DOCKED: ATOM     14  H   UNL     1      21.240  -5.775  -5.100 +0.00 -0.00    +0.000 HD
DOCKED: BRANCH  13  15
DOCKED: ATOM     15  C   UNL     1      21.701  -5.794  -3.140 -0.34 -0.00    +0.000 C 
DOCKED: ATOM     16  C   UNL     1      20.735  -5.317  -2.057 -0.41 -0.00    +0.000 C 
DOCKED: ENDBRANCH  13  15
DOCKED: BRANCH  13  17
DOCKED: ATOM     17  C   UNL     1      19.509  -6.269  -4.220 -0.14 -0.00    +0.000 C 
DOCKED: ATOM     18  C   UNL     1      18.784  -6.455  -5.561 -0.11 -0.00    +0.000 C 
DOCKED: ENDBRANCH  13  17
DOCKED: ENDBRANCH  12  13
DOCKED: ENDBRANCH   7  12
DOCKED: ENDBRANCH   1   2
DOCKED: BRANCH   1  19
DOCKED: ATOM     19  O   UNL     1      17.977 -12.758   1.189 -0.78 +0.00    +0.000 OA
DOCKED: BRANCH  19  21
DOCKED: ATOM     20  O   UNL     1      15.712 -12.354   1.364 -0.83 +0.00    +0.000 OA
DOCKED: ATOM     21  C   UNL     1      16.892 -12.013   1.657 -0.36 +0.00    +0.000 C 
DOCKED: ATOM     22  N   UNL     1      17.139 -10.836   2.437 -0.44 +0.00    +0.000 N 
DOCKED: ATOM     23  H   UNL     1      18.069 -10.519   2.509 -0.01 -0.00    +0.000 HD
DOCKED: BRANCH  22  24
DOCKED: ATOM     24  C   UNL     1      16.120 -10.086   3.121 -0.41 +0.00    +0.000 A 
DOCKED: ATOM     25  C   UNL     1      15.991  -8.714   2.868 -0.24 +0.00    +0.000 A 
DOCKED: ATOM     26  C   UNL     1      15.023  -7.958   3.536 -0.32 +0.00    +0.000 A 
DOCKED: ATOM     27  C   UNL     1      14.170  -8.558   4.478 -0.35 +0.00    +0.000 A 
DOCKED: ATOM     28  C   UNL     1      14.325  -9.928   4.756 -0.34 +0.00    +0.000 A 
DOCKED: ATOM     29  C   UNL     1      15.293 -10.684   4.088 -0.45 +0.00    +0.000 A 
DOCKED: BRANCH  27  30
DOCKED: ATOM     30  C   UNL     1      13.151  -7.741   5.181 -0.38 +0.00    +0.000 C 
DOCKED: ATOM     31  N   UNL     1      13.292  -6.322   5.313 -0.33 +0.00    +0.000 N 
DOCKED: ATOM     32  O   UNL     1      12.144  -8.307   5.689 -0.39 +0.00    +0.000 OA
DOCKED: ATOM     33  H   UNL     1      14.113  -5.879   4.998 -0.00 +0.00    +0.000 HD
DOCKED: BRANCH  31  34
DOCKED: ATOM     34  O   UNL     1      12.301  -5.586   5.870 -0.62 +0.00    +0.000 OA
DOCKED: ATOM     35  H   UNL     1      11.609  -6.176   6.207 -0.03 +0.00    +0.000 HD
DOCKED: ENDBRANCH  31  34
DOCKED: ENDBRANCH  27  30
DOCKED: ENDBRANCH  22  24
DOCKED: ENDBRANCH  19  21
DOCKED: ENDBRANCH   1  19
DOCKED: TORSDOF 10
DOCKED: TER
DOCKED: ENDMDL
________________________________________________________________________________


	BEGINNING GENETIC ALGORITHM DOCKING 95 of 100
Run: 95 Seed: 122664414 1382199031 [ Run 95 of 100 GA/GALS ]
Beginning LAMARCKIAN GENETIC ALGORITHM (LGA), with a maximum of 2500000 energy evaluations.

Final-Value: -15.189


	FINAL GENETIC ALGORITHM DOCKED STATE
	_______________________________________________


Detailed state:  trans 18.815 -9.010 -5.184 quatxyzw 0.937486 -0.003716 -0.121199 0.326215 center 1.858 0.218 -0.021 ntor 10 -47.4246 38.3559 26.0442 8.9422 77.4612 154.8575 -100.6285 -59.0289 54.8823 130.8387
State:	 18.815  -9.010  -5.184   0.992 -0.004 -0.128 141.922    -47.42   38.36   26.04    8.94   77.46  154.86 -100.63  -59.03   54.88  130.84

DOCKED: MODEL       95
DOCKED: USER    Run = 95
DOCKED: USER    DPF = ligand_dock.biased.dpf
DOCKED: USER  
DOCKED: USER    Estimated Free Energy of Binding    =   -9.52 kcal/mol  [=(1)+(2)+(3)-(4)]
DOCKED: USER    Estimated Inhibition Constant, Ki   =  105.01 nM (nanomolar)  [Temperature = 298.15 K]
DOCKED: USER    
DOCKED: USER    (1) Final Intermolecular Energy     =  -12.50 kcal/mol
DOCKED: USER        vdW + Hbond + desolv Energy     =  -12.50 kcal/mol
DOCKED: USER        Electrostatic Energy            =   +0.00 kcal/mol
DOCKED: USER    (2) Final Total Internal Energy     =   -2.68 kcal/mol
DOCKED: USER    (3) Torsional Free Energy           =   +2.98 kcal/mol
DOCKED: USER    (4) Unbound System's Energy  [=(2)] =   -2.68 kcal/mol
DOCKED: USER    
DOCKED: USER    
DOCKED: USER    NEWDPF move ligand.pdbqt
DOCKED: USER    NEWDPF about 1.858000 0.218000 -0.021000
DOCKED: USER    NEWDPF tran0 18.814866 -9.010258 -5.184402
DOCKED: USER    NEWDPF quaternion0 0.937486 -0.003716 -0.121199 0.326215
DOCKED: USER    NEWDPF axisangle0 0.991739 -0.003931 -0.128212 141.921574
DOCKED: USER    NEWDPF quat0 0.991739 -0.003931 -0.128212 141.921574
DOCKED: USER    NEWDPF dihe0 -47.42 38.36 26.04 8.94 77.46 154.86 -100.63 -59.03 54.88 130.84 
DOCKED: USER  keepresnum = 1 
DOCKED: USER  
DOCKED: REMARK  Name = 
DOCKED: REMARK  12 active torsions:
DOCKED: REMARK  status: ('A' for Active; 'I' for Inactive)
DOCKED: REMARK    1  A    between atoms: C_2  and  O_3
DOCKED: REMARK    2  A    between atoms: O_3  and  C_4
DOCKED: REMARK    3  A    between atoms: C_4  and  C_5
DOCKED: REMARK    4  A    between atoms: C_10  and  C_11
DOCKED: REMARK    5  A    between atoms: C_11  and  N_12
DOCKED: REMARK    6  A    between atoms: N_12  and  C_13
DOCKED: REMARK    7  A    between atoms: N_12  and  C_15
DOCKED: REMARK    8  A    between atoms: C_13  and  C_14
DOCKED: REMARK    9  A    between atoms: C_15  and  C_16
DOCKED: REMARK   10  A    between atoms: N_21  and  C_22
DOCKED: REMARK   11  A    between atoms: C_25  and  C_26
DOCKED: REMARK   12  A    between atoms: N_27  and  O_28
DOCKED: REMARK                            x       y       z     vdW  Elec       q    Type
DOCKED: REMARK                         _______ _______ _______ _____ _____    ______ ____
DOCKED: USER                              x       y       z     vdW  Elec       q    Type
DOCKED: USER                           _______ _______ _______ _____ _____    ______ ____
DOCKED: ROOT
DOCKED: ATOM      1  C   UNL     1      18.382  -7.585  -5.883 -0.12 -0.00    +0.000 C 
DOCKED: ENDROOT
DOCKED: BRANCH   1   2
DOCKED: ATOM      2  C   UNL     1      17.147  -7.922  -5.100 -0.12 -0.00    +0.000 A 
DOCKED: ATOM      3  C   UNL     1      16.273  -6.904  -4.688 -0.07 -0.00    +0.000 A 
DOCKED: ATOM      4  C   UNL     1      15.140  -7.207  -3.928 -0.10 -0.00    +0.000 A 
DOCKED: ATOM      5  C   UNL     1      14.874  -8.533  -3.558 -0.15 -0.00    +0.000 A 
DOCKED: ATOM      6  C   UNL     1      13.739  -8.847  -2.793 -0.16 -0.00    +0.000 A 
DOCKED: ATOM      7  C   UNL     1      13.480 -10.176  -2.421 -0.23 -0.00    +0.000 A 
DOCKED: ATOM      8  C   UNL     1      14.362 -11.192  -2.821 -0.29 -0.00    +0.000 A 
DOCKED: ATOM      9  C   UNL     1      15.494 -10.888  -3.581 -0.14 -0.00    +0.000 A 
DOCKED: ATOM     10  C   UNL     1      15.759  -9.563  -3.955 -0.19 -0.00    +0.000 A 
DOCKED: ATOM     11  C   UNL     1      16.893  -9.249  -4.719 -0.17 -0.00    +0.000 A 
DOCKED: BRANCH   7  12
DOCKED: ATOM     12  C   UNL     1      12.254 -10.524  -1.617 -0.23 -0.00    +0.000 C 
DOCKED: BRANCH  12  13
DOCKED: ATOM     13  N   UNL     1      12.580 -10.541  -0.175 -0.25 +0.00    +0.000 N 
DOCKED: ATOM     14  H   UNL     1      13.152  -9.723   0.030 +0.01 +0.00    +0.000 HD
DOCKED: BRANCH  13  15
DOCKED: ATOM     15  C   UNL     1      13.417 -11.713   0.176 -0.42 +0.00    +0.000 C 
DOCKED: ATOM     16  C   UNL     1      14.775 -11.296   0.739 -0.39 +0.00    +0.000 C 
DOCKED: ENDBRANCH  13  15
DOCKED: BRANCH  13  17
DOCKED: ATOM     17  C   UNL     1      11.372 -10.382   0.672 -0.27 +0.00    +0.000 C 
DOCKED: ATOM     18  C   UNL     1      10.903 -11.677   1.353 -0.43 +0.00    +0.000 C 
DOCKED: ENDBRANCH  13  17
DOCKED: ENDBRANCH  12  13
DOCKED: ENDBRANCH   7  12
DOCKED: ENDBRANCH   1   2
DOCKED: BRANCH   1  19
DOCKED: ATOM     19  O   UNL     1      19.431  -8.472  -5.509 -0.15 -0.00    +0.000 OA
DOCKED: BRANCH  19  21
DOCKED: ATOM     20  O   UNL     1      20.141  -7.784  -3.425 -0.30 -0.00    +0.000 OA
DOCKED: ATOM     21  C   UNL     1      19.765  -8.726  -4.177 -0.27 -0.00    +0.000 C 
DOCKED: ATOM     22  N   UNL     1      19.718 -10.073  -3.690 -0.33 -0.00    +0.000 N 
DOCKED: ATOM     23  H   UNL     1      19.575 -10.794  -4.346 -0.01 -0.00    +0.000 HD
DOCKED: BRANCH  22  24
DOCKED: ATOM     24  C   UNL     1      19.866 -10.444  -2.309 -0.42 -0.00    +0.000 A 
DOCKED: ATOM     25  C   UNL     1      18.766 -10.966  -1.616 -0.37 -0.00    +0.000 A 
DOCKED: ATOM     26  C   UNL     1      18.876 -11.314  -0.267 -0.46 -0.00    +0.000 A 
DOCKED: ATOM     27  C   UNL     1      20.089 -11.138   0.420 -0.59 -0.00    +0.000 A 
DOCKED: ATOM     28  C   UNL     1      21.183 -10.580  -0.267 -0.62 -0.00    +0.000 A 
DOCKED: ATOM     29  C   UNL     1      21.072 -10.233  -1.617 -0.56 -0.00    +0.000 A 
DOCKED: BRANCH  27  30
DOCKED: ATOM     30  C   UNL     1      20.191 -11.507   1.853 -0.77 -0.00    +0.000 C 
DOCKED: ATOM     31  N   UNL     1      20.636 -10.567   2.838 -0.62 -0.00    +0.000 N 
DOCKED: ATOM     32  O   UNL     1      19.893 -12.678   2.216 -1.51 -0.00    +0.000 OA
DOCKED: ATOM     33  H   UNL     1      20.953  -9.677   2.558 -0.57 -0.00    +0.000 HD
DOCKED: BRANCH  31  34
DOCKED: ATOM     34  O   UNL     1      20.624 -10.895   4.152 -0.78 -0.00    +0.000 OA
DOCKED: ATOM     35  H   UNL     1      20.694 -11.858   4.245 -0.47 -0.00    +0.000 HD
DOCKED: ENDBRANCH  31  34
DOCKED: ENDBRANCH  27  30
DOCKED: ENDBRANCH  22  24
DOCKED: ENDBRANCH  19  21
DOCKED: ENDBRANCH   1  19
DOCKED: TORSDOF 10
DOCKED: TER
DOCKED: ENDMDL
________________________________________________________________________________


	BEGINNING GENETIC ALGORITHM DOCKING 96 of 100
Run: 96 Seed: 1227467494 737817523 [ Run 96 of 100 GA/GALS ]
Beginning LAMARCKIAN GENETIC ALGORITHM (LGA), with a maximum of 2500000 energy evaluations.

Final-Value: -15.619


	FINAL GENETIC ALGORITHM DOCKED STATE
	_______________________________________________


Detailed state:  trans 14.367 -10.702 -3.143 quatxyzw -0.773102 0.090571 0.616223 0.119916 center 1.858 0.218 -0.021 ntor 10 -130.4166 -143.8491 11.2166 -168.1102 69.1266 179.5358 -25.1645 -115.9245 -10.6268 -176.2640
State:	 14.367 -10.702  -3.143  -0.779  0.091  0.621 166.225   -130.42 -143.85   11.22 -168.11   69.13  179.54  -25.16 -115.92  -10.63 -176.26

DOCKED: MODEL       96
DOCKED: USER    Run = 96
DOCKED: USER    DPF = ligand_dock.biased.dpf
DOCKED: USER  
DOCKED: USER    Estimated Free Energy of Binding    =   -9.22 kcal/mol  [=(1)+(2)+(3)-(4)]
DOCKED: USER    Estimated Inhibition Constant, Ki   =  173.78 nM (nanomolar)  [Temperature = 298.15 K]
DOCKED: USER    
DOCKED: USER    (1) Final Intermolecular Energy     =  -12.21 kcal/mol
DOCKED: USER        vdW + Hbond + desolv Energy     =  -12.21 kcal/mol
DOCKED: USER        Electrostatic Energy            =   +0.00 kcal/mol
DOCKED: USER    (2) Final Total Internal Energy     =   -3.41 kcal/mol
DOCKED: USER    (3) Torsional Free Energy           =   +2.98 kcal/mol
DOCKED: USER    (4) Unbound System's Energy  [=(2)] =   -3.41 kcal/mol
DOCKED: USER    
DOCKED: USER    
DOCKED: USER    NEWDPF move ligand.pdbqt
DOCKED: USER    NEWDPF about 1.858000 0.218000 -0.021000
DOCKED: USER    NEWDPF tran0 14.367254 -10.702404 -3.143436
DOCKED: USER    NEWDPF quaternion0 -0.773102 0.090571 0.616223 0.119916
DOCKED: USER    NEWDPF axisangle0 -0.778721 0.091229 0.620702 166.225502
DOCKED: USER    NEWDPF quat0 -0.778721 0.091229 0.620702 166.225502
DOCKED: USER    NEWDPF dihe0 -130.42 -143.85 11.22 -168.11 69.13 179.54 -25.16 -115.92 -10.63 -176.26 
DOCKED: USER  keepresnum = 1 
DOCKED: USER  
DOCKED: REMARK  Name = 
DOCKED: REMARK  12 active torsions:
DOCKED: REMARK  status: ('A' for Active; 'I' for Inactive)
DOCKED: REMARK    1  A    between atoms: C_2  and  O_3
DOCKED: REMARK    2  A    between atoms: O_3  and  C_4
DOCKED: REMARK    3  A    between atoms: C_4  and  C_5
DOCKED: REMARK    4  A    between atoms: C_10  and  C_11
DOCKED: REMARK    5  A    between atoms: C_11  and  N_12
DOCKED: REMARK    6  A    between atoms: N_12  and  C_13
DOCKED: REMARK    7  A    between atoms: N_12  and  C_15
DOCKED: REMARK    8  A    between atoms: C_13  and  C_14
DOCKED: REMARK    9  A    between atoms: C_15  and  C_16
DOCKED: REMARK   10  A    between atoms: N_21  and  C_22
DOCKED: REMARK   11  A    between atoms: C_25  and  C_26
DOCKED: REMARK   12  A    between atoms: N_27  and  O_28
DOCKED: REMARK                            x       y       z     vdW  Elec       q    Type
DOCKED: REMARK                         _______ _______ _______ _____ _____    ______ ____
DOCKED: USER                              x       y       z     vdW  Elec       q    Type
DOCKED: USER                           _______ _______ _______ _____ _____    ______ ____
DOCKED: ROOT
DOCKED: ATOM      1  C   UNL     1      12.865 -10.140  -3.510 -0.16 -0.00    +0.000 C 
DOCKED: ENDROOT
DOCKED: BRANCH   1   2
DOCKED: ATOM      2  C   UNL     1      13.059  -9.595  -2.125 -0.19 -0.00    +0.000 A 
DOCKED: ATOM      3  C   UNL     1      13.649  -8.336  -1.938 -0.16 -0.00    +0.000 A 
DOCKED: ATOM      4  C   UNL     1      13.865  -7.839  -0.650 -0.19 -0.00    +0.000 A 
DOCKED: ATOM      5  C   UNL     1      13.504  -8.603   0.470 -0.16 +0.00    +0.000 A 
DOCKED: ATOM      6  C   UNL     1      13.718  -8.112   1.768 -0.18 +0.00    +0.000 A 
DOCKED: ATOM      7  C   UNL     1      13.359  -8.883   2.885 -0.20 +0.00    +0.000 A 
DOCKED: ATOM      8  C   UNL     1      12.782 -10.148   2.698 -0.17 +0.00    +0.000 A 
DOCKED: ATOM      9  C   UNL     1      12.566 -10.644   1.410 -0.28 +0.00    +0.000 A 
DOCKED: ATOM     10  C   UNL     1      12.923  -9.880   0.290 -0.18 +0.00    +0.000 A 
DOCKED: ATOM     11  C   UNL     1      12.710 -10.370  -1.008 -0.24 +0.00    +0.000 A 
DOCKED: BRANCH   7  12
DOCKED: ATOM     12  C   UNL     1      13.568  -8.356   4.281 -0.33 +0.00    +0.000 C 
DOCKED: BRANCH  12  13
DOCKED: ATOM     13  N   UNL     1      15.013  -8.283   4.586 -0.36 +0.00    +0.000 N 
DOCKED: ATOM     14  H   UNL     1      15.163  -8.695   5.506 +0.01 +0.00    +0.000 HD
DOCKED: BRANCH  13  15
DOCKED: ATOM     15  C   UNL     1      15.473  -6.878   4.697 -0.44 +0.00    +0.000 C 
DOCKED: ATOM     16  C   UNL     1      14.412  -5.979   5.330 -0.45 +0.00    +0.000 C 
DOCKED: ENDBRANCH  13  15
DOCKED: BRANCH  13  17
DOCKED: ATOM     17  C   UNL     1      15.822  -9.115   3.661 -0.40 +0.00    +0.000 C 
DOCKED: ATOM     18  C   UNL     1      15.779 -10.620   3.964 -0.54 +0.00    +0.000 C 
DOCKED: ENDBRANCH  13  17
DOCKED: ENDBRANCH  12  13
DOCKED: ENDBRANCH   7  12
DOCKED: ENDBRANCH   1   2
DOCKED: BRANCH   1  19
DOCKED: ATOM     19  O   UNL     1      14.099 -10.674  -3.981 -0.28 -0.00    +0.000 OA
DOCKED: BRANCH  19  21
DOCKED: ATOM     20  O   UNL     1      16.281 -10.080  -3.522 -0.25 -0.00    +0.000 OA
DOCKED: ATOM     21  C   UNL     1      15.249 -10.727  -3.189 -0.26 -0.00    +0.000 C 
DOCKED: ATOM     22  N   UNL     1      15.254 -11.558  -2.021 -0.26 -0.00    +0.000 N 
DOCKED: ATOM     23  H   UNL     1      14.490 -12.164  -1.885 -0.03 +0.00    +0.000 HD
DOCKED: BRANCH  22  24
DOCKED: ATOM     24  C   UNL     1      16.300 -11.566  -1.035 -0.21 +0.00    +0.000 A 
DOCKED: ATOM     25  C   UNL     1      16.275 -12.527  -0.015 -0.47 +0.00    +0.000 A 
DOCKED: ATOM     26  C   UNL     1      17.268 -12.544   0.969 -0.41 +0.00    +0.000 A 
DOCKED: ATOM     27  C   UNL     1      18.302 -11.592   0.958 -0.48 -0.00    +0.000 A 
DOCKED: ATOM     28  C   UNL     1      18.305 -10.606  -0.045 -0.28 -0.00    +0.000 A 
DOCKED: ATOM     29  C   UNL     1      17.312 -10.591  -1.030 -0.24 -0.00    +0.000 A 
DOCKED: BRANCH  27  30
DOCKED: ATOM     30  C   UNL     1      19.346 -11.619   2.011 -0.70 -0.00    +0.000 C 
DOCKED: ATOM     31  N   UNL     1      19.753 -10.426   2.691 -0.62 -0.00    +0.000 N 
DOCKED: ATOM     32  O   UNL     1      19.900 -12.713   2.309 -1.44 -0.00    +0.000 OA
DOCKED: ATOM     33  H   UNL     1      19.391  -9.554   2.410 -0.37 -0.00    +0.000 HD
DOCKED: BRANCH  31  34
DOCKED: ATOM     34  O   UNL     1      20.634 -10.490   3.718 -0.82 -0.00    +0.000 OA
DOCKED: ATOM     35  H   UNL     1      21.024 -11.377   3.754 -0.49 -0.00    +0.000 HD
DOCKED: ENDBRANCH  31  34
DOCKED: ENDBRANCH  27  30
DOCKED: ENDBRANCH  22  24
DOCKED: ENDBRANCH  19  21
DOCKED: ENDBRANCH   1  19
DOCKED: TORSDOF 10
DOCKED: TER
DOCKED: ENDMDL
________________________________________________________________________________


	BEGINNING GENETIC ALGORITHM DOCKING 97 of 100
Run: 97 Seed: 1282329662 580050877 [ Run 97 of 100 GA/GALS ]
Beginning LAMARCKIAN GENETIC ALGORITHM (LGA), with a maximum of 2500000 energy evaluations.

Final-Value: -15.454


	FINAL GENETIC ALGORITHM DOCKED STATE
	_______________________________________________


Detailed state:  trans 16.211 -11.840 1.946 quatxyzw 0.185615 -0.828388 -0.103544 -0.518266 center 1.858 0.218 -0.021 ntor 10 -88.6969 113.9931 -3.5254 126.1177 159.5272 -47.6457 -141.6978 -124.4196 -53.9190 -103.0878
State:	 16.211 -11.840   1.946   0.217 -0.969 -0.121 -117.568    -88.70  113.99   -3.53  126.12  159.53  -47.65 -141.70 -124.42  -53.92 -103.09

DOCKED: MODEL       97
DOCKED: USER    Run = 97
DOCKED: USER    DPF = ligand_dock.biased.dpf
DOCKED: USER  
DOCKED: USER    Estimated Free Energy of Binding    =  -10.18 kcal/mol  [=(1)+(2)+(3)-(4)]
DOCKED: USER    Estimated Inhibition Constant, Ki   =   34.79 nM (nanomolar)  [Temperature = 298.15 K]
DOCKED: USER    
DOCKED: USER    (1) Final Intermolecular Energy     =  -13.16 kcal/mol
DOCKED: USER        vdW + Hbond + desolv Energy     =  -13.16 kcal/mol
DOCKED: USER        Electrostatic Energy            =   +0.00 kcal/mol
DOCKED: USER    (2) Final Total Internal Energy     =   -2.30 kcal/mol
DOCKED: USER    (3) Torsional Free Energy           =   +2.98 kcal/mol
DOCKED: USER    (4) Unbound System's Energy  [=(2)] =   -2.30 kcal/mol
DOCKED: USER    
DOCKED: USER    
DOCKED: USER    NEWDPF move ligand.pdbqt
DOCKED: USER    NEWDPF about 1.858000 0.218000 -0.021000
DOCKED: USER    NEWDPF tran0 16.211223 -11.840301 1.946477
DOCKED: USER    NEWDPF quaternion0 0.185615 -0.828388 -0.103544 -0.518266
DOCKED: USER    NEWDPF axisangle0 0.217038 -0.968626 -0.121073 -117.568040
DOCKED: USER    NEWDPF quat0 0.217038 -0.968626 -0.121073 -117.568040
DOCKED: USER    NEWDPF dihe0 -88.70 113.99 -3.53 126.12 159.53 -47.65 -141.70 -124.42 -53.92 -103.09 
DOCKED: USER  keepresnum = 1 
DOCKED: USER  
DOCKED: REMARK  Name = 
DOCKED: REMARK  12 active torsions:
DOCKED: REMARK  status: ('A' for Active; 'I' for Inactive)
DOCKED: REMARK    1  A    between atoms: C_2  and  O_3
DOCKED: REMARK    2  A    between atoms: O_3  and  C_4
DOCKED: REMARK    3  A    between atoms: C_4  and  C_5
DOCKED: REMARK    4  A    between atoms: C_10  and  C_11
DOCKED: REMARK    5  A    between atoms: C_11  and  N_12
DOCKED: REMARK    6  A    between atoms: N_12  and  C_13
DOCKED: REMARK    7  A    between atoms: N_12  and  C_15
DOCKED: REMARK    8  A    between atoms: C_13  and  C_14
DOCKED: REMARK    9  A    between atoms: C_15  and  C_16
DOCKED: REMARK   10  A    between atoms: N_21  and  C_22
DOCKED: REMARK   11  A    between atoms: C_25  and  C_26
DOCKED: REMARK   12  A    between atoms: N_27  and  O_28
DOCKED: REMARK                            x       y       z     vdW  Elec       q    Type
DOCKED: REMARK                         _______ _______ _______ _____ _____    ______ ____
DOCKED: USER                              x       y       z     vdW  Elec       q    Type
DOCKED: USER                           _______ _______ _______ _____ _____    ______ ____
DOCKED: ROOT
DOCKED: ATOM      1  C   UNL     1      15.059 -12.405   0.916 -0.49 +0.00    +0.000 C 
DOCKED: ENDROOT
DOCKED: BRANCH   1   2
DOCKED: ATOM      2  C   UNL     1      16.101 -11.909  -0.043 -0.40 +0.00    +0.000 A 
DOCKED: ATOM      3  C   UNL     1      17.453 -12.227   0.157 -0.47 +0.00    +0.000 A 
DOCKED: ATOM      4  C   UNL     1      18.432 -11.740  -0.712 -0.41 -0.00    +0.000 A 
DOCKED: ATOM      5  C   UNL     1      18.073 -10.914  -1.787 -0.25 -0.00    +0.000 A 
DOCKED: ATOM      6  C   UNL     1      19.050 -10.418  -2.665 -0.34 -0.00    +0.000 A 
DOCKED: ATOM      7  C   UNL     1      18.685  -9.588  -3.737 -0.24 -0.00    +0.000 A 
DOCKED: ATOM      8  C   UNL     1      17.334  -9.258  -3.928 -0.19 -0.00    +0.000 A 
DOCKED: ATOM      9  C   UNL     1      16.356  -9.746  -3.059 -0.21 -0.00    +0.000 A 
DOCKED: ATOM     10  C   UNL     1      16.714 -10.575  -1.986 -0.21 -0.00    +0.000 A 
DOCKED: ATOM     11  C   UNL     1      15.738 -11.070  -1.108 -0.29 -0.00    +0.000 A 
DOCKED: BRANCH   7  12
DOCKED: ATOM     12  C   UNL     1      19.724  -9.067  -4.694 -0.25 -0.00    +0.000 C 
DOCKED: BRANCH  12  13
DOCKED: ATOM     13  N   UNL     1      20.352 -10.189  -5.423 -0.28 -0.00    +0.000 N 
DOCKED: ATOM     14  H   UNL     1      20.802  -9.813  -6.257 +0.00 -0.00    +0.000 HD
DOCKED: BRANCH  13  15
DOCKED: ATOM     15  C   UNL     1      19.336 -11.150  -5.915 -0.40 -0.00    +0.000 C 
DOCKED: ATOM     16  C   UNL     1      18.622 -10.636  -7.165 -0.31 -0.00    +0.000 C 
DOCKED: ENDBRANCH  13  15
DOCKED: BRANCH  13  17
DOCKED: ATOM     17  C   UNL     1      21.452 -10.814  -4.647 -0.52 -0.00    +0.000 C 
DOCKED: ATOM     18  C   UNL     1      22.153 -11.975  -5.367 -0.55 -0.00    +0.000 C 
DOCKED: ENDBRANCH  13  17
DOCKED: ENDBRANCH  12  13
DOCKED: ENDBRANCH   7  12
DOCKED: ENDBRANCH   1   2
DOCKED: BRANCH   1  19
DOCKED: ATOM     19  O   UNL     1      15.595 -12.397   2.236 -0.63 +0.00    +0.000 OA
DOCKED: BRANCH  19  21
DOCKED: ATOM     20  O   UNL     1      16.857 -10.916   3.476 -0.56 +0.00    +0.000 OA
DOCKED: ATOM     21  C   UNL     1      15.735 -11.227   2.986 -0.53 +0.00    +0.000 C 
DOCKED: ATOM     22  N   UNL     1      14.582 -10.411   3.228 -0.38 +0.00    +0.000 N 
DOCKED: ATOM     23  H   UNL     1      13.703 -10.768   2.965 -0.02 +0.00    +0.000 HD
DOCKED: BRANCH  22  24
DOCKED: ATOM     24  C   UNL     1      14.622  -9.106   3.828 -0.34 +0.00    +0.000 A 
DOCKED: ATOM     25  C   UNL     1      15.161  -8.033   3.105 -0.29 +0.00    +0.000 A 
DOCKED: ATOM     26  C   UNL     1      15.232  -6.758   3.673 -0.19 +0.00    +0.000 A 
DOCKED: ATOM     27  C   UNL     1      14.773  -6.531   4.982 -0.40 +0.00    +0.000 A 
DOCKED: ATOM     28  C   UNL     1      14.266  -7.616   5.720 -0.41 +0.00    +0.000 A 
DOCKED: ATOM     29  C   UNL     1      14.195  -8.891   5.150 -0.41 +0.00    +0.000 A 
DOCKED: BRANCH  27  30
DOCKED: ATOM     30  C   UNL     1      14.859  -5.174   5.573 -0.46 +0.00    +0.000 C 
DOCKED: ATOM     31  N   UNL     1      16.029  -4.362   5.414 -0.52 -0.00    +0.000 N 
DOCKED: ATOM     32  O   UNL     1      13.889  -4.725   6.243 -0.85 +0.00    +0.000 OA
DOCKED: ATOM     33  H   UNL     1      16.825  -4.731   4.967 -0.56 -0.00    +0.000 HD
DOCKED: BRANCH  31  34
DOCKED: ATOM     34  O   UNL     1      16.046  -3.089   5.876 -0.60 -0.00    +0.000 OA
DOCKED: ATOM     35  H   UNL     1      15.173  -2.864   6.235 -0.19 +0.00    +0.000 HD
DOCKED: ENDBRANCH  31  34
DOCKED: ENDBRANCH  27  30
DOCKED: ENDBRANCH  22  24
DOCKED: ENDBRANCH  19  21
DOCKED: ENDBRANCH   1  19
DOCKED: TORSDOF 10
DOCKED: TER
DOCKED: ENDMDL
________________________________________________________________________________


	BEGINNING GENETIC ALGORITHM DOCKING 98 of 100
Run: 98 Seed: 1471576303 406876170 [ Run 98 of 100 GA/GALS ]
Beginning LAMARCKIAN GENETIC ALGORITHM (LGA), with a maximum of 2500000 energy evaluations.

Final-Value: -15.827


	FINAL GENETIC ALGORITHM DOCKED STATE
	_______________________________________________


Detailed state:  trans 20.075 -10.347 -5.509 quatxyzw 0.975296 -0.033635 -0.142605 -0.165320 center 1.858 0.218 -0.021 ntor 10 2.7838 -178.1266 28.5368 155.9673 -110.3238 162.7329 -131.6232 104.2063 -12.6149 -140.8607
State:	 20.075 -10.347  -5.509   0.989 -0.034 -0.145 -160.968      2.78 -178.13   28.54  155.97 -110.32  162.73 -131.62  104.21  -12.61 -140.86

DOCKED: MODEL       98
DOCKED: USER    Run = 98
DOCKED: USER    DPF = ligand_dock.biased.dpf
DOCKED: USER  
DOCKED: USER    Estimated Free Energy of Binding    =  -10.02 kcal/mol  [=(1)+(2)+(3)-(4)]
DOCKED: USER    Estimated Inhibition Constant, Ki   =   45.47 nM (nanomolar)  [Temperature = 298.15 K]
DOCKED: USER    
DOCKED: USER    (1) Final Intermolecular Energy     =  -13.00 kcal/mol
DOCKED: USER        vdW + Hbond + desolv Energy     =  -13.00 kcal/mol
DOCKED: USER        Electrostatic Energy            =   +0.00 kcal/mol
DOCKED: USER    (2) Final Total Internal Energy     =   -2.83 kcal/mol
DOCKED: USER    (3) Torsional Free Energy           =   +2.98 kcal/mol
DOCKED: USER    (4) Unbound System's Energy  [=(2)] =   -2.83 kcal/mol
DOCKED: USER    
DOCKED: USER    
DOCKED: USER    NEWDPF move ligand.pdbqt
DOCKED: USER    NEWDPF about 1.858000 0.218000 -0.021000
DOCKED: USER    NEWDPF tran0 20.075179 -10.347166 -5.509189
DOCKED: USER    NEWDPF quaternion0 0.975296 -0.033635 -0.142605 -0.165320
DOCKED: USER    NEWDPF axisangle0 0.988903 -0.034104 -0.144595 -160.968304
DOCKED: USER    NEWDPF quat0 0.988903 -0.034104 -0.144595 -160.968304
DOCKED: USER    NEWDPF dihe0 2.78 -178.13 28.54 155.97 -110.32 162.73 -131.62 104.21 -12.61 -140.86 
DOCKED: USER  keepresnum = 1 
DOCKED: USER  
DOCKED: REMARK  Name = 
DOCKED: REMARK  12 active torsions:
DOCKED: REMARK  status: ('A' for Active; 'I' for Inactive)
DOCKED: REMARK    1  A    between atoms: C_2  and  O_3
DOCKED: REMARK    2  A    between atoms: O_3  and  C_4
DOCKED: REMARK    3  A    between atoms: C_4  and  C_5
DOCKED: REMARK    4  A    between atoms: C_10  and  C_11
DOCKED: REMARK    5  A    between atoms: C_11  and  N_12
DOCKED: REMARK    6  A    between atoms: N_12  and  C_13
DOCKED: REMARK    7  A    between atoms: N_12  and  C_15
DOCKED: REMARK    8  A    between atoms: C_13  and  C_14
DOCKED: REMARK    9  A    between atoms: C_15  and  C_16
DOCKED: REMARK   10  A    between atoms: N_21  and  C_22
DOCKED: REMARK   11  A    between atoms: C_25  and  C_26
DOCKED: REMARK   12  A    between atoms: N_27  and  O_28
DOCKED: REMARK                            x       y       z     vdW  Elec       q    Type
DOCKED: REMARK                         _______ _______ _______ _____ _____    ______ ____
DOCKED: USER                              x       y       z     vdW  Elec       q    Type
DOCKED: USER                           _______ _______ _______ _____ _____    ______ ____
DOCKED: ROOT
DOCKED: ATOM      1  C   UNL     1      19.503 -10.178  -7.043 -0.27 -0.00    +0.000 C 
DOCKED: ENDROOT
DOCKED: BRANCH   1   2
DOCKED: ATOM      2  C   UNL     1      18.313  -9.756  -6.231 -0.18 -0.00    +0.000 A 
DOCKED: ATOM      3  C   UNL     1      18.173  -8.420  -5.826 -0.12 -0.00    +0.000 A 
DOCKED: ATOM      4  C   UNL     1      17.087  -8.028  -5.041 -0.13 -0.00    +0.000 A 
DOCKED: ATOM      5  C   UNL     1      16.131  -8.971  -4.637 -0.15 -0.00    +0.000 A 
DOCKED: ATOM      6  C   UNL     1      15.037  -8.586  -3.847 -0.15 -0.00    +0.000 A 
DOCKED: ATOM      7  C   UNL     1      14.085  -9.536  -3.442 -0.18 -0.00    +0.000 A 
DOCKED: ATOM      8  C   UNL     1      14.233 -10.876  -3.835 -0.26 -0.00    +0.000 A 
DOCKED: ATOM      9  C   UNL     1      15.320 -11.267  -4.621 -0.18 -0.00    +0.000 A 
DOCKED: ATOM     10  C   UNL     1      16.273 -10.324  -5.028 -0.21 -0.00    +0.000 A 
DOCKED: ATOM     11  C   UNL     1      17.368 -10.708  -5.817 -0.27 -0.00    +0.000 A 
DOCKED: BRANCH   7  12
DOCKED: ATOM     12  C   UNL     1      12.898  -9.128  -2.610 -0.18 -0.00    +0.000 C 
DOCKED: BRANCH  12  13
DOCKED: ATOM     13  N   UNL     1      13.256  -9.134  -1.175 -0.15 -0.00    +0.000 N 
DOCKED: ATOM     14  H   UNL     1      12.398  -9.039  -0.634 +0.00 -0.00    +0.000 HD
DOCKED: BRANCH  13  15
DOCKED: ATOM     15  C   UNL     1      14.086  -7.959  -0.820 -0.22 -0.00    +0.000 C 
DOCKED: ATOM     16  C   UNL     1      14.238  -7.805   0.693 -0.24 -0.00    +0.000 C 
DOCKED: ENDBRANCH  13  15
DOCKED: BRANCH  13  17
DOCKED: ATOM     17  C   UNL     1      13.831 -10.435  -0.749 -0.28 +0.00    +0.000 C 
DOCKED: ATOM     18  C   UNL     1      12.934 -11.240   0.203 -0.38 +0.00    +0.000 C 
DOCKED: ENDBRANCH  13  17
DOCKED: ENDBRANCH  12  13
DOCKED: ENDBRANCH   7  12
DOCKED: ENDBRANCH   1   2
DOCKED: BRANCH   1  19
DOCKED: ATOM     19  O   UNL     1      20.634 -10.302  -6.187 -0.30 -0.00    +0.000 OA
DOCKED: BRANCH  19  21
DOCKED: ATOM     20  O   UNL     1      20.943 -12.012  -4.669 -0.59 -0.00    +0.000 OA
DOCKED: ATOM     21  C   UNL     1      20.551 -10.834  -4.898 -0.48 -0.00    +0.000 C 
DOCKED: ATOM     22  N   UNL     1      19.975 -10.041  -3.852 -0.33 -0.00    +0.000 N 
DOCKED: ATOM     23  H   UNL     1      19.539  -9.194  -4.104 -0.00 -0.00    +0.000 HD
DOCKED: BRANCH  22  24
DOCKED: ATOM     24  C   UNL     1      19.990 -10.399  -2.459 -0.43 -0.00    +0.000 A 
DOCKED: ATOM     25  C   UNL     1      21.141 -10.153  -1.699 -0.55 -0.00    +0.000 A 
DOCKED: ATOM     26  C   UNL     1      21.190 -10.511  -0.349 -0.63 -0.00    +0.000 A 
DOCKED: ATOM     27  C   UNL     1      20.090 -11.130   0.267 -0.57 -0.00    +0.000 A 
DOCKED: ATOM     28  C   UNL     1      18.948 -11.408  -0.505 -0.44 -0.00    +0.000 A 
DOCKED: ATOM     29  C   UNL     1      18.899 -11.049  -1.856 -0.35 -0.00    +0.000 A 
DOCKED: BRANCH  27  30
DOCKED: ATOM     30  C   UNL     1      20.158 -11.508   1.700 -0.76 -0.00    +0.000 C 
DOCKED: ATOM     31  N   UNL     1      20.644 -10.594   2.691 -0.62 -0.00    +0.000 N 
DOCKED: ATOM     32  O   UNL     1      19.794 -12.661   2.056 -1.55 -0.00    +0.000 OA
DOCKED: ATOM     33  H   UNL     1      21.011  -9.723   2.417 -0.58 -0.00    +0.000 HD
DOCKED: BRANCH  31  34
DOCKED: ATOM     34  O   UNL     1      20.602 -10.925   4.004 -0.79 -0.00    +0.000 OA
DOCKED: ATOM     35  H   UNL     1      20.659 -11.888   4.097 -0.50 -0.00    +0.000 HD
DOCKED: ENDBRANCH  31  34
DOCKED: ENDBRANCH  27  30
DOCKED: ENDBRANCH  22  24
DOCKED: ENDBRANCH  19  21
DOCKED: ENDBRANCH   1  19
DOCKED: TORSDOF 10
DOCKED: TER
DOCKED: ENDMDL
________________________________________________________________________________


	BEGINNING GENETIC ALGORITHM DOCKING 99 of 100
Run: 99 Seed: 739098584 653516781 [ Run 99 of 100 GA/GALS ]
Beginning LAMARCKIAN GENETIC ALGORITHM (LGA), with a maximum of 2500000 energy evaluations.

Final-Value: -15.727


	FINAL GENETIC ALGORITHM DOCKED STATE
	_______________________________________________


Detailed state:  trans 20.918 -9.583 -5.503 quatxyzw 0.877384 0.101106 0.309277 -0.352594 center 1.858 0.218 -0.021 ntor 10 -18.4622 -139.8875 35.9179 163.5736 -112.2615 10.9733 -135.6897 44.1092 35.5658 -98.5647
State:	 20.918  -9.583  -5.503   0.938  0.108  0.331 -138.708    -18.46 -139.89   35.92  163.57 -112.26   10.97 -135.69   44.11   35.57  -98.56

DOCKED: MODEL       99
DOCKED: USER    Run = 99
DOCKED: USER    DPF = ligand_dock.biased.dpf
DOCKED: USER  
DOCKED: USER    Estimated Free Energy of Binding    =  -10.72 kcal/mol  [=(1)+(2)+(3)-(4)]
DOCKED: USER    Estimated Inhibition Constant, Ki   =   13.96 nM (nanomolar)  [Temperature = 298.15 K]
DOCKED: USER    
DOCKED: USER    (1) Final Intermolecular Energy     =  -13.70 kcal/mol
DOCKED: USER        vdW + Hbond + desolv Energy     =  -13.70 kcal/mol
DOCKED: USER        Electrostatic Energy            =   +0.00 kcal/mol
DOCKED: USER    (2) Final Total Internal Energy     =   -2.03 kcal/mol
DOCKED: USER    (3) Torsional Free Energy           =   +2.98 kcal/mol
DOCKED: USER    (4) Unbound System's Energy  [=(2)] =   -2.03 kcal/mol
DOCKED: USER    
DOCKED: USER    
DOCKED: USER    NEWDPF move ligand.pdbqt
DOCKED: USER    NEWDPF about 1.858000 0.218000 -0.021000
DOCKED: USER    NEWDPF tran0 20.917781 -9.582873 -5.503381
DOCKED: USER    NEWDPF quaternion0 0.877384 0.101106 0.309277 -0.352594
DOCKED: USER    NEWDPF axisangle0 0.937600 0.108045 0.330503 -138.707939
DOCKED: USER    NEWDPF quat0 0.937600 0.108045 0.330503 -138.707939
DOCKED: USER    NEWDPF dihe0 -18.46 -139.89 35.92 163.57 -112.26 10.97 -135.69 44.11 35.57 -98.56 
DOCKED: USER  keepresnum = 1 
DOCKED: USER  
DOCKED: REMARK  Name = 
DOCKED: REMARK  12 active torsions:
DOCKED: REMARK  status: ('A' for Active; 'I' for Inactive)
DOCKED: REMARK    1  A    between atoms: C_2  and  O_3
DOCKED: REMARK    2  A    between atoms: O_3  and  C_4
DOCKED: REMARK    3  A    between atoms: C_4  and  C_5
DOCKED: REMARK    4  A    between atoms: C_10  and  C_11
DOCKED: REMARK    5  A    between atoms: C_11  and  N_12
DOCKED: REMARK    6  A    between atoms: N_12  and  C_13
DOCKED: REMARK    7  A    between atoms: N_12  and  C_15
DOCKED: REMARK    8  A    between atoms: C_13  and  C_14
DOCKED: REMARK    9  A    between atoms: C_15  and  C_16
DOCKED: REMARK   10  A    between atoms: N_21  and  C_22
DOCKED: REMARK   11  A    between atoms: C_25  and  C_26
DOCKED: REMARK   12  A    between atoms: N_27  and  O_28
DOCKED: REMARK                            x       y       z     vdW  Elec       q    Type
DOCKED: REMARK                         _______ _______ _______ _____ _____    ______ ____
DOCKED: USER                              x       y       z     vdW  Elec       q    Type
DOCKED: USER                           _______ _______ _______ _____ _____    ______ ____
DOCKED: ROOT
DOCKED: ATOM      1  C   UNL     1      21.742  -9.998  -6.866 -0.30 -0.00    +0.000 C 
DOCKED: ENDROOT
DOCKED: BRANCH   1   2
DOCKED: ATOM      2  C   UNL     1      20.320 -10.185  -7.308 -0.23 -0.00    +0.000 A 
DOCKED: ATOM      3  C   UNL     1      19.902  -9.713  -8.561 -0.16 -0.00    +0.000 A 
DOCKED: ATOM      4  C   UNL     1      18.572  -9.851  -8.964 -0.15 -0.00    +0.000 A 
DOCKED: ATOM      5  C   UNL     1      17.636 -10.453  -8.110 -0.22 -0.00    +0.000 A 
DOCKED: ATOM      6  C   UNL     1      16.296 -10.595  -8.505 -0.18 -0.00    +0.000 A 
DOCKED: ATOM      7  C   UNL     1      15.362 -11.193  -7.644 -0.22 -0.00    +0.000 A 
DOCKED: ATOM      8  C   UNL     1      15.777 -11.652  -6.384 -0.28 -0.00    +0.000 A 
DOCKED: ATOM      9  C   UNL     1      17.108 -11.513  -5.983 -0.22 -0.00    +0.000 A 
DOCKED: ATOM     10  C   UNL     1      18.045 -10.916  -6.837 -0.32 -0.00    +0.000 A 
DOCKED: ATOM     11  C   UNL     1      19.384 -10.773  -6.443 -0.31 -0.00    +0.000 A 
DOCKED: BRANCH   7  12
DOCKED: ATOM     12  C   UNL     1      13.927 -11.367  -8.068 -0.17 -0.00    +0.000 C 
DOCKED: BRANCH  12  13
DOCKED: ATOM     13  N   UNL     1      13.549 -12.794  -8.008 -0.25 -0.00    +0.000 N 
DOCKED: ATOM     14  H   UNL     1      12.714 -12.925  -8.579 -0.00 -0.00    +0.000 HD
DOCKED: BRANCH  13  15
DOCKED: ATOM     15  C   UNL     1      13.161 -13.194  -6.635 -0.36 -0.00    +0.000 C 
DOCKED: ATOM     16  C   UNL     1      12.086 -14.280  -6.639 -0.30 -0.00    +0.000 C 
DOCKED: ENDBRANCH  13  15
DOCKED: BRANCH  13  17
DOCKED: ATOM     17  C   UNL     1      14.574 -13.671  -8.628 -0.38 +0.00    +0.000 C 
DOCKED: ATOM     18  C   UNL     1      14.618 -13.602 -10.162 -0.20 +0.00    +0.000 C 
DOCKED: ENDBRANCH  13  17
DOCKED: ENDBRANCH  12  13
DOCKED: ENDBRANCH   7  12
DOCKED: ENDBRANCH   1   2
DOCKED: BRANCH   1  19
DOCKED: ATOM     19  O   UNL     1      21.758  -9.342  -5.602 -0.31 -0.00    +0.000 OA
DOCKED: BRANCH  19  21
DOCKED: ATOM     20  O   UNL     1      22.116 -11.134  -4.194 -0.57 -0.00    +0.000 OA
DOCKED: ATOM     21  C   UNL     1      21.559 -10.019  -4.397 -0.44 -0.00    +0.000 C 
DOCKED: ATOM     22  N   UNL     1      20.680  -9.453  -3.416 -0.39 -0.00    +0.000 N 
DOCKED: ATOM     23  H   UNL     1      20.146  -8.667  -3.676 -0.01 -0.00    +0.000 HD
DOCKED: BRANCH  22  24
DOCKED: ATOM     24  C   UNL     1      20.527  -9.954  -2.077 -0.48 -0.00    +0.000 A 
DOCKED: ATOM     25  C   UNL     1      21.516  -9.678  -1.122 -0.48 -0.00    +0.000 A 
DOCKED: ATOM     26  C   UNL     1      21.403 -10.171   0.180 -0.58 -0.00    +0.000 A 
DOCKED: ATOM     27  C   UNL     1      20.301 -10.960   0.553 -0.61 -0.00    +0.000 A 
DOCKED: ATOM     28  C   UNL     1      19.328 -11.266  -0.415 -0.47 -0.00    +0.000 A 
DOCKED: ATOM     29  C   UNL     1      19.441 -10.771  -1.718 -0.40 -0.00    +0.000 A 
DOCKED: BRANCH  27  30
DOCKED: ATOM     30  C   UNL     1      20.196 -11.480   1.938 -0.77 -0.00    +0.000 C 
DOCKED: ATOM     31  N   UNL     1      20.459 -10.645   3.072 -0.67 -0.00    +0.000 N 
DOCKED: ATOM     32  O   UNL     1      19.883 -12.687   2.127 -1.54 -0.00    +0.000 OA
DOCKED: ATOM     33  H   UNL     1      20.787  -9.726   2.939 -0.59 -0.00    +0.000 HD
DOCKED: BRANCH  31  34
DOCKED: ATOM     34  O   UNL     1      20.259 -11.113   4.327 -0.75 -0.00    +0.000 OA
DOCKED: ATOM     35  H   UNL     1      20.495 -12.053   4.363 -0.39 -0.00    +0.000 HD
DOCKED: ENDBRANCH  31  34
DOCKED: ENDBRANCH  27  30
DOCKED: ENDBRANCH  22  24
DOCKED: ENDBRANCH  19  21
DOCKED: ENDBRANCH   1  19
DOCKED: TORSDOF 10
DOCKED: TER
DOCKED: ENDMDL
________________________________________________________________________________


	BEGINNING GENETIC ALGORITHM DOCKING 100 of 100
Run: 100 Seed: 89932905 598278885 [ Run 100 of 100 GA/GALS ]
Beginning LAMARCKIAN GENETIC ALGORITHM (LGA), with a maximum of 2500000 energy evaluations.

Final-Value: -16.040


	FINAL GENETIC ALGORITHM DOCKED STATE
	_______________________________________________


Detailed state:  trans 19.502 -10.111 1.939 quatxyzw -0.544348 0.438136 -0.608399 0.376262 center 1.858 0.218 -0.021 ntor 10 -81.6828 -153.2914 55.1075 -27.2708 -180.0000 21.1513 59.1569 -152.2454 -12.7890 -105.0123
State:	 19.502 -10.111   1.939  -0.588  0.473 -0.657 135.795    -81.68 -153.29   55.11  -27.27 -180.00   21.15   59.16 -152.25  -12.79 -105.01

DOCKED: MODEL      100
DOCKED: USER    Run = 100
DOCKED: USER    DPF = ligand_dock.biased.dpf
DOCKED: USER  
DOCKED: USER    Estimated Free Energy of Binding    =  -10.88 kcal/mol  [=(1)+(2)+(3)-(4)]
DOCKED: USER    Estimated Inhibition Constant, Ki   =   10.62 nM (nanomolar)  [Temperature = 298.15 K]
DOCKED: USER    
DOCKED: USER    (1) Final Intermolecular Energy     =  -13.86 kcal/mol
DOCKED: USER        vdW + Hbond + desolv Energy     =  -13.86 kcal/mol
DOCKED: USER        Electrostatic Energy            =   +0.00 kcal/mol
DOCKED: USER    (2) Final Total Internal Energy     =   -2.18 kcal/mol
DOCKED: USER    (3) Torsional Free Energy           =   +2.98 kcal/mol
DOCKED: USER    (4) Unbound System's Energy  [=(2)] =   -2.18 kcal/mol
DOCKED: USER    
DOCKED: USER    
DOCKED: USER    NEWDPF move ligand.pdbqt
DOCKED: USER    NEWDPF about 1.858000 0.218000 -0.021000
DOCKED: USER    NEWDPF tran0 19.502283 -10.110545 1.939173
DOCKED: USER    NEWDPF quaternion0 -0.544348 0.438136 -0.608399 0.376262
DOCKED: USER    NEWDPF axisangle0 -0.587523 0.472886 -0.656655 135.795304
DOCKED: USER    NEWDPF quat0 -0.587523 0.472886 -0.656655 135.795304
DOCKED: USER    NEWDPF dihe0 -81.68 -153.29 55.11 -27.27 -180.00 21.15 59.16 -152.25 -12.79 -105.01 
DOCKED: USER  keepresnum = 1 
DOCKED: USER  
DOCKED: REMARK  Name = 
DOCKED: REMARK  12 active torsions:
DOCKED: REMARK  status: ('A' for Active; 'I' for Inactive)
DOCKED: REMARK    1  A    between atoms: C_2  and  O_3
DOCKED: REMARK    2  A    between atoms: O_3  and  C_4
DOCKED: REMARK    3  A    between atoms: C_4  and  C_5
DOCKED: REMARK    4  A    between atoms: C_10  and  C_11
DOCKED: REMARK    5  A    between atoms: C_11  and  N_12
DOCKED: REMARK    6  A    between atoms: N_12  and  C_13
DOCKED: REMARK    7  A    between atoms: N_12  and  C_15
DOCKED: REMARK    8  A    between atoms: C_13  and  C_14
DOCKED: REMARK    9  A    between atoms: C_15  and  C_16
DOCKED: REMARK   10  A    between atoms: N_21  and  C_22
DOCKED: REMARK   11  A    between atoms: C_25  and  C_26
DOCKED: REMARK   12  A    between atoms: N_27  and  O_28
DOCKED: REMARK                            x       y       z     vdW  Elec       q    Type
DOCKED: REMARK                         _______ _______ _______ _____ _____    ______ ____
DOCKED: USER                              x       y       z     vdW  Elec       q    Type
DOCKED: USER                           _______ _______ _______ _____ _____    ______ ____
DOCKED: ROOT
DOCKED: ATOM      1  C   UNL     1      20.636 -11.303   1.900 -0.74 -0.00    +0.000 C 
DOCKED: ENDROOT
DOCKED: BRANCH   1   2
DOCKED: ATOM      2  C   UNL     1      20.737 -10.748   0.509 -0.62 -0.00    +0.000 A 
DOCKED: ATOM      3  C   UNL     1      21.585  -9.663   0.241 -0.42 -0.00    +0.000 A 
DOCKED: ATOM      4  C   UNL     1      21.656  -9.119  -1.044 -0.28 -0.00    +0.000 A 
DOCKED: ATOM      5  C   UNL     1      20.868  -9.646  -2.077 -0.51 -0.00    +0.000 A 
DOCKED: ATOM      6  C   UNL     1      20.932  -9.105  -3.371 -0.39 -0.00    +0.000 A 
DOCKED: ATOM      7  C   UNL     1      20.136  -9.633  -4.400 -0.29 -0.00    +0.000 A 
DOCKED: ATOM      8  C   UNL     1      19.277 -10.710  -4.129 -0.36 -0.00    +0.000 A 
DOCKED: ATOM      9  C   UNL     1      19.207 -11.253  -2.844 -0.27 -0.00    +0.000 A 
DOCKED: ATOM     10  C   UNL     1      19.997 -10.729  -1.812 -0.41 -0.00    +0.000 A 
DOCKED: ATOM     11  C   UNL     1      19.933 -11.269  -0.518 -0.40 -0.00    +0.000 A 
DOCKED: BRANCH   7  12
DOCKED: ATOM     12  C   UNL     1      20.213  -9.071  -5.796 -0.20 -0.00    +0.000 C 
DOCKED: BRANCH  12  13
DOCKED: ATOM     13  N   UNL     1      20.334 -10.168  -6.780 -0.24 -0.00    +0.000 N 
DOCKED: ATOM     14  H   UNL     1      20.204 -11.051  -6.287 -0.07 -0.00    +0.000 HD
DOCKED: BRANCH  13  15
DOCKED: ATOM     15  C   UNL     1      21.697 -10.229  -7.358 -0.29 -0.00    +0.000 C 
DOCKED: ATOM     16  C   UNL     1      22.656 -11.026  -6.475 -0.41 -0.00    +0.000 C 
DOCKED: ENDBRANCH  13  15
DOCKED: BRANCH  13  17
DOCKED: ATOM     17  C   UNL     1      19.247 -10.134  -7.790 -0.24 -0.00    +0.000 C 
DOCKED: ATOM     18  C   UNL     1      17.967 -10.869  -7.366 -0.33 -0.00    +0.000 C 
DOCKED: ENDBRANCH  13  17
DOCKED: ENDBRANCH  12  13
DOCKED: ENDBRANCH   7  12
DOCKED: ENDBRANCH   1   2
DOCKED: BRANCH   1  19
DOCKED: ATOM     19  O   UNL     1      19.819 -10.444   2.689 -0.78 -0.00    +0.000 OA
DOCKED: BRANCH  19  21
DOCKED: ATOM     20  O   UNL     1      17.796  -9.349   2.866 -0.54 -0.00    +0.000 OA
DOCKED: ATOM     21  C   UNL     1      18.429 -10.399   2.563 -0.58 -0.00    +0.000 C 
DOCKED: ATOM     22  N   UNL     1      17.730 -11.572   2.128 -0.42 +0.00    +0.000 N 
DOCKED: ATOM     23  H   UNL     1      18.241 -12.411   2.054 -0.02 +0.00    +0.000 HD
DOCKED: BRANCH  22  24
DOCKED: ATOM     24  C   UNL     1      16.333 -11.607   1.790 -0.39 +0.00    +0.000 A 
DOCKED: ATOM     25  C   UNL     1      15.389 -11.858   2.796 -0.41 +0.00    +0.000 A 
DOCKED: ATOM     26  C   UNL     1      14.026 -11.918   2.491 -0.26 +0.00    +0.000 A 
DOCKED: ATOM     27  C   UNL     1      13.579 -11.737   1.171 -0.39 +0.00    +0.000 A 
DOCKED: ATOM     28  C   UNL     1      14.530 -11.521   0.157 -0.36 +0.00    +0.000 A 
DOCKED: ATOM     29  C   UNL     1      15.893 -11.460   0.463 -0.36 +0.00    +0.000 A 
DOCKED: BRANCH  27  30
DOCKED: ATOM     30  C   UNL     1      12.130 -11.808   0.862 -0.40 +0.00    +0.000 C 
DOCKED: ATOM     31  N   UNL     1      11.218 -12.506   1.718 -0.42 +0.00    +0.000 N 
DOCKED: ATOM     32  O   UNL     1      11.690 -11.256  -0.183 -0.38 +0.00    +0.000 OA
DOCKED: ATOM     33  H   UNL     1      11.559 -13.013   2.490 -0.60 +0.00    +0.000 HD
DOCKED: BRANCH  31  34
DOCKED: ATOM     34  O   UNL     1       9.886 -12.472   1.470 -0.51 +0.00    +0.000 OA
DOCKED: ATOM     35  H   UNL     1       9.718 -12.772   0.563 -0.57 -0.00    +0.000 HD
DOCKED: ENDBRANCH  31  34
DOCKED: ENDBRANCH  27  30
DOCKED: ENDBRANCH  22  24
DOCKED: ENDBRANCH  19  21
DOCKED: ENDBRANCH   1  19
DOCKED: TORSDOF 10
DOCKED: TER
DOCKED: ENDMDL
________________________________________________________________________________

DPF>                           # do this many hybrid GA-LS runs

DPF> analysis                             # perform a ranked cluster analysis


		CLUSTER ANALYSIS OF CONFORMATIONS
		_________________________________

Number of conformations = 100

RMSD cluster analysis will be performed using the ligand atoms only (35 / 35 total atoms).

Outputting structurally similar clusters, ranked in order of increasing energy.


________________________________________________________________________________

Number of distinct conformational clusters found = 27,  out of 100 runs,
Using an rmsd-tolerance of 2.0 A


	CLUSTERING HISTOGRAM
	____________________

________________________________________________________________________________
     |           |     |           |     |                                    
Clus | Lowest    | Run | Mean      | Num | Histogram                          
-ter | Binding   |     | Binding   | in  |                                    
Rank | Energy    |     | Energy    | Clus|    5    10   15   20   25   30   35
_____|___________|_____|___________|_____|____:____|____:____|____:____|____:___
   1 |    -11.72 |  44 |    -10.93 |   9 |#########
   2 |    -11.52 |  68 |    -10.40 |   6 |######
   3 |    -11.35 |   2 |    -10.28 |  12 |############
   4 |    -11.32 |   6 |    -11.32 |   1 |#
   5 |    -11.21 |  10 |    -10.50 |   3 |###
   6 |    -11.11 |  76 |    -10.29 |   7 |#######
   7 |    -10.88 |  60 |    -10.53 |   2 |##
   8 |    -10.83 |  52 |    -10.18 |   8 |########
   9 |    -10.72 |  99 |    -10.16 |   6 |######
  10 |    -10.67 |  20 |    -10.39 |   4 |####
  11 |    -10.59 |  33 |    -10.34 |   4 |####
  12 |    -10.59 |  12 |    -10.29 |   3 |###
  13 |    -10.39 |  61 |     -9.68 |  14 |##############
  14 |    -10.29 |  16 |    -10.13 |   3 |###
  15 |    -10.08 |   1 |     -9.70 |   2 |##
  16 |     -9.76 |  55 |     -9.36 |   2 |##
  17 |     -9.71 |  17 |     -9.56 |   2 |##
  18 |     -9.69 |  37 |     -9.69 |   1 |#
  19 |     -9.62 |   9 |     -9.62 |   1 |#
  20 |     -9.61 |  90 |     -9.61 |   1 |#
  21 |     -9.54 |  19 |     -9.37 |   2 |##
  22 |     -9.54 |  69 |     -9.54 |   1 |#
  23 |     -9.53 |  87 |     -9.53 |   1 |#
  24 |     -9.47 |  74 |     -9.47 |   1 |#
  25 |     -9.39 |  22 |     -9.30 |   2 |##
  26 |     -8.92 |  64 |     -8.92 |   1 |#
  27 |     -8.24 |   5 |     -8.24 |   1 |#
_____|___________|_____|___________|_____|______________________________________


Number of multi-member conformational clusters found = 18, out of 100 runs.

	RMSD TABLE
	__________

_____________________________________________________________________
     |      |      |           |         |                 |
Rank | Sub- | Run  | Binding   | Cluster | Reference       | Grep
     | Rank |      | Energy    | RMSD    | RMSD            | Pattern
_____|______|______|___________|_________|_________________|___________
   1      1     44      -11.72      0.00     14.40           RANKING
   1      2     66      -11.69      0.51     14.30           RANKING
   1      3     11      -11.26      0.62     14.41           RANKING
   1      4     45      -11.12      1.20     14.45           RANKING
   1      5    100      -10.88      1.11     14.58           RANKING
   1      6     21      -10.86      1.69     14.51           RANKING
   1      7     23      -10.68      1.92     14.60           RANKING
   1      8     63      -10.24      0.97     14.05           RANKING
   1      9     71       -9.92      1.43     14.22           RANKING
   2      1     68      -11.52      0.00     18.79           RANKING
   2      2     86      -10.92      1.16     18.26           RANKING
   2      3     39      -10.73      1.50     17.77           RANKING
   2      4     70      -10.20      0.92     18.41           RANKING
   2      5     77      -10.04      1.37     18.19           RANKING
   2      6     72       -9.00      1.60     17.83           RANKING
   3      1      2      -11.35      0.00     13.97           RANKING
   3      2     38      -11.03      1.37     14.35           RANKING
   3      3     93      -10.95      1.30     13.53           RANKING
   3      4     13      -10.52      1.11     13.74           RANKING
   3      5     75      -10.46      1.51     13.34           RANKING
   3      6      7      -10.31      1.83     13.51           RANKING
   3      7     34      -10.31      1.69     13.31           RANKING
   3      8     48      -10.30      1.08     14.38           RANKING
   3      9     29       -9.84      1.69     13.06           RANKING
   3     10      3       -9.75      1.45     14.55           RANKING
   3     11     59       -9.70      1.54     13.66           RANKING
   3     12     78       -8.89      1.35     13.69           RANKING
   4      1      6      -11.32      0.00     14.82           RANKING
   5      1     10      -11.21      0.00     10.90           RANKING
   5      2     27      -10.80      0.61     10.91           RANKING
   5      3     43       -9.50      1.27     10.58           RANKING
   6      1     76      -11.11      0.00     19.13           RANKING
   6      2     36      -10.80      1.72     17.73           RANKING
   6      3     40      -10.71      1.00     18.82           RANKING
   6      4     73      -10.62      1.32     19.12           RANKING
   6      5     80      -10.17      1.63     18.30           RANKING
   6      6     49       -9.75      1.57     19.96           RANKING
   6      7      4       -8.90      1.77     18.21           RANKING
   7      1     60      -10.88      0.00     12.91           RANKING
   7      2     97      -10.18      0.89     12.82           RANKING
   8      1     52      -10.83      0.00     14.67           RANKING
   8      2     62      -10.62      1.09     14.53           RANKING
   8      3     88      -10.52      1.95     13.83           RANKING
   8      4     57      -10.36      1.25     14.48           RANKING
   8      5     54      -10.17      1.47     14.17           RANKING
   8      6     81      -10.15      1.39     14.30           RANKING
   8      7     26       -9.43      1.66     14.15           RANKING
   8      8     51       -9.40      1.61     14.11           RANKING
   9      1     99      -10.72      0.00     15.61           RANKING
   9      2     58      -10.28      1.28     14.89           RANKING
   9      3     82      -10.26      1.06     15.19           RANKING
   9      4     50      -10.11      1.09     15.02           RANKING
   9      5     84       -9.96      1.47     15.08           RANKING
   9      6     35       -9.62      1.54     15.00           RANKING
  10      1     20      -10.67      0.00     14.11           RANKING
  10      2     67      -10.64      1.25     14.17           RANKING
  10      3     56      -10.62      0.83     13.92           RANKING
  10      4     24       -9.64      1.33     13.94           RANKING
  11      1     33      -10.59      0.00     14.60           RANKING
  11      2     15      -10.49      1.39     14.05           RANKING
  11      3     28      -10.36      0.82     14.34           RANKING
  11      4     91       -9.93      1.19     14.08           RANKING
  12      1     12      -10.59      0.00     12.07           RANKING
  12      2     79      -10.44      1.35     12.41           RANKING
  12      3     18       -9.83      1.61     12.70           RANKING
  13      1     61      -10.39      0.00     14.05           RANKING
  13      2     46      -10.24      0.78     14.34           RANKING
  13      3     92      -10.16      1.02     14.17           RANKING
  13      4     30      -10.05      0.86     14.05           RANKING
  13      5     53      -10.04      0.54     13.93           RANKING
  13      6     98      -10.02      0.74     13.75           RANKING
  13      7     42       -9.96      1.59     13.64           RANKING
  13      8     25       -9.58      1.30     14.51           RANKING
  13      9     41       -9.57      1.05     13.92           RANKING
  13     10     95       -9.52      1.60     13.32           RANKING
  13     11     65       -9.15      1.09     14.06           RANKING
  13     12     89       -9.13      1.68     14.31           RANKING
  13     13     31       -8.95      1.48     13.28           RANKING
  13     14     85       -8.76      1.73     14.01           RANKING
  14      1     16      -10.29      0.00     13.77           RANKING
  14      2     83      -10.24      1.76     14.18           RANKING
  14      3     94       -9.88      1.99     13.15           RANKING
  15      1      1      -10.08      0.00     14.15           RANKING
  15      2     14       -9.31      1.61     13.96           RANKING
  16      1     55       -9.76      0.00     17.65           RANKING
  16      2      8       -8.95      1.99     17.42           RANKING
  17      1     17       -9.71      0.00     13.50           RANKING
  17      2     32       -9.42      1.03     13.63           RANKING
  18      1     37       -9.69      0.00     13.16           RANKING
  19      1      9       -9.62      0.00     14.15           RANKING
  20      1     90       -9.61      0.00     13.99           RANKING
  21      1     19       -9.54      0.00     13.57           RANKING
  21      2     47       -9.19      0.99     13.42           RANKING
  22      1     69       -9.54      0.00     17.17           RANKING
  23      1     87       -9.53      0.00     14.22           RANKING
  24      1     74       -9.47      0.00     16.92           RANKING
  25      1     22       -9.39      0.00     11.36           RANKING
  25      2     96       -9.22      1.90     12.31           RANKING
  26      1     64       -8.92      0.00     10.79           RANKING
  27      1      5       -8.24      0.00     14.68           RANKING
_______________________________________________________________________



	INFORMATION ENTROPY ANALYSIS FOR THIS CLUSTERING
	________________________________________________


Information entropy for this clustering = 0.64  (rmstol = 2.00 Angstrom)

_______________________________________________________________________


	STATISTICAL MECHANICAL ANALYSIS
	_______________________________


Partition function, Q =   101.72            at Temperature, T = 298.15 K
Free energy,        A ~ -2738.59 kcal/mol   at Temperature, T = 298.15 K
Internal energy,    U =   -10.12 kcal/mol   at Temperature, T = 298.15 K
Entropy,            S =     9.15 kcal/mol/K at Temperature, T = 298.15 K

_______________________________________________________________________


	LOWEST ENERGY DOCKED CONFORMATION from EACH CLUSTER
	___________________________________________________



Keeping original residue number (specified in the input PDBQ file) for outputting.

MODEL       44
USER    Run = 44
USER    Cluster Rank = 1
USER    Number of conformations in this cluster = 9
USER  
USER    RMSD from reference structure       = 14.403 A
USER  
USER    Estimated Free Energy of Binding    =  -11.72 kcal/mol  [=(1)+(2)+(3)-(4)]
USER    Estimated Inhibition Constant, Ki   =    2.59 nM (nanomolar)  [Temperature = 298.15 K]
USER    
USER    (1) Final Intermolecular Energy     =  -14.70 kcal/mol
USER        vdW + Hbond + desolv Energy     =  -14.70 kcal/mol
USER        Electrostatic Energy            =   +0.00 kcal/mol
USER    (2) Final Total Internal Energy     =   -1.97 kcal/mol
USER    (3) Torsional Free Energy           =   +2.98 kcal/mol
USER    (4) Unbound System's Energy  [=(2)] =   -1.97 kcal/mol
USER    
USER    
USER  
USER    DPF = ligand_dock.biased.dpf
USER    NEWDPF move	ligand.pdbqt
USER    NEWDPF about	1.858000 0.218000 -0.021000
USER    NEWDPF tran0	19.145755 -10.639538 2.929970
USER    NEWDPF axisangle0	-0.682013 0.232873 -0.693273 138.271229
USER    NEWDPF quaternion0	-0.637291 0.217602 -0.647813 0.356157
USER    NEWDPF dihe0	-43.75 -132.56 -179.95 4.25 -109.06 -179.67 -119.49 -81.98 -172.96 -153.11 
USER  
USER                              x       y       z    vdW   Elec        q     RMS 
ATOM      1  C   UNL     1      20.628 -11.344   2.802 -0.67 -0.00    +0.000    14.403
ATOM      2  C   UNL     1      20.264 -11.148   1.359 -0.65 -0.00    +0.000    14.403
ATOM      3  C   UNL     1      19.283 -11.955   0.763 -0.57 -0.00    +0.000    14.403
ATOM      4  C   UNL     1      18.965 -11.801  -0.589 -0.35 -0.00    +0.000    14.403
ATOM      5  C   UNL     1      19.636 -10.847  -1.367 -0.42 -0.00    +0.000    14.403
ATOM      6  C   UNL     1      19.324 -10.687  -2.726 -0.38 -0.00    +0.000    14.403
ATOM      7  C   UNL     1      20.003  -9.733  -3.502 -0.35 -0.00    +0.000    14.403
ATOM      8  C   UNL     1      20.994  -8.936  -2.909 -0.42 -0.00    +0.000    14.403
ATOM      9  C   UNL     1      21.311  -9.090  -1.557 -0.50 -0.00    +0.000    14.403
ATOM     10  C   UNL     1      20.638 -10.041  -0.777 -0.57 -0.00    +0.000    14.403
ATOM     11  C   UNL     1      20.950 -10.202   0.581 -0.59 -0.00    +0.000    14.403
ATOM     12  C   UNL     1      19.661  -9.542  -4.957 -0.27 -0.00    +0.000    14.403
ATOM     13  N   UNL     1      20.069 -10.731  -5.735 -0.34 -0.00    +0.000    14.403
ATOM     14  H   UNL     1      19.860 -11.560  -5.180 -0.06 -0.00    +0.000    14.403
ATOM     15  C   UNL     1      21.534 -10.757  -5.957 -0.44 -0.00    +0.000    14.403
ATOM     16  C   UNL     1      22.171 -12.034  -5.412 -0.55 -0.00    +0.000    14.403
ATOM     17  C   UNL     1      19.264 -10.891  -6.972 -0.33 -0.00    +0.000    14.403
ATOM     18  C   UNL     1      17.779 -11.195  -6.725 -0.37 -0.00    +0.000    14.403
ATOM     19  O   UNL     1      19.691 -10.649   3.620 -0.74 -0.00    +0.000    14.403
ATOM     20  O   UNL     1      18.124  -9.395   2.482 -0.54 -0.00    +0.000    14.403
ATOM     21  C   UNL     1      18.380 -10.391   3.214 -0.31 -0.00    +0.000    14.403
ATOM     22  N   UNL     1      17.326 -11.247   3.674 -0.33 +0.00    +0.000    14.403
ATOM     23  H   UNL     1      17.544 -11.914   4.366 +0.04 +0.00    +0.000    14.403
ATOM     24  C   UNL     1      15.972 -11.199   3.194 -0.44 +0.00    +0.000    14.403
ATOM     25  C   UNL     1      15.588 -12.033   2.135 -0.38 +0.00    +0.000    14.403
ATOM     26  C   UNL     1      14.284 -11.990   1.634 -0.41 +0.00    +0.000    14.403
ATOM     27  C   UNL     1      13.337 -11.105   2.178 -0.33 +0.00    +0.000    14.403
ATOM     28  C   UNL     1      13.734 -10.243   3.217 -0.29 +0.00    +0.000    14.403
ATOM     29  C   UNL     1      15.039 -10.287   3.717 -0.42 +0.00    +0.000    14.403
ATOM     30  C   UNL     1      11.958 -11.067   1.634 -0.34 +0.00    +0.000    14.403
ATOM     31  N   UNL     1      11.205 -12.268   1.423 -0.45 +0.00    +0.000    14.403
ATOM     32  O   UNL     1      11.438  -9.958   1.335 -0.21 +0.00    +0.000    14.403
ATOM     33  H   UNL     1      11.628 -13.145   1.571 -0.58 +0.00    +0.000    14.403
ATOM     34  O   UNL     1       9.913 -12.203   1.022 -0.49 +0.00    +0.000    14.403
ATOM     35  H   UNL     1       9.558 -13.100   0.929 -0.62 -0.00    +0.000    14.403
TER
ENDMDL
MODEL       68
USER    Run = 68
USER    Cluster Rank = 2
USER    Number of conformations in this cluster = 6
USER  
USER    RMSD from reference structure       = 18.789 A
USER  
USER    Estimated Free Energy of Binding    =  -11.52 kcal/mol  [=(1)+(2)+(3)-(4)]
USER    Estimated Inhibition Constant, Ki   =    3.59 nM (nanomolar)  [Temperature = 298.15 K]
USER    
USER    (1) Final Intermolecular Energy     =  -14.50 kcal/mol
USER        vdW + Hbond + desolv Energy     =  -14.50 kcal/mol
USER        Electrostatic Energy            =   +0.00 kcal/mol
USER    (2) Final Total Internal Energy     =   -2.08 kcal/mol
USER    (3) Torsional Free Energy           =   +2.98 kcal/mol
USER    (4) Unbound System's Energy  [=(2)] =   -2.08 kcal/mol
USER    
USER    
USER  
USER    DPF = ligand_dock.biased.dpf
USER    NEWDPF move	ligand.pdbqt
USER    NEWDPF about	1.858000 0.218000 -0.021000
USER    NEWDPF tran0	21.911774 -9.462507 -6.085753
USER    NEWDPF axisangle0	-0.006187 -0.987866 0.155188 -148.424694
USER    NEWDPF quaternion0	-0.005953 -0.950600 0.149333 -0.272073
USER    NEWDPF dihe0	-179.80 162.96 24.54 -116.74 63.01 -46.61 58.89 15.77 45.77 87.33 
USER  
USER                              x       y       z    vdW   Elec        q     RMS 
ATOM      1  C   UNL     1      21.313 -10.527  -7.189 -0.32 -0.00    +0.000    18.789
ATOM      2  C   UNL     1      22.787 -10.612  -7.460 -0.31 -0.00    +0.000    18.789
ATOM      3  C   UNL     1      23.362 -11.829  -7.856 -0.43 -0.00    +0.000    18.789
ATOM      4  C   UNL     1      24.739 -11.924  -8.076 -0.41 -0.00    +0.000    18.789
ATOM      5  C   UNL     1      25.561 -10.804  -7.887 -0.31 -0.00    +0.000    18.789
ATOM      6  C   UNL     1      26.946 -10.891  -8.104 -0.26 -0.00    +0.000    18.789
ATOM      7  C   UNL     1      27.765  -9.767  -7.908 -0.39 -0.00    +0.000    18.789
ATOM      8  C   UNL     1      27.192  -8.554  -7.498 -0.28 -0.00    +0.000    18.789
ATOM      9  C   UNL     1      25.815  -8.460  -7.279 -0.25 -0.00    +0.000    18.789
ATOM     10  C   UNL     1      24.991  -9.578  -7.471 -0.25 -0.00    +0.000    18.789
ATOM     11  C   UNL     1      23.608  -9.492  -7.254 -0.24 -0.00    +0.000    18.789
ATOM     12  C   UNL     1      29.249  -9.846  -8.157 -0.43 -0.00    +0.000    18.789
ATOM     13  N   UNL     1      29.512 -10.103  -9.589 -0.29 -0.00    +0.000    18.789
ATOM     14  H   UNL     1      29.406 -11.103  -9.756 -0.14 -0.00    +0.000    18.789
ATOM     15  C   UNL     1      30.914  -9.783  -9.948 -0.21 -0.00    +0.000    18.789
ATOM     16  C   UNL     1      31.612  -8.974  -8.856 -0.19 -0.00    +0.000    18.789
ATOM     17  C   UNL     1      28.499  -9.462 -10.466 -0.16 -0.00    +0.000    18.789
ATOM     18  C   UNL     1      27.893 -10.400 -11.519 -0.17 -0.00    +0.000    18.789
ATOM     19  O   UNL     1      21.099  -9.785  -5.992 -0.27 -0.00    +0.000    18.789
ATOM     20  O   UNL     1      21.344 -11.591  -4.578 -0.58 -0.00    +0.000    18.789
ATOM     21  C   UNL     1      20.987 -10.391  -4.738 -0.46 -0.00    +0.000    18.789
ATOM     22  N   UNL     1      20.423  -9.646  -3.652 -0.35 -0.00    +0.000    18.789
ATOM     23  H   UNL     1      20.015  -8.773  -3.855 -0.00 -0.00    +0.000    18.789
ATOM     24  C   UNL     1      20.415 -10.086  -2.283 -0.47 -0.00    +0.000    18.789
ATOM     25  C   UNL     1      19.347 -10.868  -1.820 -0.40 -0.00    +0.000    18.789
ATOM     26  C   UNL     1      19.303 -11.292  -0.489 -0.45 -0.00    +0.000    18.789
ATOM     27  C   UNL     1      20.323 -10.935   0.410 -0.60 -0.00    +0.000    18.789
ATOM     28  C   UNL     1      21.375 -10.121  -0.047 -0.62 -0.00    +0.000    18.789
ATOM     29  C   UNL     1      21.419  -9.698  -1.379 -0.53 -0.00    +0.000    18.789
ATOM     30  C   UNL     1      20.260 -11.388   1.821 -0.77 -0.00    +0.000    18.789
ATOM     31  N   UNL     1      20.633 -10.523   2.901 -0.62 -0.00    +0.000    18.789
ATOM     32  O   UNL     1      19.885 -12.564   2.080 -1.62 -0.00    +0.000    18.789
ATOM     33  H   UNL     1      21.008  -9.633   2.709 -0.58 -0.00    +0.000    18.789
ATOM     34  O   UNL     1      20.471 -10.924   4.185 -0.76 -0.00    +0.000    18.789
ATOM     35  H   UNL     1      20.474 -11.893   4.223 -0.37 -0.00    +0.000    18.789
TER
ENDMDL
MODEL        2
USER    Run = 2
USER    Cluster Rank = 3
USER    Number of conformations in this cluster = 12
USER  
USER    RMSD from reference structure       = 13.970 A
USER  
USER    Estimated Free Energy of Binding    =  -11.35 kcal/mol  [=(1)+(2)+(3)-(4)]
USER    Estimated Inhibition Constant, Ki   =    4.82 nM (nanomolar)  [Temperature = 298.15 K]
USER    
USER    (1) Final Intermolecular Energy     =  -14.33 kcal/mol
USER        vdW + Hbond + desolv Energy     =  -14.33 kcal/mol
USER        Electrostatic Energy            =   +0.00 kcal/mol
USER    (2) Final Total Internal Energy     =   -2.06 kcal/mol
USER    (3) Torsional Free Energy           =   +2.98 kcal/mol
USER    (4) Unbound System's Energy  [=(2)] =   -2.06 kcal/mol
USER    
USER    
USER  
USER    DPF = ligand_dock.biased.dpf
USER    NEWDPF move	ligand.pdbqt
USER    NEWDPF about	1.858000 0.218000 -0.021000
USER    NEWDPF tran0	21.810438 -8.529055 -4.878255
USER    NEWDPF axisangle0	0.714534 -0.482043 -0.507026 -162.227223
USER    NEWDPF quaternion0	0.705957 -0.476257 -0.500940 -0.154476
USER    NEWDPF dihe0	-180.00 66.09 53.02 -57.15 -103.63 43.31 -142.28 179.46 -9.78 -111.19 
USER  
USER                              x       y       z    vdW   Elec        q     RMS 
ATOM      1  C   UNL     1      20.862  -7.683  -5.923 -0.15 -0.00    +0.000    13.970
ATOM      2  C   UNL     1      21.301  -6.604  -4.977 -0.17 -0.00    +0.000    13.970
ATOM      3  C   UNL     1      22.470  -5.871  -5.234 -0.15 -0.00    +0.000    13.970
ATOM      4  C   UNL     1      22.903  -4.890  -4.339 -0.15 -0.00    +0.000    13.970
ATOM      5  C   UNL     1      22.179  -4.638  -3.164 -0.23 -0.00    +0.000    13.970
ATOM      6  C   UNL     1      22.608  -3.656  -2.258 -0.25 -0.00    +0.000    13.970
ATOM      7  C   UNL     1      21.882  -3.411  -1.082 -0.30 +0.00    +0.000    13.970
ATOM      8  C   UNL     1      20.720  -4.153  -0.817 -0.40 +0.00    +0.000    13.970
ATOM      9  C   UNL     1      20.288  -5.134  -1.713 -0.19 -0.00    +0.000    13.970
ATOM     10  C   UNL     1      21.009  -5.384  -2.889 -0.31 -0.00    +0.000    13.970
ATOM     11  C   UNL     1      20.582  -6.367  -3.795 -0.24 -0.00    +0.000    13.970
ATOM     12  C   UNL     1      22.324  -2.345  -0.113 -0.32 -0.00    +0.000    13.970
ATOM     13  N   UNL     1      21.168  -1.857   0.669 -0.37 -0.00    +0.000    13.970
ATOM     14  H   UNL     1      20.320  -2.067   0.144 -0.00 -0.00    +0.000    13.970
ATOM     15  C   UNL     1      21.196  -0.382   0.813 -0.27 -0.00    +0.000    13.970
ATOM     16  C   UNL     1      22.552   0.204   0.424 -0.22 -0.00    +0.000    13.970
ATOM     17  C   UNL     1      21.013  -2.590   1.951 -0.51 -0.00    +0.000    13.970
ATOM     18  C   UNL     1      20.788  -1.686   3.171 -0.70 -0.00    +0.000    13.970
ATOM     19  O   UNL     1      21.613  -8.865  -5.667 -0.27 -0.00    +0.000    13.970
ATOM     20  O   UNL     1      22.129 -10.675  -4.331 -0.52 -0.00    +0.000    13.970
ATOM     21  C   UNL     1      21.462  -9.616  -4.498 -0.40 -0.00    +0.000    13.970
ATOM     22  N   UNL     1      20.511  -9.190  -3.514 -0.35 -0.00    +0.000    13.970
ATOM     23  H   UNL     1      19.903  -8.452  -3.751 -0.01 -0.00    +0.000    13.970
ATOM     24  C   UNL     1      20.386  -9.766  -2.202 -0.45 -0.00    +0.000    13.970
ATOM     25  C   UNL     1      21.395  -9.546  -1.255 -0.55 -0.00    +0.000    13.970
ATOM     26  C   UNL     1      21.309 -10.113   0.019 -0.62 -0.00    +0.000    13.970
ATOM     27  C   UNL     1      20.213 -10.920   0.370 -0.59 -0.00    +0.000    13.970
ATOM     28  C   UNL     1      19.219 -11.169  -0.592 -0.45 -0.00    +0.000    13.970
ATOM     29  C   UNL     1      19.305 -10.601  -1.867 -0.39 -0.00    +0.000    13.970
ATOM     30  C   UNL     1      20.137 -11.518   1.726 -0.76 -0.00    +0.000    13.970
ATOM     31  N   UNL     1      20.247 -10.713   2.905 -0.68 -0.00    +0.000    13.970
ATOM     32  O   UNL     1      19.987 -12.764   1.847 -1.51 -0.00    +0.000    13.970
ATOM     33  H   UNL     1      20.449  -9.752   2.826 -0.56 -0.00    +0.000    13.970
ATOM     34  O   UNL     1      20.073 -11.266   4.129 -0.79 -0.00    +0.000    13.970
ATOM     35  H   UNL     1      20.656 -12.035   4.222 -0.50 -0.00    +0.000    13.970
TER
ENDMDL
MODEL        6
USER    Run = 6
USER    Cluster Rank = 4
USER    Number of conformations in this cluster = 1
USER  
USER    RMSD from reference structure       = 14.823 A
USER  
USER    Estimated Free Energy of Binding    =  -11.32 kcal/mol  [=(1)+(2)+(3)-(4)]
USER    Estimated Inhibition Constant, Ki   =    5.05 nM (nanomolar)  [Temperature = 298.15 K]
USER    
USER    (1) Final Intermolecular Energy     =  -14.30 kcal/mol
USER        vdW + Hbond + desolv Energy     =  -14.30 kcal/mol
USER        Electrostatic Energy            =   +0.00 kcal/mol
USER    (2) Final Total Internal Energy     =   -1.79 kcal/mol
USER    (3) Torsional Free Energy           =   +2.98 kcal/mol
USER    (4) Unbound System's Energy  [=(2)] =   -1.79 kcal/mol
USER    
USER    
USER  
USER    DPF = ligand_dock.biased.dpf
USER    NEWDPF move	ligand.pdbqt
USER    NEWDPF about	1.858000 0.218000 -0.021000
USER    NEWDPF tran0	19.738796 -12.076150 0.437696
USER    NEWDPF axisangle0	-0.349060 -0.218158 -0.911353 -135.772788
USER    NEWDPF quaternion0	-0.323383 -0.202110 -0.844313 -0.376444
USER    NEWDPF dihe0	34.12 -134.63 84.25 -37.26 175.42 -39.83 -127.35 168.34 95.46 92.00 
USER  
USER                              x       y       z    vdW   Elec        q     RMS 
ATOM      1  C   UNL     1      19.905 -10.702   1.327 -0.66 -0.00    +0.000    14.823
ATOM      2  C   UNL     1      20.329 -10.231  -0.033 -0.56 -0.00    +0.000    14.823
ATOM      3  C   UNL     1      21.025  -9.021  -0.176 -0.32 -0.00    +0.000    14.823
ATOM      4  C   UNL     1      21.392  -8.559  -1.442 -0.46 -0.00    +0.000    14.823
ATOM      5  C   UNL     1      21.054  -9.296  -2.587 -0.46 -0.00    +0.000    14.823
ATOM      6  C   UNL     1      21.417  -8.840  -3.863 -0.35 -0.00    +0.000    14.823
ATOM      7  C   UNL     1      21.071  -9.579  -5.006 -0.31 -0.00    +0.000    14.823
ATOM      8  C   UNL     1      20.363 -10.783  -4.864 -0.41 -0.00    +0.000    14.823
ATOM      9  C   UNL     1      19.997 -11.244  -3.597 -0.38 -0.00    +0.000    14.823
ATOM     10  C   UNL     1      20.338 -10.509  -2.452 -0.46 -0.00    +0.000    14.823
ATOM     11  C   UNL     1      19.975 -10.965  -1.176 -0.37 -0.00    +0.000    14.823
ATOM     12  C   UNL     1      21.473  -9.106  -6.378 -0.24 -0.00    +0.000    14.823
ATOM     13  N   UNL     1      22.931  -9.269  -6.566 -0.26 -0.00    +0.000    14.823
ATOM     14  H   UNL     1      23.323  -9.634  -5.698 -0.02 -0.00    +0.000    14.823
ATOM     15  C   UNL     1      23.598  -7.964  -6.787 -0.15 -0.00    +0.000    14.823
ATOM     16  C   UNL     1      24.959  -8.127  -7.461 -0.21 -0.00    +0.000    14.823
ATOM     17  C   UNL     1      23.251 -10.296  -7.589 -0.32 -0.00    +0.000    14.823
ATOM     18  C   UNL     1      22.887 -11.731  -7.178 -0.49 -0.00    +0.000    14.823
ATOM     19  O   UNL     1      19.337 -12.003   1.217 -1.28 -0.00    +0.000    14.823
ATOM     20  O   UNL     1      17.568 -13.363   0.627 -0.75 +0.00    +0.000    14.823
ATOM     21  C   UNL     1      17.981 -12.215   0.953 -0.56 -0.00    +0.000    14.823
ATOM     22  N   UNL     1      17.077 -11.105   1.016 -0.37 +0.00    +0.000    14.823
ATOM     23  H   UNL     1      17.462 -10.204   1.118 -0.01 -0.00    +0.000    14.823
ATOM     24  C   UNL     1      15.646 -11.218   0.941 -0.34 +0.00    +0.000    14.823
ATOM     25  C   UNL     1      14.916 -11.489   2.107 -0.43 +0.00    +0.000    14.823
ATOM     26  C   UNL     1      13.526 -11.625   2.058 -0.38 +0.00    +0.000    14.823
ATOM     27  C   UNL     1      12.837 -11.502   0.839 -0.38 +0.00    +0.000    14.823
ATOM     28  C   UNL     1      13.574 -11.265  -0.335 -0.32 +0.00    +0.000    14.823
ATOM     29  C   UNL     1      14.965 -11.128  -0.286 -0.30 +0.00    +0.000    14.823
ATOM     30  C   UNL     1      11.362 -11.653   0.802 -0.42 +0.00    +0.000    14.823
ATOM     31  N   UNL     1      10.669 -12.453   1.768 -0.45 +0.00    +0.000    14.823
ATOM     32  O   UNL     1      10.701 -11.079  -0.105 -0.31 +0.00    +0.000    14.823
ATOM     33  H   UNL     1      11.178 -12.975   2.429 -0.42 +0.00    +0.000    14.823
ATOM     34  O   UNL     1       9.315 -12.495   1.775 -0.50 +0.00    +0.000    14.823
ATOM     35  H   UNL     1       9.008 -13.154   1.133 -0.63 -0.00    +0.000    14.823
TER
ENDMDL
MODEL       10
USER    Run = 10
USER    Cluster Rank = 5
USER    Number of conformations in this cluster = 3
USER  
USER    RMSD from reference structure       = 10.901 A
USER  
USER    Estimated Free Energy of Binding    =  -11.21 kcal/mol  [=(1)+(2)+(3)-(4)]
USER    Estimated Inhibition Constant, Ki   =    6.11 nM (nanomolar)  [Temperature = 298.15 K]
USER    
USER    (1) Final Intermolecular Energy     =  -14.19 kcal/mol
USER        vdW + Hbond + desolv Energy     =  -14.19 kcal/mol
USER        Electrostatic Energy            =   +0.00 kcal/mol
USER    (2) Final Total Internal Energy     =   -2.23 kcal/mol
USER    (3) Torsional Free Energy           =   +2.98 kcal/mol
USER    (4) Unbound System's Energy  [=(2)] =   -2.23 kcal/mol
USER    
USER    
USER  
USER    DPF = ligand_dock.biased.dpf
USER    NEWDPF move	ligand.pdbqt
USER    NEWDPF about	1.858000 0.218000 -0.021000
USER    NEWDPF tran0	13.079435 -7.073336 4.753246
USER    NEWDPF axisangle0	0.144936 -0.333159 -0.931664 -143.631793
USER    NEWDPF quaternion0	0.137697 -0.316521 -0.885136 -0.312071
USER    NEWDPF dihe0	162.99 104.16 -38.05 -28.90 11.33 -41.83 -88.06 66.47 -180.00 -147.70 
USER  
USER                              x       y       z    vdW   Elec        q     RMS 
ATOM      1  C   UNL     1      12.232  -5.863   5.478 -0.26 +0.00    +0.000    10.901
ATOM      2  C   UNL     1      13.489  -5.149   5.076 -0.31 +0.00    +0.000    10.901
ATOM      3  C   UNL     1      14.651  -5.275   5.851 -0.35 +0.00    +0.000    10.901
ATOM      4  C   UNL     1      15.815  -4.584   5.502 -0.41 +0.00    +0.000    10.901
ATOM      5  C   UNL     1      15.826  -3.745   4.379 -0.44 -0.00    +0.000    10.901
ATOM      6  C   UNL     1      16.990  -3.046   4.022 -0.44 -0.00    +0.000    10.901
ATOM      7  C   UNL     1      16.994  -2.204   2.898 -0.41 -0.00    +0.000    10.901
ATOM      8  C   UNL     1      15.827  -2.066   2.131 -0.29 -0.00    +0.000    10.901
ATOM      9  C   UNL     1      14.665  -2.758   2.480 -0.27 -0.00    +0.000    10.901
ATOM     10  C   UNL     1      14.653  -3.600   3.601 -0.30 -0.00    +0.000    10.901
ATOM     11  C   UNL     1      13.490  -4.298   3.959 -0.23 +0.00    +0.000    10.901
ATOM     12  C   UNL     1      18.244  -1.465   2.497 -0.44 -0.00    +0.000    10.901
ATOM     13  N   UNL     1      19.255  -2.415   1.987 -0.44 -0.00    +0.000    10.901
ATOM     14  H   UNL     1      18.824  -3.337   1.932 -0.04 +0.00    +0.000    10.901
ATOM     15  C   UNL     1      20.388  -2.560   2.932 -0.66 -0.00    +0.000    10.901
ATOM     16  C   UNL     1      20.641  -1.275   3.720 -0.65 -0.00    +0.000    10.901
ATOM     17  C   UNL     1      19.662  -2.103   0.594 -0.36 -0.00    +0.000    10.901
ATOM     18  C   UNL     1      20.863  -2.917   0.089 -0.44 +0.00    +0.000    10.901
ATOM     19  O   UNL     1      12.212  -7.153   4.874 -0.26 +0.00    +0.000    10.901
ATOM     20  O   UNL     1      14.081  -8.304   5.582 -0.51 +0.00    +0.000    10.901
ATOM     21  C   UNL     1      13.374  -7.887   4.624 -0.32 +0.00    +0.000    10.901
ATOM     22  N   UNL     1      13.772  -8.121   3.267 -0.21 +0.00    +0.000    10.901
ATOM     23  H   UNL     1      13.282  -7.648   2.556 +0.01 +0.00    +0.000    10.901
ATOM     24  C   UNL     1      14.838  -9.002   2.874 -0.29 +0.00    +0.000    10.901
ATOM     25  C   UNL     1      14.576 -10.036   1.964 -0.27 +0.00    +0.000    10.901
ATOM     26  C   UNL     1      15.589 -10.919   1.582 -0.34 +0.00    +0.000    10.901
ATOM     27  C   UNL     1      16.885 -10.793   2.110 -0.40 +0.00    +0.000    10.901
ATOM     28  C   UNL     1      17.138  -9.777   3.050 -0.34 +0.00    +0.000    10.901
ATOM     29  C   UNL     1      16.124  -8.893   3.431 -0.31 +0.00    +0.000    10.901
ATOM     30  C   UNL     1      17.949 -11.741   1.698 -0.48 +0.00    +0.000    10.901
ATOM     31  N   UNL     1      19.325 -11.505   2.021 -0.59 -0.00    +0.000    10.901
ATOM     32  O   UNL     1      17.643 -12.770   1.038 -0.90 +0.00    +0.000    10.901
ATOM     33  H   UNL     1      19.589 -10.665   2.461 -0.04 -0.00    +0.000    10.901
ATOM     34  O   UNL     1      20.266 -12.434   1.724 -1.67 -0.00    +0.000    10.901
ATOM     35  H   UNL     1      19.904 -13.321   1.877 -0.54 -0.00    +0.000    10.901
TER
ENDMDL
MODEL       76
USER    Run = 76
USER    Cluster Rank = 6
USER    Number of conformations in this cluster = 7
USER  
USER    RMSD from reference structure       = 19.130 A
USER  
USER    Estimated Free Energy of Binding    =  -11.11 kcal/mol  [=(1)+(2)+(3)-(4)]
USER    Estimated Inhibition Constant, Ki   =    7.18 nM (nanomolar)  [Temperature = 298.15 K]
USER    
USER    (1) Final Intermolecular Energy     =  -14.09 kcal/mol
USER        vdW + Hbond + desolv Energy     =  -14.09 kcal/mol
USER        Electrostatic Energy            =   +0.00 kcal/mol
USER    (2) Final Total Internal Energy     =   -1.76 kcal/mol
USER    (3) Torsional Free Energy           =   +2.98 kcal/mol
USER    (4) Unbound System's Energy  [=(2)] =   -1.76 kcal/mol
USER    
USER    
USER  
USER    DPF = ligand_dock.biased.dpf
USER    NEWDPF move	ligand.pdbqt
USER    NEWDPF about	1.858000 0.218000 -0.021000
USER    NEWDPF tran0	21.855293 -10.435997 -6.100571
USER    NEWDPF axisangle0	0.337876 0.486648 0.805614 -178.961940
USER    NEWDPF quaternion0	0.337862 0.486628 0.805581 -0.009059
USER    NEWDPF dihe0	-178.70 164.66 34.23 -64.79 51.39 48.33 37.55 -66.52 104.43 -74.70 
USER  
USER                              x       y       z    vdW   Elec        q     RMS 
ATOM      1  C   UNL     1      22.599  -8.977  -6.257 -0.25 -0.00    +0.000    19.130
ATOM      2  C   UNL     1      23.359  -9.808  -7.249 -0.26 -0.00    +0.000    19.130
ATOM      3  C   UNL     1      24.668  -9.455  -7.611 -0.25 -0.00    +0.000    19.130
ATOM      4  C   UNL     1      25.368 -10.204  -8.560 -0.27 -0.00    +0.000    19.130
ATOM      5  C   UNL     1      24.762 -11.311  -9.171 -0.29 -0.00    +0.000    19.130
ATOM      6  C   UNL     1      25.457 -12.069 -10.126 -0.24 -0.00    +0.000    19.130
ATOM      7  C   UNL     1      24.843 -13.173 -10.739 -0.26 -0.00    +0.000    19.130
ATOM      8  C   UNL     1      23.528 -13.518 -10.388 -0.35 -0.00    +0.000    19.130
ATOM      9  C   UNL     1      22.829 -12.769  -9.439 -0.32 -0.00    +0.000    19.130
ATOM     10  C   UNL     1      23.436 -11.664  -8.824 -0.32 -0.00    +0.000    19.130
ATOM     11  C   UNL     1      22.742 -10.906  -7.869 -0.31 -0.00    +0.000    19.130
ATOM     12  C   UNL     1      25.588 -14.003 -11.751 -0.21 -0.00    +0.000    19.130
ATOM     13  N   UNL     1      24.958 -15.334 -11.881 -0.29 +0.00    +0.000    19.130
ATOM     14  H   UNL     1      24.532 -15.571 -10.986 -0.03 +0.00    +0.000    19.130
ATOM     15  C   UNL     1      25.968 -16.389 -12.135 -0.23 -0.00    +0.000    19.130
ATOM     16  C   UNL     1      27.330 -15.799 -12.498 -0.32 -0.00    +0.000    19.130
ATOM     17  C   UNL     1      23.831 -15.327 -12.848 -0.22 +0.00    +0.000    19.130
ATOM     18  C   UNL     1      22.526 -15.923 -12.301 -0.32 +0.00    +0.000    19.130
ATOM     19  O   UNL     1      21.461  -9.706  -5.809 -0.30 -0.00    +0.000    19.130
ATOM     20  O   UNL     1      22.139 -11.277  -4.262 -0.58 -0.00    +0.000    19.130
ATOM     21  C   UNL     1      21.394 -10.298  -4.546 -0.48 -0.00    +0.000    19.130
ATOM     22  N   UNL     1      20.439  -9.808  -3.596 -0.37 -0.00    +0.000    19.130
ATOM     23  H   UNL     1      19.774  -9.153  -3.909 -0.00 -0.00    +0.000    19.130
ATOM     24  C   UNL     1      20.388 -10.208  -2.216 -0.47 -0.00    +0.000    19.130
ATOM     25  C   UNL     1      19.323 -11.003  -1.770 -0.37 -0.00    +0.000    19.130
ATOM     26  C   UNL     1      19.238 -11.388  -0.429 -0.45 -0.00    +0.000    19.130
ATOM     27  C   UNL     1      20.213 -10.978   0.497 -0.60 -0.00    +0.000    19.130
ATOM     28  C   UNL     1      21.261 -10.151   0.055 -0.61 -0.00    +0.000    19.130
ATOM     29  C   UNL     1      21.346  -9.766  -1.287 -0.57 -0.00    +0.000    19.130
ATOM     30  C   UNL     1      20.107 -11.390   1.918 -0.76 -0.00    +0.000    19.130
ATOM     31  N   UNL     1      20.642 -10.582   2.972 -0.63 -0.00    +0.000    19.130
ATOM     32  O   UNL     1      19.547 -12.483   2.207 -1.49 -0.00    +0.000    19.130
ATOM     33  H   UNL     1      21.156  -9.771   2.756 -0.58 -0.00    +0.000    19.130
ATOM     34  O   UNL     1      20.445 -10.929   4.267 -0.74 -0.00    +0.000    19.130
ATOM     35  H   UNL     1      20.439 -11.896   4.345 -0.34 -0.00    +0.000    19.130
TER
ENDMDL
MODEL       60
USER    Run = 60
USER    Cluster Rank = 7
USER    Number of conformations in this cluster = 2
USER  
USER    RMSD from reference structure       = 12.906 A
USER  
USER    Estimated Free Energy of Binding    =  -10.88 kcal/mol  [=(1)+(2)+(3)-(4)]
USER    Estimated Inhibition Constant, Ki   =   10.58 nM (nanomolar)  [Temperature = 298.15 K]
USER    
USER    (1) Final Intermolecular Energy     =  -13.86 kcal/mol
USER        vdW + Hbond + desolv Energy     =  -13.86 kcal/mol
USER        Electrostatic Energy            =   +0.00 kcal/mol
USER    (2) Final Total Internal Energy     =   -2.15 kcal/mol
USER    (3) Torsional Free Energy           =   +2.98 kcal/mol
USER    (4) Unbound System's Energy  [=(2)] =   -2.15 kcal/mol
USER    
USER    
USER  
USER    DPF = ligand_dock.biased.dpf
USER    NEWDPF move	ligand.pdbqt
USER    NEWDPF about	1.858000 0.218000 -0.021000
USER    NEWDPF tran0	15.746579 -11.822566 2.077509
USER    NEWDPF axisangle0	-0.266890 0.955725 0.123935 119.369411
USER    NEWDPF quaternion0	-0.230395 0.825040 0.106988 0.504758
USER    NEWDPF dihe0	-35.30 76.78 -6.88 54.62 141.29 -167.63 -116.60 -143.35 115.05 -107.47 
USER  
USER                              x       y       z    vdW   Elec        q     RMS 
ATOM      1  C   UNL     1      14.663 -12.403   0.984 -0.47 +0.00    +0.000    12.906
ATOM      2  C   UNL     1      15.691 -11.782   0.085 -0.39 +0.00    +0.000    12.906
ATOM      3  C   UNL     1      15.301 -11.157  -1.109 -0.30 +0.00    +0.000    12.906
ATOM      4  C   UNL     1      16.257 -10.608  -1.967 -0.23 -0.00    +0.000    12.906
ATOM      5  C   UNL     1      17.620 -10.691  -1.650 -0.23 -0.00    +0.000    12.906
ATOM      6  C   UNL     1      18.587 -10.144  -2.507 -0.21 -0.00    +0.000    12.906
ATOM      7  C   UNL     1      19.952 -10.233  -2.186 -0.43 -0.00    +0.000    12.906
ATOM      8  C   UNL     1      20.343 -10.871  -0.999 -0.45 -0.00    +0.000    12.906
ATOM      9  C   UNL     1      19.387 -11.419  -0.141 -0.48 -0.00    +0.000    12.906
ATOM     10  C   UNL     1      18.024 -11.334  -0.456 -0.40 -0.00    +0.000    12.906
ATOM     11  C   UNL     1      17.056 -11.881   0.400 -0.43 +0.00    +0.000    12.906
ATOM     12  C   UNL     1      20.995  -9.632  -3.091 -0.51 -0.00    +0.000    12.906
ATOM     13  N   UNL     1      20.865 -10.187  -4.456 -0.38 -0.00    +0.000    12.906
ATOM     14  H   UNL     1      20.222  -9.593  -4.978 +0.00 -0.00    +0.000    12.906
ATOM     15  C   UNL     1      20.243 -11.532  -4.437 -0.48 -0.00    +0.000    12.906
ATOM     16  C   UNL     1      19.099 -11.645  -5.443 -0.39 -0.00    +0.000    12.906
ATOM     17  C   UNL     1      22.142 -10.119  -5.210 -0.32 -0.00    +0.000    12.906
ATOM     18  C   UNL     1      22.393 -11.319  -6.134 -0.48 -0.00    +0.000    12.906
ATOM     19  O   UNL     1      15.164 -12.436   2.317 -0.60 +0.00    +0.000    12.906
ATOM     20  O   UNL     1      16.251 -11.172   3.911 -0.61 +0.00    +0.000    12.906
ATOM     21  C   UNL     1      15.286 -11.290   3.105 -0.54 +0.00    +0.000    12.906
ATOM     22  N   UNL     1      14.280 -10.273   3.018 -0.34 +0.00    +0.000    12.906
ATOM     23  H   UNL     1      13.468 -10.473   2.499 -0.01 +0.00    +0.000    12.906
ATOM     24  C   UNL     1      14.378  -8.979   3.638 -0.31 +0.00    +0.000    12.906
ATOM     25  C   UNL     1      14.844  -7.891   2.887 -0.28 +0.00    +0.000    12.906
ATOM     26  C   UNL     1      14.969  -6.627   3.471 -0.27 +0.00    +0.000    12.906
ATOM     27  C   UNL     1      14.638  -6.427   4.822 -0.38 +0.00    +0.000    12.906
ATOM     28  C   UNL     1      14.204  -7.527   5.584 -0.42 +0.00    +0.000    12.906
ATOM     29  C   UNL     1      14.079  -8.791   4.999 -0.40 +0.00    +0.000    12.906
ATOM     30  C   UNL     1      14.780  -5.081   5.429 -0.49 +0.00    +0.000    12.906
ATOM     31  N   UNL     1      16.052  -4.426   5.505 -0.51 -0.00    +0.000    12.906
ATOM     32  O   UNL     1      13.764  -4.503   5.903 -0.76 +0.00    +0.000    12.906
ATOM     33  H   UNL     1      16.866  -4.900   5.217 -0.60 -0.00    +0.000    12.906
ATOM     34  O   UNL     1      16.141  -3.157   5.971 -0.62 -0.00    +0.000    12.906
ATOM     35  H   UNL     1      15.249  -2.800   6.107 -0.17 +0.00    +0.000    12.906
TER
ENDMDL
MODEL       52
USER    Run = 52
USER    Cluster Rank = 8
USER    Number of conformations in this cluster = 8
USER  
USER    RMSD from reference structure       = 14.675 A
USER  
USER    Estimated Free Energy of Binding    =  -10.83 kcal/mol  [=(1)+(2)+(3)-(4)]
USER    Estimated Inhibition Constant, Ki   =   11.51 nM (nanomolar)  [Temperature = 298.15 K]
USER    
USER    (1) Final Intermolecular Energy     =  -13.81 kcal/mol
USER        vdW + Hbond + desolv Energy     =  -13.81 kcal/mol
USER        Electrostatic Energy            =   +0.00 kcal/mol
USER    (2) Final Total Internal Energy     =   -1.53 kcal/mol
USER    (3) Torsional Free Energy           =   +2.98 kcal/mol
USER    (4) Unbound System's Energy  [=(2)] =   -1.53 kcal/mol
USER    
USER    
USER  
USER    DPF = ligand_dock.biased.dpf
USER    NEWDPF move	ligand.pdbqt
USER    NEWDPF about	1.858000 0.218000 -0.021000
USER    NEWDPF tran0	20.202643 -9.709317 0.966100
USER    NEWDPF axisangle0	-0.831297 -0.164993 -0.530776 28.468575
USER    NEWDPF quaternion0	-0.204406 -0.040570 -0.130511 0.969298
USER    NEWDPF dihe0	154.93 -125.14 -138.59 -40.16 -171.84 143.92 174.60 -46.81 -41.05 109.27 
USER  
USER                              x       y       z    vdW   Elec        q     RMS 
ATOM      1  C   UNL     1      20.405 -10.911   2.072 -0.71 -0.00    +0.000    14.675
ATOM      2  C   UNL     1      19.011 -11.182   1.587 -0.54 -0.00    +0.000    14.675
ATOM      3  C   UNL     1      18.774 -11.444   0.229 -0.48 -0.00    +0.000    14.675
ATOM      4  C   UNL     1      17.474 -11.662  -0.234 -0.41 -0.00    +0.000    14.675
ATOM      5  C   UNL     1      16.390 -11.607   0.654 -0.39 +0.00    +0.000    14.675
ATOM      6  C   UNL     1      15.081 -11.823   0.197 -0.40 +0.00    +0.000    14.675
ATOM      7  C   UNL     1      13.999 -11.762   1.090 -0.40 +0.00    +0.000    14.675
ATOM      8  C   UNL     1      14.234 -11.487   2.446 -0.41 +0.00    +0.000    14.675
ATOM      9  C   UNL     1      15.534 -11.269   2.909 -0.47 +0.00    +0.000    14.675
ATOM     10  C   UNL     1      16.619 -11.327   2.022 -0.39 +0.00    +0.000    14.675
ATOM     11  C   UNL     1      17.928 -11.111   2.478 -0.43 +0.00    +0.000    14.675
ATOM     12  C   UNL     1      12.593 -12.012   0.612 -0.35 +0.00    +0.000    14.675
ATOM     13  N   UNL     1      11.854 -10.735   0.516 -0.28 +0.00    +0.000    14.675
ATOM     14  H   UNL     1      12.453  -9.995   0.879 +0.00 +0.00    +0.000    14.675
ATOM     15  C   UNL     1      10.652 -10.739   1.383 -0.30 +0.00    +0.000    14.675
ATOM     16  C   UNL     1       9.947 -12.095   1.376 -0.43 +0.00    +0.000    14.675
ATOM     17  C   UNL     1      11.586 -10.350  -0.893 -0.24 -0.00    +0.000    14.675
ATOM     18  C   UNL     1      12.846 -10.199  -1.757 -0.26 -0.00    +0.000    14.675
ATOM     19  O   UNL     1      21.010  -9.931   1.234 -0.55 -0.00    +0.000    14.675
ATOM     20  O   UNL     1      22.060 -11.236  -0.353 -0.57 -0.00    +0.000    14.675
ATOM     21  C   UNL     1      21.394 -10.198  -0.083 -0.71 -0.00    +0.000    14.675
ATOM     22  N   UNL     1      21.059  -9.257  -1.110 -0.57 -0.00    +0.000    14.675
ATOM     23  H   UNL     1      20.681  -8.391  -0.835 -0.04 -0.00    +0.000    14.675
ATOM     24  C   UNL     1      21.239  -9.493  -2.517 -0.47 -0.00    +0.000    14.675
ATOM     25  C   UNL     1      21.214 -10.808  -3.002 -0.38 -0.00    +0.000    14.675
ATOM     26  C   UNL     1      21.407 -11.067  -4.362 -0.44 -0.00    +0.000    14.675
ATOM     27  C   UNL     1      21.638 -10.016  -5.265 -0.35 -0.00    +0.000    14.675
ATOM     28  C   UNL     1      21.698  -8.700  -4.772 -0.27 -0.00    +0.000    14.675
ATOM     29  C   UNL     1      21.504  -8.441  -3.411 -0.34 -0.00    +0.000    14.675
ATOM     30  C   UNL     1      21.845 -10.306  -6.705 -0.35 -0.00    +0.000    14.675
ATOM     31  N   UNL     1      22.122 -11.634  -7.166 -0.27 -0.00    +0.000    14.675
ATOM     32  O   UNL     1      21.792  -9.365  -7.542 -0.18 -0.00    +0.000    14.675
ATOM     33  H   UNL     1      22.251 -12.362  -6.516 -0.50 -0.00    +0.000    14.675
ATOM     34  O   UNL     1      22.207 -11.892  -8.493 -0.35 -0.00    +0.000    14.675
ATOM     35  H   UNL     1      21.763 -12.732  -8.689 -0.60 -0.00    +0.000    14.675
TER
ENDMDL
MODEL       99
USER    Run = 99
USER    Cluster Rank = 9
USER    Number of conformations in this cluster = 6
USER  
USER    RMSD from reference structure       = 15.608 A
USER  
USER    Estimated Free Energy of Binding    =  -10.72 kcal/mol  [=(1)+(2)+(3)-(4)]
USER    Estimated Inhibition Constant, Ki   =   13.96 nM (nanomolar)  [Temperature = 298.15 K]
USER    
USER    (1) Final Intermolecular Energy     =  -13.70 kcal/mol
USER        vdW + Hbond + desolv Energy     =  -13.70 kcal/mol
USER        Electrostatic Energy            =   +0.00 kcal/mol
USER    (2) Final Total Internal Energy     =   -2.03 kcal/mol
USER    (3) Torsional Free Energy           =   +2.98 kcal/mol
USER    (4) Unbound System's Energy  [=(2)] =   -2.03 kcal/mol
USER    
USER    
USER  
USER    DPF = ligand_dock.biased.dpf
USER    NEWDPF move	ligand.pdbqt
USER    NEWDPF about	1.858000 0.218000 -0.021000
USER    NEWDPF tran0	20.917781 -9.582873 -5.503381
USER    NEWDPF axisangle0	0.937600 0.108045 0.330503 -138.707939
USER    NEWDPF quaternion0	0.877384 0.101106 0.309277 -0.352594
USER    NEWDPF dihe0	-18.46 -139.89 35.92 163.57 -112.26 10.97 -135.69 44.11 35.57 -98.56 
USER  
USER                              x       y       z    vdW   Elec        q     RMS 
ATOM      1  C   UNL     1      21.742  -9.998  -6.866 -0.30 -0.00    +0.000    15.608
ATOM      2  C   UNL     1      20.320 -10.185  -7.308 -0.23 -0.00    +0.000    15.608
ATOM      3  C   UNL     1      19.902  -9.713  -8.561 -0.16 -0.00    +0.000    15.608
ATOM      4  C   UNL     1      18.572  -9.851  -8.964 -0.15 -0.00    +0.000    15.608
ATOM      5  C   UNL     1      17.636 -10.453  -8.110 -0.22 -0.00    +0.000    15.608
ATOM      6  C   UNL     1      16.296 -10.595  -8.505 -0.18 -0.00    +0.000    15.608
ATOM      7  C   UNL     1      15.362 -11.193  -7.644 -0.22 -0.00    +0.000    15.608
ATOM      8  C   UNL     1      15.777 -11.652  -6.384 -0.28 -0.00    +0.000    15.608
ATOM      9  C   UNL     1      17.108 -11.513  -5.983 -0.22 -0.00    +0.000    15.608
ATOM     10  C   UNL     1      18.045 -10.916  -6.837 -0.32 -0.00    +0.000    15.608
ATOM     11  C   UNL     1      19.384 -10.773  -6.443 -0.31 -0.00    +0.000    15.608
ATOM     12  C   UNL     1      13.927 -11.367  -8.068 -0.17 -0.00    +0.000    15.608
ATOM     13  N   UNL     1      13.549 -12.794  -8.008 -0.25 -0.00    +0.000    15.608
ATOM     14  H   UNL     1      12.714 -12.925  -8.579 -0.00 -0.00    +0.000    15.608
ATOM     15  C   UNL     1      13.161 -13.194  -6.635 -0.36 -0.00    +0.000    15.608
ATOM     16  C   UNL     1      12.086 -14.280  -6.639 -0.30 -0.00    +0.000    15.608
ATOM     17  C   UNL     1      14.574 -13.671  -8.628 -0.38 +0.00    +0.000    15.608
ATOM     18  C   UNL     1      14.618 -13.602 -10.162 -0.20 +0.00    +0.000    15.608
ATOM     19  O   UNL     1      21.758  -9.342  -5.602 -0.31 -0.00    +0.000    15.608
ATOM     20  O   UNL     1      22.116 -11.134  -4.194 -0.57 -0.00    +0.000    15.608
ATOM     21  C   UNL     1      21.559 -10.019  -4.397 -0.44 -0.00    +0.000    15.608
ATOM     22  N   UNL     1      20.680  -9.453  -3.416 -0.39 -0.00    +0.000    15.608
ATOM     23  H   UNL     1      20.146  -8.667  -3.676 -0.01 -0.00    +0.000    15.608
ATOM     24  C   UNL     1      20.527  -9.954  -2.077 -0.48 -0.00    +0.000    15.608
ATOM     25  C   UNL     1      21.516  -9.678  -1.122 -0.48 -0.00    +0.000    15.608
ATOM     26  C   UNL     1      21.403 -10.171   0.180 -0.58 -0.00    +0.000    15.608
ATOM     27  C   UNL     1      20.301 -10.960   0.553 -0.61 -0.00    +0.000    15.608
ATOM     28  C   UNL     1      19.328 -11.266  -0.415 -0.47 -0.00    +0.000    15.608
ATOM     29  C   UNL     1      19.441 -10.771  -1.718 -0.40 -0.00    +0.000    15.608
ATOM     30  C   UNL     1      20.196 -11.480   1.938 -0.77 -0.00    +0.000    15.608
ATOM     31  N   UNL     1      20.459 -10.645   3.072 -0.67 -0.00    +0.000    15.608
ATOM     32  O   UNL     1      19.883 -12.687   2.127 -1.54 -0.00    +0.000    15.608
ATOM     33  H   UNL     1      20.787  -9.726   2.939 -0.59 -0.00    +0.000    15.608
ATOM     34  O   UNL     1      20.259 -11.113   4.327 -0.75 -0.00    +0.000    15.608
ATOM     35  H   UNL     1      20.495 -12.053   4.363 -0.39 -0.00    +0.000    15.608
TER
ENDMDL
MODEL       20
USER    Run = 20
USER    Cluster Rank = 10
USER    Number of conformations in this cluster = 4
USER  
USER    RMSD from reference structure       = 14.106 A
USER  
USER    Estimated Free Energy of Binding    =  -10.67 kcal/mol  [=(1)+(2)+(3)-(4)]
USER    Estimated Inhibition Constant, Ki   =   15.20 nM (nanomolar)  [Temperature = 298.15 K]
USER    
USER    (1) Final Intermolecular Energy     =  -13.65 kcal/mol
USER        vdW + Hbond + desolv Energy     =  -13.65 kcal/mol
USER        Electrostatic Energy            =   +0.00 kcal/mol
USER    (2) Final Total Internal Energy     =   -3.31 kcal/mol
USER    (3) Torsional Free Energy           =   +2.98 kcal/mol
USER    (4) Unbound System's Energy  [=(2)] =   -3.31 kcal/mol
USER    
USER    
USER  
USER    DPF = ligand_dock.biased.dpf
USER    NEWDPF move	ligand.pdbqt
USER    NEWDPF about	1.858000 0.218000 -0.021000
USER    NEWDPF tran0	19.588008 -10.506994 2.445433
USER    NEWDPF axisangle0	0.339257 -0.811329 -0.476077 -28.232581
USER    NEWDPF quaternion0	0.082742 -0.197876 -0.116111 -0.969803
USER    NEWDPF dihe0	-26.80 28.65 14.77 150.99 31.69 -12.84 50.80 -89.45 175.31 142.37 
USER  
USER                              x       y       z    vdW   Elec        q     RMS 
ATOM      1  C   UNL     1      18.716 -11.270   3.614 -0.37 -0.00    +0.000    14.106
ATOM      2  C   UNL     1      17.651 -10.950   2.607 -0.44 +0.00    +0.000    14.106
ATOM      3  C   UNL     1      17.031  -9.692   2.609 -0.38 +0.00    +0.000    14.106
ATOM      4  C   UNL     1      16.014  -9.401   1.697 -0.25 +0.00    +0.000    14.106
ATOM      5  C   UNL     1      15.592 -10.372   0.777 -0.28 +0.00    +0.000    14.106
ATOM      6  C   UNL     1      14.570 -10.089  -0.142 -0.23 +0.00    +0.000    14.106
ATOM      7  C   UNL     1      14.148 -11.068  -1.057 -0.31 +0.00    +0.000    14.106
ATOM      8  C   UNL     1      14.758 -12.332  -1.049 -0.40 +0.00    +0.000    14.106
ATOM      9  C   UNL     1      15.775 -12.622  -0.137 -0.49 +0.00    +0.000    14.106
ATOM     10  C   UNL     1      16.200 -11.650   0.780 -0.39 +0.00    +0.000    14.106
ATOM     11  C   UNL     1      17.222 -11.932   1.699 -0.28 +0.00    +0.000    14.106
ATOM     12  C   UNL     1      13.065 -10.766  -2.059 -0.25 -0.00    +0.000    14.106
ATOM     13  N   UNL     1      13.663 -10.425  -3.367 -0.24 -0.00    +0.000    14.106
ATOM     14  H   UNL     1      12.913 -10.128  -3.991 -0.01 -0.00    +0.000    14.106
ATOM     15  C   UNL     1      14.271 -11.614  -4.011 -0.24 -0.00    +0.000    14.106
ATOM     16  C   UNL     1      13.997 -11.652  -5.513 -0.29 -0.00    +0.000    14.106
ATOM     17  C   UNL     1      14.569  -9.253  -3.278 -0.20 -0.00    +0.000    14.106
ATOM     18  C   UNL     1      16.052  -9.613  -3.101 -0.24 -0.00    +0.000    14.106
ATOM     19  O   UNL     1      19.995 -11.007   3.044 -0.89 -0.00    +0.000    14.106
ATOM     20  O   UNL     1      20.767 -12.395   1.371 -1.32 -0.00    +0.000    14.106
ATOM     21  C   UNL     1      20.293 -11.274   1.706 -0.76 -0.00    +0.000    14.106
ATOM     22  N   UNL     1      20.095 -10.244   0.728 -0.56 -0.00    +0.000    14.106
ATOM     23  H   UNL     1      19.875  -9.340   1.051 -0.20 -0.00    +0.000    14.106
ATOM     24  C   UNL     1      20.194 -10.443  -0.692 -0.53 -0.00    +0.000    14.106
ATOM     25  C   UNL     1      21.392 -10.129  -1.348 -0.58 -0.00    +0.000    14.106
ATOM     26  C   UNL     1      21.509 -10.292  -2.731 -0.43 -0.00    +0.000    14.106
ATOM     27  C   UNL     1      20.424 -10.765  -3.489 -0.43 -0.00    +0.000    14.106
ATOM     28  C   UNL     1      19.211 -11.046  -2.835 -0.33 -0.00    +0.000    14.106
ATOM     29  C   UNL     1      19.096 -10.883  -1.451 -0.40 -0.00    +0.000    14.106
ATOM     30  C   UNL     1      20.561 -10.929  -4.957 -0.49 -0.00    +0.000    14.106
ATOM     31  N   UNL     1      19.430 -11.224  -5.785 -0.40 -0.00    +0.000    14.106
ATOM     32  O   UNL     1      21.699 -10.822  -5.491 -0.48 -0.00    +0.000    14.106
ATOM     33  H   UNL     1      18.552 -11.395  -5.372 -0.03 -0.00    +0.000    14.106
ATOM     34  O   UNL     1      19.561 -11.269  -7.132 -0.36 -0.00    +0.000    14.106
ATOM     35  H   UNL     1      20.502 -11.313  -7.364 -0.21 -0.00    +0.000    14.106
TER
ENDMDL
MODEL       33
USER    Run = 33
USER    Cluster Rank = 11
USER    Number of conformations in this cluster = 4
USER  
USER    RMSD from reference structure       = 14.602 A
USER  
USER    Estimated Free Energy of Binding    =  -10.59 kcal/mol  [=(1)+(2)+(3)-(4)]
USER    Estimated Inhibition Constant, Ki   =   17.13 nM (nanomolar)  [Temperature = 298.15 K]
USER    
USER    (1) Final Intermolecular Energy     =  -13.58 kcal/mol
USER        vdW + Hbond + desolv Energy     =  -13.58 kcal/mol
USER        Electrostatic Energy            =   +0.00 kcal/mol
USER    (2) Final Total Internal Energy     =   -2.71 kcal/mol
USER    (3) Torsional Free Energy           =   +2.98 kcal/mol
USER    (4) Unbound System's Energy  [=(2)] =   -2.71 kcal/mol
USER    
USER    
USER  
USER    DPF = ligand_dock.biased.dpf
USER    NEWDPF move	ligand.pdbqt
USER    NEWDPF about	1.858000 0.218000 -0.021000
USER    NEWDPF tran0	14.297809 -10.457489 -2.957670
USER    NEWDPF axisangle0	0.076536 0.917964 0.389211 154.937712
USER    NEWDPF quaternion0	0.074713 0.896096 0.379939 0.216970
USER    NEWDPF dihe0	-61.57 172.79 -2.75 -109.84 -16.04 -48.64 180.00 -82.92 16.70 -163.70 
USER  
USER                              x       y       z    vdW   Elec        q     RMS 
ATOM      1  C   UNL     1      13.744  -9.843  -4.380 -0.19 -0.00    +0.000    14.602
ATOM      2  C   UNL     1      15.140 -10.247  -4.753 -0.20 -0.00    +0.000    14.602
ATOM      3  C   UNL     1      15.354 -11.239  -5.722 -0.25 -0.00    +0.000    14.602
ATOM      4  C   UNL     1      16.650 -11.644  -6.047 -0.21 -0.00    +0.000    14.602
ATOM      5  C   UNL     1      17.753 -11.072  -5.396 -0.25 -0.00    +0.000    14.602
ATOM      6  C   UNL     1      19.059 -11.475  -5.716 -0.34 -0.00    +0.000    14.602
ATOM      7  C   UNL     1      20.159 -10.902  -5.056 -0.41 -0.00    +0.000    14.602
ATOM      8  C   UNL     1      19.944  -9.920  -4.077 -0.33 -0.00    +0.000    14.602
ATOM      9  C   UNL     1      18.648  -9.515  -3.752 -0.23 -0.00    +0.000    14.602
ATOM     10  C   UNL     1      17.545 -10.083  -4.405 -0.24 -0.00    +0.000    14.602
ATOM     11  C   UNL     1      16.239  -9.682  -4.086 -0.20 -0.00    +0.000    14.602
ATOM     12  C   UNL     1      21.564 -11.314  -5.407 -0.55 -0.00    +0.000    14.602
ATOM     13  N   UNL     1      21.860 -10.970  -6.814 -0.35 -0.00    +0.000    14.602
ATOM     14  H   UNL     1      21.374 -11.638  -7.412 -0.47 -0.00    +0.000    14.602
ATOM     15  C   UNL     1      23.300 -11.132  -7.120 -0.42 -0.00    +0.000    14.602
ATOM     16  C   UNL     1      23.570 -12.393  -7.941 -0.48 -0.00    +0.000    14.602
ATOM     17  C   UNL     1      21.304  -9.647  -7.193 -0.23 -0.00    +0.000    14.602
ATOM     18  C   UNL     1      20.300  -9.693  -8.355 -0.19 -0.00    +0.000    14.602
ATOM     19  O   UNL     1      13.434 -10.362  -3.091 -0.26 -0.00    +0.000    14.602
ATOM     20  O   UNL     1      14.846 -12.010  -2.306 -0.35 -0.00    +0.000    14.602
ATOM     21  C   UNL     1      14.412 -10.828  -2.209 -0.32 -0.00    +0.000    14.602
ATOM     22  N   UNL     1      14.883  -9.961  -1.170 -0.24 -0.00    +0.000    14.602
ATOM     23  H   UNL     1      14.409  -9.109  -1.031 -0.00 -0.00    +0.000    14.602
ATOM     24  C   UNL     1      16.002 -10.252  -0.315 -0.26 -0.00    +0.000    14.602
ATOM     25  C   UNL     1      17.078 -10.996  -0.820 -0.31 -0.00    +0.000    14.602
ATOM     26  C   UNL     1      18.168 -11.311  -0.004 -0.42 -0.00    +0.000    14.602
ATOM     27  C   UNL     1      18.201 -10.895   1.338 -0.44 -0.00    +0.000    14.602
ATOM     28  C   UNL     1      17.106 -10.179   1.853 -0.35 +0.00    +0.000    14.602
ATOM     29  C   UNL     1      16.015  -9.864   1.036 -0.25 +0.00    +0.000    14.602
ATOM     30  C   UNL     1      19.363 -11.240   2.193 -0.69 -0.00    +0.000    14.602
ATOM     31  N   UNL     1      19.890 -10.312   3.148 -0.63 -0.00    +0.000    14.602
ATOM     32  O   UNL     1      19.911 -12.369   2.070 -1.71 -0.00    +0.000    14.602
ATOM     33  H   UNL     1      19.527  -9.398   3.196 -0.58 -0.00    +0.000    14.602
ATOM     34  O   UNL     1      20.886 -10.686   3.988 -0.69 -0.00    +0.000    14.602
ATOM     35  H   UNL     1      21.097 -11.621   3.843 -0.55 -0.00    +0.000    14.602
TER
ENDMDL
MODEL       12
USER    Run = 12
USER    Cluster Rank = 12
USER    Number of conformations in this cluster = 3
USER  
USER    RMSD from reference structure       = 12.065 A
USER  
USER    Estimated Free Energy of Binding    =  -10.59 kcal/mol  [=(1)+(2)+(3)-(4)]
USER    Estimated Inhibition Constant, Ki   =   17.25 nM (nanomolar)  [Temperature = 298.15 K]
USER    
USER    (1) Final Intermolecular Energy     =  -13.57 kcal/mol
USER        vdW + Hbond + desolv Energy     =  -13.57 kcal/mol
USER        Electrostatic Energy            =   +0.00 kcal/mol
USER    (2) Final Total Internal Energy     =   -1.94 kcal/mol
USER    (3) Torsional Free Energy           =   +2.98 kcal/mol
USER    (4) Unbound System's Energy  [=(2)] =   -1.94 kcal/mol
USER    
USER    
USER  
USER    DPF = ligand_dock.biased.dpf
USER    NEWDPF move	ligand.pdbqt
USER    NEWDPF about	1.858000 0.218000 -0.021000
USER    NEWDPF tran0	16.190783 -9.337506 3.493870
USER    NEWDPF axisangle0	-0.241710 0.800087 -0.549033 113.595015
USER    NEWDPF quaternion0	-0.202249 0.669465 -0.459398 0.547600
USER    NEWDPF dihe0	168.70 -163.52 35.15 -45.91 107.29 -54.20 -165.84 -17.05 154.96 -82.15 
USER  
USER                              x       y       z    vdW   Elec        q     RMS 
ATOM      1  C   UNL     1      15.929 -10.955   3.641 -0.54 +0.00    +0.000    12.065
ATOM      2  C   UNL     1      16.744 -10.898   2.383 -0.42 +0.00    +0.000    12.065
ATOM      3  C   UNL     1      16.130 -11.079   1.134 -0.35 +0.00    +0.000    12.065
ATOM      4  C   UNL     1      16.889 -11.062  -0.038 -0.33 -0.00    +0.000    12.065
ATOM      5  C   UNL     1      18.278 -10.877   0.023 -0.38 -0.00    +0.000    12.065
ATOM      6  C   UNL     1      19.048 -10.860  -1.150 -0.41 -0.00    +0.000    12.065
ATOM      7  C   UNL     1      20.439 -10.679  -1.082 -0.49 -0.00    +0.000    12.065
ATOM      8  C   UNL     1      21.056 -10.512   0.167 -0.63 -0.00    +0.000    12.065
ATOM      9  C   UNL     1      20.296 -10.529   1.340 -0.59 -0.00    +0.000    12.065
ATOM     10  C   UNL     1      18.907 -10.710   1.279 -0.48 -0.00    +0.000    12.065
ATOM     11  C   UNL     1      18.136 -10.728   2.451 -0.49 -0.00    +0.000    12.065
ATOM     12  C   UNL     1      21.271 -10.640  -2.337 -0.50 -0.00    +0.000    12.065
ATOM     13  N   UNL     1      20.784  -9.574  -3.238 -0.42 -0.00    +0.000    12.065
ATOM     14  H   UNL     1      19.892  -9.238  -2.877 -0.01 -0.00    +0.000    12.065
ATOM     15  C   UNL     1      20.494 -10.100  -4.593 -0.40 -0.00    +0.000    12.065
ATOM     16  C   UNL     1      21.305 -11.357  -4.902 -0.54 -0.00    +0.000    12.065
ATOM     17  C   UNL     1      21.671  -8.384  -3.225 -0.35 -0.00    +0.000    12.065
ATOM     18  C   UNL     1      21.208  -7.262  -2.285 -0.46 -0.00    +0.000    12.065
ATOM     19  O   UNL     1      15.940  -9.676   4.266 -0.34 +0.00    +0.000    12.065
ATOM     20  O   UNL     1      14.086  -8.866   3.158 -0.27 +0.00    +0.000    12.065
ATOM     21  C   UNL     1      14.904  -8.752   4.113 -0.40 +0.00    +0.000    12.065
ATOM     22  N   UNL     1      14.810  -7.651   5.027 -0.40 +0.00    +0.000    12.065
ATOM     23  H   UNL     1      15.554  -7.511   5.656 -0.02 +0.00    +0.000    12.065
ATOM     24  C   UNL     1      13.701  -6.738   5.087 -0.33 +0.00    +0.000    12.065
ATOM     25  C   UNL     1      12.393  -7.244   5.083 -0.25 +0.00    +0.000    12.065
ATOM     26  C   UNL     1      11.297  -6.377   5.119 -0.21 +0.00    +0.000    12.065
ATOM     27  C   UNL     1      11.487  -4.985   5.151 -0.24 +0.00    +0.000    12.065
ATOM     28  C   UNL     1      12.798  -4.478   5.118 -0.27 +0.00    +0.000    12.065
ATOM     29  C   UNL     1      13.895  -5.346   5.083 -0.34 +0.00    +0.000    12.065
ATOM     30  C   UNL     1      10.314  -4.078   5.184 -0.39 +0.00    +0.000    12.065
ATOM     31  N   UNL     1       9.781  -3.501   3.986 -0.28 +0.00    +0.000    12.065
ATOM     32  O   UNL     1       9.779  -3.794   6.290 -1.10 +0.00    +0.000    12.065
ATOM     33  H   UNL     1      10.239  -3.646   3.126 -0.02 +0.00    +0.000    12.065
ATOM     34  O   UNL     1       8.649  -2.758   4.030 -0.36 +0.00    +0.000    12.065
ATOM     35  H   UNL     1       8.623  -2.256   4.859 -0.58 +0.00    +0.000    12.065
TER
ENDMDL
MODEL       61
USER    Run = 61
USER    Cluster Rank = 13
USER    Number of conformations in this cluster = 14
USER  
USER    RMSD from reference structure       = 14.055 A
USER  
USER    Estimated Free Energy of Binding    =  -10.39 kcal/mol  [=(1)+(2)+(3)-(4)]
USER    Estimated Inhibition Constant, Ki   =   24.20 nM (nanomolar)  [Temperature = 298.15 K]
USER    
USER    (1) Final Intermolecular Energy     =  -13.37 kcal/mol
USER        vdW + Hbond + desolv Energy     =  -13.37 kcal/mol
USER        Electrostatic Energy            =   +0.00 kcal/mol
USER    (2) Final Total Internal Energy     =   -2.96 kcal/mol
USER    (3) Torsional Free Energy           =   +2.98 kcal/mol
USER    (4) Unbound System's Energy  [=(2)] =   -2.96 kcal/mol
USER    
USER    
USER  
USER    DPF = ligand_dock.biased.dpf
USER    NEWDPF move	ligand.pdbqt
USER    NEWDPF about	1.858000 0.218000 -0.021000
USER    NEWDPF tran0	20.044687 -10.731342 -5.727440
USER    NEWDPF axisangle0	0.988781 -0.047914 -0.141478 177.277794
USER    NEWDPF quaternion0	0.988502 -0.047900 -0.141438 0.023753
USER    NEWDPF dihe0	94.24 177.54 24.97 -163.34 -89.75 167.35 -133.91 110.17 -5.80 -168.06 
USER  
USER                              x       y       z    vdW   Elec        q     RMS 
ATOM      1  C   UNL     1      19.545  -9.973  -7.099 -0.24 -0.00    +0.000    14.055
ATOM      2  C   UNL     1      18.361  -9.774  -6.200 -0.18 -0.00    +0.000    14.055
ATOM      3  C   UNL     1      18.237  -8.599  -5.444 -0.14 -0.00    +0.000    14.055
ATOM      4  C   UNL     1      17.155  -8.424  -4.578 -0.14 -0.00    +0.000    14.055
ATOM      5  C   UNL     1      16.187  -9.430  -4.445 -0.18 -0.00    +0.000    14.055
ATOM      6  C   UNL     1      15.098  -9.263  -3.577 -0.18 -0.00    +0.000    14.055
ATOM      7  C   UNL     1      14.135 -10.277  -3.444 -0.23 -0.00    +0.000    14.055
ATOM      8  C   UNL     1      14.266 -11.459  -4.190 -0.24 -0.00    +0.000    14.055
ATOM      9  C   UNL     1      15.348 -11.633  -5.056 -0.13 -0.00    +0.000    14.055
ATOM     10  C   UNL     1      16.314 -10.626  -5.192 -0.22 -0.00    +0.000    14.055
ATOM     11  C   UNL     1      17.404 -10.792  -6.059 -0.28 -0.00    +0.000    14.055
ATOM     12  C   UNL     1      12.952 -10.098  -2.529 -0.24 -0.00    +0.000    14.055
ATOM     13  N   UNL     1      13.340 -10.395  -1.133 -0.25 -0.00    +0.000    14.055
ATOM     14  H   UNL     1      12.675 -11.069  -0.756 -0.02 +0.00    +0.000    14.055
ATOM     15  C   UNL     1      13.225  -9.194  -0.272 -0.18 +0.00    +0.000    14.055
ATOM     16  C   UNL     1      14.577  -8.518  -0.051 -0.25 -0.00    +0.000    14.055
ATOM     17  C   UNL     1      14.657 -11.075  -1.053 -0.35 +0.00    +0.000    14.055
ATOM     18  C   UNL     1      14.597 -12.504  -0.493 -0.49 +0.00    +0.000    14.055
ATOM     19  O   UNL     1      20.631 -10.491  -6.338 -0.32 -0.00    +0.000    14.055
ATOM     20  O   UNL     1      20.565 -12.214  -4.804 -0.67 -0.00    +0.000    14.055
ATOM     21  C   UNL     1      20.476 -10.976  -5.037 -0.49 -0.00    +0.000    14.055
ATOM     22  N   UNL     1      20.172 -10.056  -3.981 -0.34 -0.00    +0.000    14.055
ATOM     23  H   UNL     1      19.956  -9.127  -4.228 +0.00 -0.00    +0.000    14.055
ATOM     24  C   UNL     1      20.162 -10.397  -2.584 -0.44 -0.00    +0.000    14.055
ATOM     25  C   UNL     1      21.377 -10.497  -1.892 -0.52 -0.00    +0.000    14.055
ATOM     26  C   UNL     1      21.397 -10.848  -0.540 -0.51 -0.00    +0.000    14.055
ATOM     27  C   UNL     1      20.201 -11.115   0.148 -0.56 -0.00    +0.000    14.055
ATOM     28  C   UNL     1      18.985 -11.049  -0.556 -0.44 -0.00    +0.000    14.055
ATOM     29  C   UNL     1      18.966 -10.697  -1.910 -0.36 -0.00    +0.000    14.055
ATOM     30  C   UNL     1      20.238 -11.490   1.582 -0.76 -0.00    +0.000    14.055
ATOM     31  N   UNL     1      20.643 -10.555   2.589 -0.61 -0.00    +0.000    14.055
ATOM     32  O   UNL     1      19.920 -12.661   1.926 -1.58 -0.00    +0.000    14.055
ATOM     33  H   UNL     1      20.975  -9.666   2.328 -0.56 -0.00    +0.000    14.055
ATOM     34  O   UNL     1      20.572 -10.889   3.900 -0.81 -0.00    +0.000    14.055
ATOM     35  H   UNL     1      20.617 -11.854   3.991 -0.48 -0.00    +0.000    14.055
TER
ENDMDL
MODEL       16
USER    Run = 16
USER    Cluster Rank = 14
USER    Number of conformations in this cluster = 3
USER  
USER    RMSD from reference structure       = 13.767 A
USER  
USER    Estimated Free Energy of Binding    =  -10.29 kcal/mol  [=(1)+(2)+(3)-(4)]
USER    Estimated Inhibition Constant, Ki   =   28.90 nM (nanomolar)  [Temperature = 298.15 K]
USER    
USER    (1) Final Intermolecular Energy     =  -13.27 kcal/mol
USER        vdW + Hbond + desolv Energy     =  -13.27 kcal/mol
USER        Electrostatic Energy            =   +0.00 kcal/mol
USER    (2) Final Total Internal Energy     =   -2.05 kcal/mol
USER    (3) Torsional Free Energy           =   +2.98 kcal/mol
USER    (4) Unbound System's Energy  [=(2)] =   -2.05 kcal/mol
USER    
USER    
USER  
USER    DPF = ligand_dock.biased.dpf
USER    NEWDPF move	ligand.pdbqt
USER    NEWDPF about	1.858000 0.218000 -0.021000
USER    NEWDPF tran0	17.482930 -12.271826 0.548500
USER    NEWDPF axisangle0	0.351117 -0.241873 0.904552 176.429553
USER    NEWDPF quaternion0	0.350947 -0.241755 0.904113 0.031153
USER    NEWDPF dihe0	90.63 153.15 10.10 -137.76 99.32 -18.36 -175.84 -125.17 79.44 67.95 
USER  
USER                              x       y       z    vdW   Elec        q     RMS 
ATOM      1  C   UNL     1      18.650 -12.279   1.708 -0.47 -0.00    +0.000    13.767
ATOM      2  C   UNL     1      19.378 -11.651   0.556 -0.56 -0.00    +0.000    13.767
ATOM      3  C   UNL     1      20.715 -11.250   0.699 -0.62 -0.00    +0.000    13.767
ATOM      4  C   UNL     1      21.387 -10.633  -0.359 -0.60 -0.00    +0.000    13.767
ATOM      5  C   UNL     1      20.724 -10.394  -1.572 -0.52 -0.00    +0.000    13.767
ATOM      6  C   UNL     1      21.391  -9.773  -2.639 -0.48 -0.00    +0.000    13.767
ATOM      7  C   UNL     1      20.722  -9.533  -3.850 -0.37 -0.00    +0.000    13.767
ATOM      8  C   UNL     1      19.380  -9.921  -3.988 -0.30 -0.00    +0.000    13.767
ATOM      9  C   UNL     1      18.709 -10.538  -2.930 -0.32 -0.00    +0.000    13.767
ATOM     10  C   UNL     1      19.371 -10.781  -1.719 -0.40 -0.00    +0.000    13.767
ATOM     11  C   UNL     1      18.705 -11.401  -0.651 -0.43 -0.00    +0.000    13.767
ATOM     12  C   UNL     1      21.435  -8.884  -5.007 -0.31 -0.00    +0.000    13.767
ATOM     13  N   UNL     1      22.003  -9.917  -5.898 -0.32 -0.00    +0.000    13.767
ATOM     14  H   UNL     1      23.004  -9.978  -5.715 -0.02 -0.00    +0.000    13.767
ATOM     15  C   UNL     1      21.879  -9.530  -7.324 -0.23 -0.00    +0.000    13.767
ATOM     16  C   UNL     1      20.745 -10.279  -8.022 -0.24 -0.00    +0.000    13.767
ATOM     17  C   UNL     1      21.477 -11.271  -5.589 -0.52 -0.00    +0.000    13.767
ATOM     18  C   UNL     1      22.527 -12.389  -5.667 -0.54 -0.00    +0.000    13.767
ATOM     19  O   UNL     1      17.264 -12.369   1.395 -0.77 +0.00    +0.000    13.767
ATOM     20  O   UNL     1      15.296 -12.189   2.586 -0.59 +0.00    +0.000    13.767
ATOM     21  C   UNL     1      16.290 -11.618   2.057 -0.44 +0.00    +0.000    13.767
ATOM     22  N   UNL     1      16.414 -10.190   2.090 -0.37 +0.00    +0.000    13.767
ATOM     23  H   UNL     1      17.113  -9.776   1.534 -0.02 -0.00    +0.000    13.767
ATOM     24  C   UNL     1      15.584  -9.321   2.880 -0.34 +0.00    +0.000    13.767
ATOM     25  C   UNL     1      15.170  -9.736   4.152 -0.37 +0.00    +0.000    13.767
ATOM     26  C   UNL     1      14.346  -8.920   4.932 -0.38 +0.00    +0.000    13.767
ATOM     27  C   UNL     1      13.912  -7.673   4.451 -0.29 +0.00    +0.000    13.767
ATOM     28  C   UNL     1      14.299  -7.273   3.159 -0.24 +0.00    +0.000    13.767
ATOM     29  C   UNL     1      15.124  -8.090   2.380 -0.24 +0.00    +0.000    13.767
ATOM     30  C   UNL     1      13.034  -6.820   5.288 -0.34 +0.00    +0.000    13.767
ATOM     31  N   UNL     1      11.629  -6.713   5.029 -0.22 +0.00    +0.000    13.767
ATOM     32  O   UNL     1      13.533  -6.162   6.241 -1.04 +0.00    +0.000    13.767
ATOM     33  H   UNL     1      11.241  -7.153   4.239 +0.00 +0.00    +0.000    13.767
ATOM     34  O   UNL     1      10.831  -6.008   5.868 -0.33 +0.00    +0.000    13.767
ATOM     35  H   UNL     1      11.380  -5.513   6.496 -0.02 +0.00    +0.000    13.767
TER
ENDMDL
MODEL        1
USER    Run = 1
USER    Cluster Rank = 15
USER    Number of conformations in this cluster = 2
USER  
USER    RMSD from reference structure       = 14.151 A
USER  
USER    Estimated Free Energy of Binding    =  -10.08 kcal/mol  [=(1)+(2)+(3)-(4)]
USER    Estimated Inhibition Constant, Ki   =   40.61 nM (nanomolar)  [Temperature = 298.15 K]
USER    
USER    (1) Final Intermolecular Energy     =  -13.07 kcal/mol
USER        vdW + Hbond + desolv Energy     =  -13.07 kcal/mol
USER        Electrostatic Energy            =   +0.00 kcal/mol
USER    (2) Final Total Internal Energy     =   -2.33 kcal/mol
USER    (3) Torsional Free Energy           =   +2.98 kcal/mol
USER    (4) Unbound System's Energy  [=(2)] =   -2.33 kcal/mol
USER    
USER    
USER  
USER    DPF = ligand_dock.biased.dpf
USER    NEWDPF move	ligand.pdbqt
USER    NEWDPF about	1.858000 0.218000 -0.021000
USER    NEWDPF tran0	20.280416 -10.129233 1.393675
USER    NEWDPF axisangle0	-0.900573 -0.433771 0.028483 53.361267
USER    NEWDPF quaternion0	-0.404373 -0.194770 0.012790 0.893523
USER    NEWDPF dihe0	-173.53 -173.67 12.96 -106.46 175.02 -20.75 -34.26 -117.93 180.00 98.37 
USER  
USER                              x       y       z    vdW   Elec        q     RMS 
ATOM      1  C   UNL     1      20.523 -11.684   1.873 -0.78 -0.00    +0.000    14.151
ATOM      2  C   UNL     1      19.032 -11.565   1.988 -0.57 -0.00    +0.000    14.151
ATOM      3  C   UNL     1      18.457 -10.940   3.105 -0.45 -0.00    +0.000    14.151
ATOM      4  C   UNL     1      17.068 -10.858   3.234 -0.41 +0.00    +0.000    14.151
ATOM      5  C   UNL     1      16.234 -11.414   2.253 -0.39 +0.00    +0.000    14.151
ATOM      6  C   UNL     1      14.838 -11.337   2.376 -0.43 +0.00    +0.000    14.151
ATOM      7  C   UNL     1      14.008 -11.900   1.393 -0.40 +0.00    +0.000    14.151
ATOM      8  C   UNL     1      14.583 -12.538   0.283 -0.42 +0.00    +0.000    14.151
ATOM      9  C   UNL     1      15.971 -12.619   0.154 -0.48 +0.00    +0.000    14.151
ATOM     10  C   UNL     1      16.806 -12.061   1.132 -0.42 +0.00    +0.000    14.151
ATOM     11  C   UNL     1      18.202 -12.137   1.011 -0.51 -0.00    +0.000    14.151
ATOM     12  C   UNL     1      12.509 -11.805   1.507 -0.39 +0.00    +0.000    14.151
ATOM     13  N   UNL     1      12.023 -10.584   0.831 -0.26 +0.00    +0.000    14.151
ATOM     14  H   UNL     1      12.300  -9.779   1.392 +0.00 +0.00    +0.000    14.151
ATOM     15  C   UNL     1      10.543 -10.545   0.780 -0.27 +0.00    +0.000    14.151
ATOM     16  C   UNL     1       9.921 -11.850   1.273 -0.43 +0.00    +0.000    14.151
ATOM     17  C   UNL     1      12.682 -10.374  -0.483 -0.27 +0.00    +0.000    14.151
ATOM     18  C   UNL     1      13.708  -9.232  -0.500 -0.20 -0.00    +0.000    14.151
ATOM     19  O   UNL     1      21.035 -10.538   1.200 -0.75 -0.00    +0.000    14.151
ATOM     20  O   UNL     1      22.111 -10.290  -0.826 -0.66 -0.00    +0.000    14.151
ATOM     21  C   UNL     1      21.026 -10.414  -0.191 -0.71 -0.00    +0.000    14.151
ATOM     22  N   UNL     1      19.770 -10.386  -0.881 -0.46 -0.00    +0.000    14.151
ATOM     23  H   UNL     1      18.950 -10.327  -0.340 -0.01 -0.00    +0.000    14.151
ATOM     24  C   UNL     1      19.628 -10.440  -2.311 -0.40 -0.00    +0.000    14.151
ATOM     25  C   UNL     1      18.344 -10.444  -2.874 -0.27 -0.00    +0.000    14.151
ATOM     26  C   UNL     1      18.177 -10.517  -4.260 -0.26 -0.00    +0.000    14.151
ATOM     27  C   UNL     1      19.292 -10.596  -5.111 -0.33 -0.00    +0.000    14.151
ATOM     28  C   UNL     1      20.579 -10.628  -4.543 -0.42 -0.00    +0.000    14.151
ATOM     29  C   UNL     1      20.745 -10.554  -3.157 -0.46 -0.00    +0.000    14.151
ATOM     30  C   UNL     1      19.099 -10.678  -6.580 -0.34 -0.00    +0.000    14.151
ATOM     31  N   UNL     1      17.914 -11.249  -7.147 -0.36 -0.00    +0.000    14.151
ATOM     32  O   UNL     1      20.001 -10.249  -7.350 -0.27 -0.00    +0.000    14.151
ATOM     33  H   UNL     1      17.241 -11.664  -6.561 -0.03 -0.00    +0.000    14.151
ATOM     34  O   UNL     1      17.715 -11.220  -8.487 -0.24 -0.00    +0.000    14.151
ATOM     35  H   UNL     1      18.541 -10.971  -8.931 -0.02 -0.00    +0.000    14.151
TER
ENDMDL
MODEL       55
USER    Run = 55
USER    Cluster Rank = 16
USER    Number of conformations in this cluster = 2
USER  
USER    RMSD from reference structure       = 17.653 A
USER  
USER    Estimated Free Energy of Binding    =   -9.76 kcal/mol  [=(1)+(2)+(3)-(4)]
USER    Estimated Inhibition Constant, Ki   =   69.80 nM (nanomolar)  [Temperature = 298.15 K]
USER    
USER    (1) Final Intermolecular Energy     =  -12.75 kcal/mol
USER        vdW + Hbond + desolv Energy     =  -12.75 kcal/mol
USER        Electrostatic Energy            =   +0.00 kcal/mol
USER    (2) Final Total Internal Energy     =   -2.13 kcal/mol
USER    (3) Torsional Free Energy           =   +2.98 kcal/mol
USER    (4) Unbound System's Energy  [=(2)] =   -2.13 kcal/mol
USER    
USER    
USER  
USER    DPF = ligand_dock.biased.dpf
USER    NEWDPF move	ligand.pdbqt
USER    NEWDPF about	1.858000 0.218000 -0.021000
USER    NEWDPF tran0	18.952614 -10.184285 -5.727800
USER    NEWDPF axisangle0	-0.180987 -0.697161 -0.693693 -161.395359
USER    NEWDPF quaternion0	-0.178607 -0.687993 -0.684570 -0.161644
USER    NEWDPF dihe0	-120.63 111.16 8.36 -172.56 153.20 175.74 171.75 107.90 41.73 -76.80 
USER  
USER                              x       y       z    vdW   Elec        q     RMS 
ATOM      1  C   UNL     1      18.817  -8.688  -6.399 -0.13 -0.00    +0.000    17.653
ATOM      2  C   UNL     1      19.996  -9.244  -7.143 -0.14 -0.00    +0.000    17.653
ATOM      3  C   UNL     1      20.163  -8.968  -8.508 -0.10 -0.00    +0.000    17.653
ATOM      4  C   UNL     1      21.238  -9.512  -9.215 -0.12 -0.00    +0.000    17.653
ATOM      5  C   UNL     1      22.155 -10.352  -8.567 -0.21 -0.00    +0.000    17.653
ATOM      6  C   UNL     1      23.238 -10.904  -9.270 -0.20 -0.00    +0.000    17.653
ATOM      7  C   UNL     1      24.150 -11.749  -8.617 -0.38 -0.00    +0.000    17.653
ATOM      8  C   UNL     1      23.975 -12.036  -7.254 -0.39 -0.00    +0.000    17.653
ATOM      9  C   UNL     1      22.900 -11.492  -6.548 -0.40 -0.00    +0.000    17.653
ATOM     10  C   UNL     1      21.985 -10.649  -7.194 -0.31 -0.00    +0.000    17.653
ATOM     11  C   UNL     1      20.902 -10.097  -6.493 -0.26 -0.00    +0.000    17.653
ATOM     12  C   UNL     1      25.326 -12.330  -9.359 -0.38 -0.00    +0.000    17.653
ATOM     13  N   UNL     1      24.869 -13.387 -10.285 -0.35 -0.00    +0.000    17.653
ATOM     14  H   UNL     1      25.522 -14.168 -10.221 -0.44 -0.00    +0.000    17.653
ATOM     15  C   UNL     1      24.926 -12.933 -11.695 -0.19 -0.00    +0.000    17.653
ATOM     16  C   UNL     1      26.240 -12.222 -12.013 -0.15 -0.00    +0.000    17.653
ATOM     17  C   UNL     1      23.558 -13.955  -9.882 -0.42 -0.00    +0.000    17.653
ATOM     18  C   UNL     1      23.013 -15.025 -10.839 -0.50 +0.00    +0.000    17.653
ATOM     19  O   UNL     1      18.204  -9.730  -5.646 -0.19 -0.00    +0.000    17.653
ATOM     20  O   UNL     1      17.433  -9.573  -3.477 -0.27 -0.00    +0.000    17.653
ATOM     21  C   UNL     1      18.374  -9.865  -4.266 -0.28 -0.00    +0.000    17.653
ATOM     22  N   UNL     1      19.643 -10.296  -3.759 -0.34 -0.00    +0.000    17.653
ATOM     23  H   UNL     1      20.394 -10.361  -4.393 -0.00 -0.00    +0.000    17.653
ATOM     24  C   UNL     1      19.894 -10.642  -2.386 -0.41 -0.00    +0.000    17.653
ATOM     25  C   UNL     1      18.829 -11.059  -1.577 -0.37 -0.00    +0.000    17.653
ATOM     26  C   UNL     1      19.041 -11.380  -0.233 -0.47 -0.00    +0.000    17.653
ATOM     27  C   UNL     1      20.325 -11.282   0.332 -0.57 -0.00    +0.000    17.653
ATOM     28  C   UNL     1      21.386 -10.829  -0.472 -0.52 -0.00    +0.000    17.653
ATOM     29  C   UNL     1      21.173 -10.508  -1.817 -0.52 -0.00    +0.000    17.653
ATOM     30  C   UNL     1      20.534 -11.622   1.760 -0.78 -0.00    +0.000    17.653
ATOM     31  N   UNL     1      19.696 -11.080   2.788 -0.65 -0.00    +0.000    17.653
ATOM     32  O   UNL     1      21.478 -12.393   2.083 -0.96 -0.00    +0.000    17.653
ATOM     33  H   UNL     1      19.010 -10.411   2.560 -0.04 -0.00    +0.000    17.653
ATOM     34  O   UNL     1      19.842 -11.483   4.073 -0.80 -0.00    +0.000    17.653
ATOM     35  H   UNL     1      20.635 -12.036   4.150 -0.51 -0.00    +0.000    17.653
TER
ENDMDL
MODEL       17
USER    Run = 17
USER    Cluster Rank = 17
USER    Number of conformations in this cluster = 2
USER  
USER    RMSD from reference structure       = 13.503 A
USER  
USER    Estimated Free Energy of Binding    =   -9.71 kcal/mol  [=(1)+(2)+(3)-(4)]
USER    Estimated Inhibition Constant, Ki   =   76.54 nM (nanomolar)  [Temperature = 298.15 K]
USER    
USER    (1) Final Intermolecular Energy     =  -12.69 kcal/mol
USER        vdW + Hbond + desolv Energy     =  -12.69 kcal/mol
USER        Electrostatic Energy            =   +0.00 kcal/mol
USER    (2) Final Total Internal Energy     =   -2.50 kcal/mol
USER    (3) Torsional Free Energy           =   +2.98 kcal/mol
USER    (4) Unbound System's Energy  [=(2)] =   -2.50 kcal/mol
USER    
USER    
USER  
USER    DPF = ligand_dock.biased.dpf
USER    NEWDPF move	ligand.pdbqt
USER    NEWDPF about	1.858000 0.218000 -0.021000
USER    NEWDPF tran0	20.640053 -7.535946 -4.459850
USER    NEWDPF axisangle0	-0.489296 -0.860164 -0.143901 95.970486
USER    NEWDPF quaternion0	-0.363534 -0.639078 -0.106915 0.669322
USER    NEWDPF dihe0	45.12 179.99 3.78 -43.62 72.12 169.64 0.08 -127.55 -9.47 -118.83 
USER  
USER                              x       y       z    vdW   Elec        q     RMS 
ATOM      1  C   UNL     1      21.803  -8.625  -4.870 -0.28 -0.00    +0.000    13.503
ATOM      2  C   UNL     1      21.057  -9.372  -3.803 -0.39 -0.00    +0.000    13.503
ATOM      3  C   UNL     1      19.979 -10.202  -4.145 -0.35 -0.00    +0.000    13.503
ATOM      4  C   UNL     1      19.258 -10.872  -3.153 -0.37 -0.00    +0.000    13.503
ATOM      5  C   UNL     1      19.597 -10.708  -1.802 -0.40 -0.00    +0.000    13.503
ATOM      6  C   UNL     1      18.876 -11.375  -0.799 -0.42 -0.00    +0.000    13.503
ATOM      7  C   UNL     1      19.217 -11.203   0.552 -0.52 -0.00    +0.000    13.503
ATOM      8  C   UNL     1      20.286 -10.361   0.895 -0.56 -0.00    +0.000    13.503
ATOM      9  C   UNL     1      21.007  -9.692  -0.097 -0.60 -0.00    +0.000    13.503
ATOM     10  C   UNL     1      20.671  -9.859  -1.448 -0.54 -0.00    +0.000    13.503
ATOM     11  C   UNL     1      21.390  -9.191  -2.451 -0.46 -0.00    +0.000    13.503
ATOM     12  C   UNL     1      18.462 -11.931   1.634 -0.55 -0.00    +0.000    13.503
ATOM     13  N   UNL     1      17.178 -11.249   1.904 -0.41 +0.00    +0.000    13.503
ATOM     14  H   UNL     1      17.174 -10.367   1.392 -0.01 -0.00    +0.000    13.503
ATOM     15  C   UNL     1      17.051 -10.882   3.334 -0.46 +0.00    +0.000    13.503
ATOM     16  C   UNL     1      15.597 -10.908   3.803 -0.55 +0.00    +0.000    13.503
ATOM     17  C   UNL     1      16.020 -12.005   1.366 -0.48 +0.00    +0.000    13.503
ATOM     18  C   UNL     1      15.288 -11.303   0.213 -0.38 +0.00    +0.000    13.503
ATOM     19  O   UNL     1      21.072  -7.455  -5.222 -0.19 -0.00    +0.000    13.503
ATOM     20  O   UNL     1      19.604  -6.020  -4.168 -0.20 -0.00    +0.000    13.503
ATOM     21  C   UNL     1      20.787  -6.439  -4.306 -0.24 -0.00    +0.000    13.503
ATOM     22  N   UNL     1      21.861  -5.852  -3.559 -0.26 -0.00    +0.000    13.503
ATOM     23  H   UNL     1      22.782  -6.096  -3.809 -0.02 -0.00    +0.000    13.503
ATOM     24  C   UNL     1      21.684  -4.931  -2.469 -0.33 -0.00    +0.000    13.503
ATOM     25  C   UNL     1      22.639  -3.928  -2.254 -0.27 -0.00    +0.000    13.503
ATOM     26  C   UNL     1      22.502  -3.034  -1.189 -0.28 +0.00    +0.000    13.503
ATOM     27  C   UNL     1      21.410  -3.130  -0.310 -0.35 +0.00    +0.000    13.503
ATOM     28  C   UNL     1      20.471  -4.159  -0.506 -0.33 +0.00    +0.000    13.503
ATOM     29  C   UNL     1      20.608  -5.053  -1.572 -0.37 -0.00    +0.000    13.503
ATOM     30  C   UNL     1      21.280  -2.177   0.818 -0.45 -0.00    +0.000    13.503
ATOM     31  N   UNL     1      21.028  -2.630   2.154 -0.60 -0.00    +0.000    13.503
ATOM     32  O   UNL     1      21.378  -0.938   0.600 -0.29 -0.00    +0.000    13.503
ATOM     33  H   UNL     1      20.865  -3.586   2.325 -0.02 +0.00    +0.000    13.503
ATOM     34  O   UNL     1      21.015  -1.749   3.183 -0.74 -0.00    +0.000    13.503
ATOM     35  H   UNL     1      21.133  -0.849   2.841 -0.03 -0.00    +0.000    13.503
TER
ENDMDL
MODEL       37
USER    Run = 37
USER    Cluster Rank = 18
USER    Number of conformations in this cluster = 1
USER  
USER    RMSD from reference structure       = 13.159 A
USER  
USER    Estimated Free Energy of Binding    =   -9.69 kcal/mol  [=(1)+(2)+(3)-(4)]
USER    Estimated Inhibition Constant, Ki   =   79.33 nM (nanomolar)  [Temperature = 298.15 K]
USER    
USER    (1) Final Intermolecular Energy     =  -12.67 kcal/mol
USER        vdW + Hbond + desolv Energy     =  -12.67 kcal/mol
USER        Electrostatic Energy            =   +0.00 kcal/mol
USER    (2) Final Total Internal Energy     =   -2.26 kcal/mol
USER    (3) Torsional Free Energy           =   +2.98 kcal/mol
USER    (4) Unbound System's Energy  [=(2)] =   -2.26 kcal/mol
USER    
USER    
USER  
USER    DPF = ligand_dock.biased.dpf
USER    NEWDPF move	ligand.pdbqt
USER    NEWDPF about	1.858000 0.218000 -0.021000
USER    NEWDPF tran0	17.840880 -12.301847 0.515282
USER    NEWDPF axisangle0	-0.384124 0.396274 -0.833916 -169.615919
USER    NEWDPF quaternion0	-0.382548 0.394648 -0.830494 -0.090494
USER    NEWDPF dihe0	-8.92 163.92 8.50 33.43 -5.18 -156.66 -112.22 132.22 55.25 110.22 
USER  
USER                              x       y       z    vdW   Elec        q     RMS 
ATOM      1  C   UNL     1      19.109 -12.668   1.497 -0.39 -0.00    +0.000    13.159
ATOM      2  C   UNL     1      19.726 -11.656   0.577 -0.58 -0.00    +0.000    13.159
ATOM      3  C   UNL     1      20.838 -10.908   0.993 -0.58 -0.00    +0.000    13.159
ATOM      4  C   UNL     1      21.395  -9.939   0.154 -0.59 -0.00    +0.000    13.159
ATOM      5  C   UNL     1      20.836  -9.694  -1.108 -0.56 -0.00    +0.000    13.159
ATOM      6  C   UNL     1      21.388  -8.722  -1.957 -0.46 -0.00    +0.000    13.159
ATOM      7  C   UNL     1      20.822  -8.477  -3.218 -0.37 -0.00    +0.000    13.159
ATOM      8  C   UNL     1      19.700  -9.215  -3.629 -0.27 -0.00    +0.000    13.159
ATOM      9  C   UNL     1      19.144 -10.183  -2.790 -0.33 -0.00    +0.000    13.159
ATOM     10  C   UNL     1      19.704 -10.432  -1.529 -0.42 -0.00    +0.000    13.159
ATOM     11  C   UNL     1      19.153 -11.403  -0.680 -0.42 -0.00    +0.000    13.159
ATOM     12  C   UNL     1      21.419  -7.449  -4.142 -0.31 -0.00    +0.000    13.159
ATOM     13  N   UNL     1      21.726  -6.211  -3.395 -0.30 -0.00    +0.000    13.159
ATOM     14  H   UNL     1      22.495  -6.409  -2.755 -0.03 -0.00    +0.000    13.159
ATOM     15  C   UNL     1      20.589  -5.799  -2.538 -0.31 -0.00    +0.000    13.159
ATOM     16  C   UNL     1      21.039  -4.906  -1.383 -0.45 +0.00    +0.000    13.159
ATOM     17  C   UNL     1      22.238  -5.136  -4.281 -0.19 -0.00    +0.000    13.159
ATOM     18  C   UNL     1      23.543  -4.487  -3.798 -0.16 -0.00    +0.000    13.159
ATOM     19  O   UNL     1      17.701 -12.693   1.291 -0.82 +0.00    +0.000    13.159
ATOM     20  O   UNL     1      16.018 -11.175   0.856 -0.37 +0.00    +0.000    13.159
ATOM     21  C   UNL     1      16.864 -11.640   1.669 -0.45 +0.00    +0.000    13.159
ATOM     22  N   UNL     1      17.010 -11.069   2.976 -0.45 +0.00    +0.000    13.159
ATOM     23  H   UNL     1      17.781 -11.352   3.518 -0.02 +0.00    +0.000    13.159
ATOM     24  C   UNL     1      16.104 -10.110   3.548 -0.42 +0.00    +0.000    13.159
ATOM     25  C   UNL     1      15.137 -10.541   4.467 -0.39 +0.00    +0.000    13.159
ATOM     26  C   UNL     1      14.231  -9.633   5.022 -0.39 +0.00    +0.000    13.159
ATOM     27  C   UNL     1      14.268  -8.275   4.663 -0.36 +0.00    +0.000    13.159
ATOM     28  C   UNL     1      15.216  -7.850   3.714 -0.33 +0.00    +0.000    13.159
ATOM     29  C   UNL     1      16.123  -8.759   3.160 -0.27 +0.00    +0.000    13.159
ATOM     30  C   UNL     1      13.297  -7.323   5.257 -0.38 +0.00    +0.000    13.159
ATOM     31  N   UNL     1      13.613  -5.935   5.415 -0.36 +0.00    +0.000    13.159
ATOM     32  O   UNL     1      12.174  -7.744   5.645 -0.34 +0.00    +0.000    13.159
ATOM     33  H   UNL     1      14.516  -5.609   5.196 -0.01 +0.00    +0.000    13.159
ATOM     34  O   UNL     1      12.675  -5.068   5.866 -0.56 +0.00    +0.000    13.159
ATOM     35  H   UNL     1      11.894  -5.561   6.160 -0.03 +0.00    +0.000    13.159
TER
ENDMDL
MODEL        9
USER    Run = 9
USER    Cluster Rank = 19
USER    Number of conformations in this cluster = 1
USER  
USER    RMSD from reference structure       = 14.149 A
USER  
USER    Estimated Free Energy of Binding    =   -9.62 kcal/mol  [=(1)+(2)+(3)-(4)]
USER    Estimated Inhibition Constant, Ki   =   88.89 nM (nanomolar)  [Temperature = 298.15 K]
USER    
USER    (1) Final Intermolecular Energy     =  -12.60 kcal/mol
USER        vdW + Hbond + desolv Energy     =  -12.60 kcal/mol
USER        Electrostatic Energy            =   +0.00 kcal/mol
USER    (2) Final Total Internal Energy     =   -2.16 kcal/mol
USER    (3) Torsional Free Energy           =   +2.98 kcal/mol
USER    (4) Unbound System's Energy  [=(2)] =   -2.16 kcal/mol
USER    
USER    
USER  
USER    DPF = ligand_dock.biased.dpf
USER    NEWDPF move	ligand.pdbqt
USER    NEWDPF about	1.858000 0.218000 -0.021000
USER    NEWDPF tran0	20.968918 -9.556110 0.064924
USER    NEWDPF axisangle0	0.668300 0.714820 -0.205931 -75.968741
USER    NEWDPF quaternion0	0.411303 0.439934 -0.126740 -0.788179
USER    NEWDPF dihe0	-56.52 132.65 3.49 -163.93 122.69 -11.47 43.25 -159.75 139.68 87.42 
USER  
USER                              x       y       z    vdW   Elec        q     RMS 
ATOM      1  C   UNL     1      21.392 -11.136   0.249 -0.45 -0.00    +0.000    14.149
ATOM      2  C   UNL     1      20.209 -11.034   1.167 -0.63 -0.00    +0.000    14.149
ATOM      3  C   UNL     1      20.352 -11.312   2.535 -0.67 -0.00    +0.000    14.149
ATOM      4  C   UNL     1      19.248 -11.253   3.389 -0.55 -0.00    +0.000    14.149
ATOM      5  C   UNL     1      17.981 -10.929   2.882 -0.45 -0.00    +0.000    14.149
ATOM      6  C   UNL     1      16.866 -10.870   3.733 -0.30 +0.00    +0.000    14.149
ATOM      7  C   UNL     1      15.598 -10.550   3.219 -0.43 +0.00    +0.000    14.149
ATOM      8  C   UNL     1      15.453 -10.285   1.848 -0.31 +0.00    +0.000    14.149
ATOM      9  C   UNL     1      16.558 -10.344   0.995 -0.29 +0.00    +0.000    14.149
ATOM     10  C   UNL     1      17.825 -10.664   1.501 -0.40 -0.00    +0.000    14.149
ATOM     11  C   UNL     1      18.941 -10.724   0.652 -0.45 -0.00    +0.000    14.149
ATOM     12  C   UNL     1      14.400 -10.465   4.127 -0.34 +0.00    +0.000    14.149
ATOM     13  N   UNL     1      14.110  -9.053   4.456 -0.36 +0.00    +0.000    14.149
ATOM     14  H   UNL     1      14.030  -8.973   5.469 -0.02 +0.00    +0.000    14.149
ATOM     15  C   UNL     1      12.795  -8.631   3.917 -0.26 +0.00    +0.000    14.149
ATOM     16  C   UNL     1      11.766  -8.417   5.026 -0.30 +0.00    +0.000    14.149
ATOM     17  C   UNL     1      15.233  -8.153   4.092 -0.39 +0.00    +0.000    14.149
ATOM     18  C   UNL     1      15.211  -6.795   4.808 -0.47 +0.00    +0.000    14.149
ATOM     19  O   UNL     1      21.483  -9.948  -0.532 -0.75 -0.00    +0.000    14.149
ATOM     20  O   UNL     1      21.283  -8.930  -2.593 -0.52 -0.00    +0.000    14.149
ATOM     21  C   UNL     1      20.894  -9.826  -1.793 -0.60 -0.00    +0.000    14.149
ATOM     22  N   UNL     1      19.817 -10.703  -2.146 -0.43 -0.00    +0.000    14.149
ATOM     23  H   UNL     1      19.442 -11.279  -1.441 -0.02 -0.00    +0.000    14.149
ATOM     24  C   UNL     1      19.248 -10.800  -3.463 -0.36 -0.00    +0.000    14.149
ATOM     25  C   UNL     1      18.003 -10.209  -3.718 -0.25 -0.00    +0.000    14.149
ATOM     26  C   UNL     1      17.417 -10.306  -4.983 -0.23 -0.00    +0.000    14.149
ATOM     27  C   UNL     1      18.061 -11.005  -6.018 -0.32 -0.00    +0.000    14.149
ATOM     28  C   UNL     1      19.293 -11.628  -5.751 -0.31 -0.00    +0.000    14.149
ATOM     29  C   UNL     1      19.879 -11.529  -4.485 -0.45 -0.00    +0.000    14.149
ATOM     30  C   UNL     1      17.425 -11.104  -7.355 -0.35 -0.00    +0.000    14.149
ATOM     31  N   UNL     1      16.384 -12.052  -7.619 -0.38 -0.00    +0.000    14.149
ATOM     32  O   UNL     1      17.815 -10.348  -8.286 -0.23 -0.00    +0.000    14.149
ATOM     33  H   UNL     1      16.129 -12.705  -6.927 -0.04 +0.00    +0.000    14.149
ATOM     34  O   UNL     1      15.749 -12.055  -8.816 -0.26 +0.00    +0.000    14.149
ATOM     35  H   UNL     1      16.153 -11.392  -9.397 -0.01 -0.00    +0.000    14.149
TER
ENDMDL
MODEL       90
USER    Run = 90
USER    Cluster Rank = 20
USER    Number of conformations in this cluster = 1
USER  
USER    RMSD from reference structure       = 13.988 A
USER  
USER    Estimated Free Energy of Binding    =   -9.61 kcal/mol  [=(1)+(2)+(3)-(4)]
USER    Estimated Inhibition Constant, Ki   =   90.96 nM (nanomolar)  [Temperature = 298.15 K]
USER    
USER    (1) Final Intermolecular Energy     =  -12.59 kcal/mol
USER        vdW + Hbond + desolv Energy     =  -12.59 kcal/mol
USER        Electrostatic Energy            =   +0.00 kcal/mol
USER    (2) Final Total Internal Energy     =   -2.20 kcal/mol
USER    (3) Torsional Free Energy           =   +2.98 kcal/mol
USER    (4) Unbound System's Energy  [=(2)] =   -2.20 kcal/mol
USER    
USER    
USER  
USER    DPF = ligand_dock.biased.dpf
USER    NEWDPF move	ligand.pdbqt
USER    NEWDPF about	1.858000 0.218000 -0.021000
USER    NEWDPF tran0	20.454163 -10.672783 1.743617
USER    NEWDPF axisangle0	-0.918864 -0.139486 0.369096 69.506685
USER    NEWDPF quaternion0	-0.523794 -0.079513 0.210401 0.821614
USER    NEWDPF dihe0	20.48 165.58 -0.86 -71.44 -105.06 -179.90 171.31 -172.58 -132.54 104.36 
USER  
USER                              x       y       z    vdW   Elec        q     RMS 
ATOM      1  C   UNL     1      19.896 -12.212   1.912 -0.74 -0.00    +0.000    13.988
ATOM      2  C   UNL     1      18.636 -11.415   2.087 -0.51 -0.00    +0.000    13.988
ATOM      3  C   UNL     1      18.681 -10.143   2.678 -0.50 -0.00    +0.000    13.988
ATOM      4  C   UNL     1      17.507  -9.412   2.876 -0.26 -0.00    +0.000    13.988
ATOM      5  C   UNL     1      16.268  -9.951   2.498 -0.37 +0.00    +0.000    13.988
ATOM      6  C   UNL     1      15.084  -9.224   2.695 -0.31 +0.00    +0.000    13.988
ATOM      7  C   UNL     1      13.846  -9.770   2.319 -0.24 +0.00    +0.000    13.988
ATOM      8  C   UNL     1      13.800 -11.049   1.742 -0.34 +0.00    +0.000    13.988
ATOM      9  C   UNL     1      14.974 -11.779   1.544 -0.42 +0.00    +0.000    13.988
ATOM     10  C   UNL     1      16.213 -11.240   1.917 -0.39 +0.00    +0.000    13.988
ATOM     11  C   UNL     1      17.397 -11.966   1.722 -0.26 +0.00    +0.000    13.988
ATOM     12  C   UNL     1      12.572  -8.989   2.510 -0.19 +0.00    +0.000    13.988
ATOM     13  N   UNL     1      12.273  -8.848   3.950 -0.23 +0.00    +0.000    13.988
ATOM     14  H   UNL     1      12.553  -9.709   4.418 -0.02 +0.00    +0.000    13.988
ATOM     15  C   UNL     1      10.816  -8.718   4.191 -0.14 +0.00    +0.000    13.988
ATOM     16  C   UNL     1      10.504  -8.408   5.654 -0.32 +0.00    +0.000    13.988
ATOM     17  C   UNL     1      13.090  -7.786   4.589 -0.30 +0.00    +0.000    13.988
ATOM     18  C   UNL     1      13.845  -8.241   5.847 -0.51 +0.00    +0.000    13.988
ATOM     19  O   UNL     1      20.935 -11.351   1.456 -1.05 -0.00    +0.000    13.988
ATOM     20  O   UNL     1      22.013 -10.229  -0.248 -0.75 -0.00    +0.000    13.988
ATOM     21  C   UNL     1      21.010 -10.893   0.138 -0.69 -0.00    +0.000    13.988
ATOM     22  N   UNL     1      19.917 -11.149  -0.753 -0.47 -0.00    +0.000    13.988
ATOM     23  H   UNL     1      19.093 -11.529  -0.372 -0.02 -0.00    +0.000    13.988
ATOM     24  C   UNL     1      19.944 -10.889  -2.167 -0.37 -0.00    +0.000    13.988
ATOM     25  C   UNL     1      21.176 -10.838  -2.833 -0.36 -0.00    +0.000    13.988
ATOM     26  C   UNL     1      21.232 -10.566  -4.203 -0.45 -0.00    +0.000    13.988
ATOM     27  C   UNL     1      20.056 -10.330  -4.934 -0.34 -0.00    +0.000    13.988
ATOM     28  C   UNL     1      18.822 -10.346  -4.257 -0.30 -0.00    +0.000    13.988
ATOM     29  C   UNL     1      18.767 -10.619  -2.887 -0.31 -0.00    +0.000    13.988
ATOM     30  C   UNL     1      20.131 -10.038  -6.386 -0.27 -0.00    +0.000    13.988
ATOM     31  N   UNL     1      20.844 -10.896  -7.285 -0.28 -0.00    +0.000    13.988
ATOM     32  O   UNL     1      19.568  -9.006  -6.842 -0.13 -0.00    +0.000    13.988
ATOM     33  H   UNL     1      21.359 -11.657  -6.931 -0.46 -0.00    +0.000    13.988
ATOM     34  O   UNL     1      20.814 -10.665  -8.619 -0.27 -0.00    +0.000    13.988
ATOM     35  H   UNL     1      20.256  -9.893  -8.801 -0.01 -0.00    +0.000    13.988
TER
ENDMDL
MODEL       19
USER    Run = 19
USER    Cluster Rank = 21
USER    Number of conformations in this cluster = 2
USER  
USER    RMSD from reference structure       = 13.573 A
USER  
USER    Estimated Free Energy of Binding    =   -9.54 kcal/mol  [=(1)+(2)+(3)-(4)]
USER    Estimated Inhibition Constant, Ki   =  101.20 nM (nanomolar)  [Temperature = 298.15 K]
USER    
USER    (1) Final Intermolecular Energy     =  -12.53 kcal/mol
USER        vdW + Hbond + desolv Energy     =  -12.53 kcal/mol
USER        Electrostatic Energy            =   +0.00 kcal/mol
USER    (2) Final Total Internal Energy     =   -2.14 kcal/mol
USER    (3) Torsional Free Energy           =   +2.98 kcal/mol
USER    (4) Unbound System's Energy  [=(2)] =   -2.14 kcal/mol
USER    
USER    
USER  
USER    DPF = ligand_dock.biased.dpf
USER    NEWDPF move	ligand.pdbqt
USER    NEWDPF about	1.858000 0.218000 -0.021000
USER    NEWDPF tran0	20.415409 -11.012895 1.644647
USER    NEWDPF axisangle0	-0.937709 -0.009011 0.347305 40.769684
USER    NEWDPF quaternion0	-0.326627 -0.003139 0.120975 0.937374
USER    NEWDPF dihe0	55.96 -30.28 9.59 17.70 158.61 -173.61 -172.00 56.27 180.00 170.33 
USER  
USER                              x       y       z    vdW   Elec        q     RMS 
ATOM      1  C   UNL     1      20.003 -12.396   2.435 -0.67 -0.00    +0.000    13.573
ATOM      2  C   UNL     1      18.654 -11.841   2.079 -0.41 -0.00    +0.000    13.573
ATOM      3  C   UNL     1      18.087 -10.815   2.848 -0.48 -0.00    +0.000    13.573
ATOM      4  C   UNL     1      16.817 -10.319   2.543 -0.41 +0.00    +0.000    13.573
ATOM      5  C   UNL     1      16.090 -10.855   1.469 -0.34 +0.00    +0.000    13.573
ATOM      6  C   UNL     1      14.813 -10.364   1.156 -0.26 +0.00    +0.000    13.573
ATOM      7  C   UNL     1      14.088 -10.907   0.083 -0.28 +0.00    +0.000    13.573
ATOM      8  C   UNL     1      14.650 -11.944  -0.679 -0.40 +0.00    +0.000    13.573
ATOM      9  C   UNL     1      15.920 -12.438  -0.372 -0.44 +0.00    +0.000    13.573
ATOM     10  C   UNL     1      16.649 -11.901   0.698 -0.42 +0.00    +0.000    13.573
ATOM     11  C   UNL     1      17.925 -12.392   1.013 -0.48 +0.00    +0.000    13.573
ATOM     12  C   UNL     1      12.725 -10.373  -0.272 -0.27 +0.00    +0.000    13.573
ATOM     13  N   UNL     1      11.789 -10.581   0.853 -0.26 +0.00    +0.000    13.573
ATOM     14  H   UNL     1      12.211 -10.187   1.693 -0.00 +0.00    +0.000    13.573
ATOM     15  C   UNL     1      11.598 -12.023   1.139 -0.39 +0.00    +0.000    13.573
ATOM     16  C   UNL     1      10.134 -12.360   1.418 -0.39 +0.00    +0.000    13.573
ATOM     17  C   UNL     1      10.524  -9.825   0.674 -0.18 +0.00    +0.000    13.573
ATOM     18  C   UNL     1      10.033  -9.751  -0.779 -0.17 -0.00    +0.000    13.573
ATOM     19  O   UNL     1      21.010 -11.651   1.758 -1.17 -0.00    +0.000    13.573
ATOM     20  O   UNL     1      19.916  -9.769   0.993 -0.59 -0.00    +0.000    13.573
ATOM     21  C   UNL     1      20.716 -10.717   0.761 -0.69 -0.00    +0.000    13.573
ATOM     22  N   UNL     1      21.301 -10.877  -0.538 -0.62 -0.00    +0.000    13.573
ATOM     23  H   UNL     1      21.790 -11.712  -0.722 +0.02 -0.00    +0.000    13.573
ATOM     24  C   UNL     1      21.222  -9.900  -1.590 -0.55 -0.00    +0.000    13.573
ATOM     25  C   UNL     1      21.359  -8.541  -1.277 -0.45 -0.00    +0.000    13.573
ATOM     26  C   UNL     1      21.265  -7.569  -2.277 -0.41 -0.00    +0.000    13.573
ATOM     27  C   UNL     1      21.023  -7.937  -3.611 -0.33 -0.00    +0.000    13.573
ATOM     28  C   UNL     1      20.850  -9.299  -3.918 -0.36 -0.00    +0.000    13.573
ATOM     29  C   UNL     1      20.945 -10.271  -2.917 -0.48 -0.00    +0.000    13.573
ATOM     30  C   UNL     1      20.921  -6.894  -4.661 -0.23 -0.00    +0.000    13.573
ATOM     31  N   UNL     1      20.173  -5.691  -4.449 -0.16 -0.00    +0.000    13.573
ATOM     32  O   UNL     1      21.492  -7.073  -5.771 -0.15 -0.00    +0.000    13.573
ATOM     33  H   UNL     1      19.653  -5.576  -3.621 -0.02 -0.00    +0.000    13.573
ATOM     34  O   UNL     1      20.178  -4.709  -5.383 -0.08 -0.00    +0.000    13.573
ATOM     35  H   UNL     1      20.606  -5.034  -6.191 +0.00 -0.00    +0.000    13.573
TER
ENDMDL
MODEL       69
USER    Run = 69
USER    Cluster Rank = 22
USER    Number of conformations in this cluster = 1
USER  
USER    RMSD from reference structure       = 17.173 A
USER  
USER    Estimated Free Energy of Binding    =   -9.54 kcal/mol  [=(1)+(2)+(3)-(4)]
USER    Estimated Inhibition Constant, Ki   =  102.24 nM (nanomolar)  [Temperature = 298.15 K]
USER    
USER    (1) Final Intermolecular Energy     =  -12.52 kcal/mol
USER        vdW + Hbond + desolv Energy     =  -12.52 kcal/mol
USER        Electrostatic Energy            =   +0.00 kcal/mol
USER    (2) Final Total Internal Energy     =   -2.21 kcal/mol
USER    (3) Torsional Free Energy           =   +2.98 kcal/mol
USER    (4) Unbound System's Energy  [=(2)] =   -2.21 kcal/mol
USER    
USER    
USER  
USER    DPF = ligand_dock.biased.dpf
USER    NEWDPF move	ligand.pdbqt
USER    NEWDPF about	1.858000 0.218000 -0.021000
USER    NEWDPF tran0	22.336359 -8.166674 -4.713780
USER    NEWDPF axisangle0	-0.828334 -0.194854 0.525256 -149.797170
USER    NEWDPF quaternion0	-0.799729 -0.188125 0.507117 -0.260528
USER    NEWDPF dihe0	-13.54 16.58 10.07 85.55 -62.05 -29.62 -155.12 174.56 -44.61 -85.27 
USER  
USER                              x       y       z    vdW   Elec        q     RMS 
ATOM      1  C   UNL     1      20.883  -7.394  -4.727 -0.24 -0.00    +0.000    17.173
ATOM      2  C   UNL     1      20.772  -8.220  -3.479 -0.34 -0.00    +0.000    17.173
ATOM      3  C   UNL     1      21.742  -8.111  -2.471 -0.26 -0.00    +0.000    17.173
ATOM      4  C   UNL     1      21.663  -8.903  -1.323 -0.21 -0.00    +0.000    17.173
ATOM      5  C   UNL     1      20.619  -9.827  -1.173 -0.54 -0.00    +0.000    17.173
ATOM      6  C   UNL     1      20.533 -10.627  -0.024 -0.60 -0.00    +0.000    17.173
ATOM      7  C   UNL     1      19.488 -11.555   0.118 -0.51 -0.00    +0.000    17.173
ATOM      8  C   UNL     1      18.525 -11.674  -0.897 -0.39 -0.00    +0.000    17.173
ATOM      9  C   UNL     1      18.605 -10.882  -2.044 -0.32 -0.00    +0.000    17.173
ATOM     10  C   UNL     1      19.646  -9.955  -2.193 -0.31 -0.00    +0.000    17.173
ATOM     11  C   UNL     1      19.733  -9.155  -3.342 -0.25 -0.00    +0.000    17.173
ATOM     12  C   UNL     1      19.377 -12.404   1.357 -0.64 -0.00    +0.000    17.173
ATOM     13  N   UNL     1      18.728 -11.638   2.443 -0.51 -0.00    +0.000    17.173
ATOM     14  H   UNL     1      17.885 -12.138   2.722 +0.06 +0.00    +0.000    17.173
ATOM     15  C   UNL     1      18.269 -10.311   1.969 -0.50 -0.00    +0.000    17.173
ATOM     16  C   UNL     1      17.076  -9.799   2.775 -0.47 +0.00    +0.000    17.173
ATOM     17  C   UNL     1      19.564 -11.590   3.668 -0.65 -0.00    +0.000    17.173
ATOM     18  C   UNL     1      20.639 -10.494   3.656 -0.53 -0.00    +0.000    17.173
ATOM     19  O   UNL     1      22.224  -7.446  -5.205 -0.25 -0.00    +0.000    17.173
ATOM     20  O   UNL     1      23.809  -8.282  -6.657 -0.23 -0.00    +0.000    17.173
ATOM     21  C   UNL     1      22.644  -8.356  -6.177 -0.20 -0.00    +0.000    17.173
ATOM     22  N   UNL     1      21.721  -9.345  -6.651 -0.21 -0.00    +0.000    17.173
ATOM     23  H   UNL     1      20.781  -9.270  -6.369 +0.00 -0.00    +0.000    17.173
ATOM     24  C   UNL     1      22.077 -10.441  -7.512 -0.27 -0.00    +0.000    17.173
ATOM     25  C   UNL     1      23.073 -11.339  -7.105 -0.41 -0.00    +0.000    17.173
ATOM     26  C   UNL     1      23.453 -12.400  -7.932 -0.41 -0.00    +0.000    17.173
ATOM     27  C   UNL     1      22.848 -12.580  -9.188 -0.33 -0.00    +0.000    17.173
ATOM     28  C   UNL     1      21.874 -11.658  -9.610 -0.12 -0.00    +0.000    17.173
ATOM     29  C   UNL     1      21.494 -10.597  -8.782 -0.21 -0.00    +0.000    17.173
ATOM     30  C   UNL     1      23.265 -13.708 -10.056 -0.45 -0.00    +0.000    17.173
ATOM     31  N   UNL     1      22.550 -14.950 -10.062 -0.45 +0.00    +0.000    17.173
ATOM     32  O   UNL     1      24.277 -13.581 -10.797 -0.32 -0.00    +0.000    17.173
ATOM     33  H   UNL     1      21.811 -15.093  -9.427 -0.48 +0.00    +0.000    17.173
ATOM     34  O   UNL     1      22.887 -15.929 -10.936 -0.93 +0.00    +0.000    17.173
ATOM     35  H   UNL     1      23.721 -15.698 -11.373 -0.02 +0.00    +0.000    17.173
TER
ENDMDL
MODEL       87
USER    Run = 87
USER    Cluster Rank = 23
USER    Number of conformations in this cluster = 1
USER  
USER    RMSD from reference structure       = 14.216 A
USER  
USER    Estimated Free Energy of Binding    =   -9.53 kcal/mol  [=(1)+(2)+(3)-(4)]
USER    Estimated Inhibition Constant, Ki   =  103.21 nM (nanomolar)  [Temperature = 298.15 K]
USER    
USER    (1) Final Intermolecular Energy     =  -12.51 kcal/mol
USER        vdW + Hbond + desolv Energy     =  -12.51 kcal/mol
USER        Electrostatic Energy            =   +0.00 kcal/mol
USER    (2) Final Total Internal Energy     =   -2.21 kcal/mol
USER    (3) Torsional Free Energy           =   +2.98 kcal/mol
USER    (4) Unbound System's Energy  [=(2)] =   -2.21 kcal/mol
USER    
USER    
USER  
USER    DPF = ligand_dock.biased.dpf
USER    NEWDPF move	ligand.pdbqt
USER    NEWDPF about	1.858000 0.218000 -0.021000
USER    NEWDPF tran0	20.617262 -11.662870 -0.631956
USER    NEWDPF axisangle0	-0.585229 0.005244 -0.810851 -142.585691
USER    NEWDPF quaternion0	-0.554312 0.004967 -0.768014 -0.320731
USER    NEWDPF dihe0	88.76 145.60 11.36 130.52 174.02 151.30 -160.55 -100.69 35.69 73.67 
USER  
USER                              x       y       z    vdW   Elec        q     RMS 
ATOM      1  C   UNL     1      21.607 -10.540   0.052 -0.53 -0.00    +0.000    14.216
ATOM      2  C   UNL     1      21.361  -9.938  -1.300 -0.57 -0.00    +0.000    14.216
ATOM      3  C   UNL     1      21.076  -8.569  -1.423 -0.46 -0.00    +0.000    14.216
ATOM      4  C   UNL     1      20.811  -8.010  -2.675 -0.35 -0.00    +0.000    14.216
ATOM      5  C   UNL     1      20.813  -8.816  -3.823 -0.34 -0.00    +0.000    14.216
ATOM      6  C   UNL     1      20.547  -8.263  -5.085 -0.20 -0.00    +0.000    14.216
ATOM      7  C   UNL     1      20.545  -9.076  -6.229 -0.17 -0.00    +0.000    14.216
ATOM      8  C   UNL     1      20.816 -10.447  -6.106 -0.32 -0.00    +0.000    14.216
ATOM      9  C   UNL     1      21.081 -11.006  -4.853 -0.47 -0.00    +0.000    14.216
ATOM     10  C   UNL     1      21.083 -10.200  -3.706 -0.45 -0.00    +0.000    14.216
ATOM     11  C   UNL     1      21.349 -10.752  -2.444 -0.37 -0.00    +0.000    14.216
ATOM     12  C   UNL     1      20.279  -8.486  -7.590 -0.10 -0.00    +0.000    14.216
ATOM     13  N   UNL     1      18.860  -8.678  -7.958 -0.08 -0.00    +0.000    14.216
ATOM     14  H   UNL     1      18.654  -8.074  -8.753 +0.00 -0.00    +0.000    14.216
ATOM     15  C   UNL     1      17.954  -8.235  -6.873 -0.08 -0.00    +0.000    14.216
ATOM     16  C   UNL     1      17.344  -9.416  -6.120 -0.15 -0.00    +0.000    14.216
ATOM     17  C   UNL     1      18.592 -10.054  -8.449 -0.21 -0.00    +0.000    14.216
ATOM     18  C   UNL     1      17.492 -10.140  -9.517 -0.15 -0.00    +0.000    14.216
ATOM     19  O   UNL     1      20.728 -11.644   0.241 -0.70 -0.00    +0.000    14.216
ATOM     20  O   UNL     1      19.669 -12.119   2.235 -1.54 -0.00    +0.000    14.216
ATOM     21  C   UNL     1      19.619 -11.590   1.090 -0.69 -0.00    +0.000    14.216
ATOM     22  N   UNL     1      18.416 -10.965   0.626 -0.43 -0.00    +0.000    14.216
ATOM     23  H   UNL     1      18.368 -10.707  -0.323 -0.01 -0.00    +0.000    14.216
ATOM     24  C   UNL     1      17.273 -10.688   1.454 -0.37 +0.00    +0.000    14.216
ATOM     25  C   UNL     1      17.450  -9.993   2.658 -0.42 +0.00    +0.000    14.216
ATOM     26  C   UNL     1      16.360  -9.730   3.492 -0.32 +0.00    +0.000    14.216
ATOM     27  C   UNL     1      15.070 -10.166   3.143 -0.38 +0.00    +0.000    14.216
ATOM     28  C   UNL     1      14.900 -10.894   1.952 -0.36 +0.00    +0.000    14.216
ATOM     29  C   UNL     1      15.991 -11.156   1.117 -0.35 +0.00    +0.000    14.216
ATOM     30  C   UNL     1      13.923  -9.883   4.040 -0.38 +0.00    +0.000    14.216
ATOM     31  N   UNL     1      14.098  -9.745   5.455 -0.46 +0.00    +0.000    14.216
ATOM     32  O   UNL     1      12.765  -9.776   3.553 -0.28 +0.00    +0.000    14.216
ATOM     33  H   UNL     1      14.981  -9.910   5.859 -0.04 +0.00    +0.000    14.216
ATOM     34  O   UNL     1      13.054  -9.387   6.241 -0.77 +0.00    +0.000    14.216
ATOM     35  H   UNL     1      12.232  -9.437   5.730 -0.04 +0.00    +0.000    14.216
TER
ENDMDL
MODEL       74
USER    Run = 74
USER    Cluster Rank = 24
USER    Number of conformations in this cluster = 1
USER  
USER    RMSD from reference structure       = 16.923 A
USER  
USER    Estimated Free Energy of Binding    =   -9.47 kcal/mol  [=(1)+(2)+(3)-(4)]
USER    Estimated Inhibition Constant, Ki   =  114.44 nM (nanomolar)  [Temperature = 298.15 K]
USER    
USER    (1) Final Intermolecular Energy     =  -12.45 kcal/mol
USER        vdW + Hbond + desolv Energy     =  -12.45 kcal/mol
USER        Electrostatic Energy            =   +0.00 kcal/mol
USER    (2) Final Total Internal Energy     =   -1.67 kcal/mol
USER    (3) Torsional Free Energy           =   +2.98 kcal/mol
USER    (4) Unbound System's Energy  [=(2)] =   -1.67 kcal/mol
USER    
USER    
USER  
USER    DPF = ligand_dock.biased.dpf
USER    NEWDPF move	ligand.pdbqt
USER    NEWDPF about	1.858000 0.218000 -0.021000
USER    NEWDPF tran0	20.039806 -11.371245 -3.504078
USER    NEWDPF axisangle0	0.678645 -0.683525 -0.268766 89.629263
USER    NEWDPF quaternion0	0.478319 -0.481759 -0.189430 0.709391
USER    NEWDPF dihe0	-170.07 136.43 9.34 -179.99 180.00 1.15 134.62 132.22 34.61 19.15 
USER  
USER                              x       y       z    vdW   Elec        q     RMS 
ATOM      1  C   UNL     1      21.200 -10.359  -2.925 -0.55 -0.00    +0.000    16.923
ATOM      2  C   UNL     1      20.365 -10.589  -1.699 -0.46 -0.00    +0.000    16.923
ATOM      3  C   UNL     1      20.979 -10.867  -0.468 -0.53 -0.00    +0.000    16.923
ATOM      4  C   UNL     1      20.206 -11.117   0.669 -0.61 -0.00    +0.000    16.923
ATOM      5  C   UNL     1      18.807 -11.108   0.586 -0.48 -0.00    +0.000    16.923
ATOM      6  C   UNL     1      18.023 -11.360   1.723 -0.45 -0.00    +0.000    16.923
ATOM      7  C   UNL     1      16.621 -11.354   1.633 -0.39 +0.00    +0.000    16.923
ATOM      8  C   UNL     1      16.007 -11.090   0.398 -0.33 +0.00    +0.000    16.923
ATOM      9  C   UNL     1      16.780 -10.840  -0.738 -0.30 -0.00    +0.000    16.923
ATOM     10  C   UNL     1      18.180 -10.845  -0.655 -0.35 -0.00    +0.000    16.923
ATOM     11  C   UNL     1      18.964 -10.594  -1.791 -0.35 -0.00    +0.000    16.923
ATOM     12  C   UNL     1      15.772 -11.604   2.852 -0.47 +0.00    +0.000    16.923
ATOM     13  N   UNL     1      15.037 -10.376   3.220 -0.40 +0.00    +0.000    16.923
ATOM     14  H   UNL     1      14.972 -10.339   4.237 -0.03 +0.00    +0.000    16.923
ATOM     15  C   UNL     1      13.638 -10.415   2.732 -0.34 +0.00    +0.000    16.923
ATOM     16  C   UNL     1      13.359 -11.666   1.900 -0.42 +0.00    +0.000    16.923
ATOM     17  C   UNL     1      15.778  -9.147   2.842 -0.40 +0.00    +0.000    16.923
ATOM     18  C   UNL     1      15.391  -7.901   3.653 -0.38 +0.00    +0.000    16.923
ATOM     19  O   UNL     1      20.792 -11.262  -3.947 -0.53 -0.00    +0.000    16.923
ATOM     20  O   UNL     1      21.786 -12.776  -5.376 -0.81 -0.00    +0.000    16.923
ATOM     21  C   UNL     1      21.597 -11.573  -5.046 -0.55 -0.00    +0.000    16.923
ATOM     22  N   UNL     1      22.239 -10.510  -5.762 -0.38 -0.00    +0.000    16.923
ATOM     23  H   UNL     1      22.194  -9.604  -5.378 -0.02 -0.00    +0.000    16.923
ATOM     24  C   UNL     1      22.944 -10.678  -7.004 -0.34 -0.00    +0.000    16.923
ATOM     25  C   UNL     1      23.266 -11.969  -7.442 -0.47 -0.00    +0.000    16.923
ATOM     26  C   UNL     1      23.969 -12.159  -8.635 -0.40 -0.00    +0.000    16.923
ATOM     27  C   UNL     1      24.373 -11.059  -9.410 -0.22 -0.00    +0.000    16.923
ATOM     28  C   UNL     1      24.080  -9.762  -8.951 -0.14 -0.00    +0.000    16.923
ATOM     29  C   UNL     1      23.376  -9.573  -7.758 -0.21 -0.00    +0.000    16.923
ATOM     30  C   UNL     1      25.123 -11.276 -10.672 -0.18 -0.00    +0.000    16.923
ATOM     31  N   UNL     1      25.862 -12.482 -10.904 -0.14 -0.00    +0.000    16.923
ATOM     32  O   UNL     1      25.125 -10.377 -11.556 -0.07 -0.00    +0.000    16.923
ATOM     33  H   UNL     1      25.939 -13.155 -10.189 -0.56 -0.00    +0.000    16.923
ATOM     34  O   UNL     1      26.454 -12.700 -12.102 -0.20 -0.00    +0.000    16.923
ATOM     35  H   UNL     1      26.411 -11.892 -12.637 -0.00 -0.00    +0.000    16.923
TER
ENDMDL
MODEL       22
USER    Run = 22
USER    Cluster Rank = 25
USER    Number of conformations in this cluster = 2
USER  
USER    RMSD from reference structure       = 11.355 A
USER  
USER    Estimated Free Energy of Binding    =   -9.39 kcal/mol  [=(1)+(2)+(3)-(4)]
USER    Estimated Inhibition Constant, Ki   =  131.93 nM (nanomolar)  [Temperature = 298.15 K]
USER    
USER    (1) Final Intermolecular Energy     =  -12.37 kcal/mol
USER        vdW + Hbond + desolv Energy     =  -12.37 kcal/mol
USER        Electrostatic Energy            =   +0.00 kcal/mol
USER    (2) Final Total Internal Energy     =   -2.89 kcal/mol
USER    (3) Torsional Free Energy           =   +2.98 kcal/mol
USER    (4) Unbound System's Energy  [=(2)] =   -2.89 kcal/mol
USER    
USER    
USER  
USER    DPF = ligand_dock.biased.dpf
USER    NEWDPF move	ligand.pdbqt
USER    NEWDPF about	1.858000 0.218000 -0.021000
USER    NEWDPF tran0	12.861218 -10.914180 -1.019187
USER    NEWDPF axisangle0	-0.772302 0.293083 0.563606 165.661218
USER    NEWDPF quaternion0	-0.766264 0.290792 0.559199 0.124803
USER    NEWDPF dihe0	-77.70 180.00 -3.69 4.07 151.13 0.52 93.12 80.56 168.61 -175.90 
USER  
USER                              x       y       z    vdW   Elec        q     RMS 
ATOM      1  C   UNL     1      11.636 -10.095  -1.751 -0.20 -0.00    +0.000    11.355
ATOM      2  C   UNL     1      11.866  -9.258  -0.527 -0.14 -0.00    +0.000    11.355
ATOM      3  C   UNL     1      11.146  -9.516   0.650 -0.13 +0.00    +0.000    11.355
ATOM      4  C   UNL     1      11.329  -8.718   1.782 -0.10 +0.00    +0.000    11.355
ATOM      5  C   UNL     1      12.227  -7.641   1.748 -0.08 +0.00    +0.000    11.355
ATOM      6  C   UNL     1      12.416  -6.834   2.880 -0.09 +0.00    +0.000    11.355
ATOM      7  C   UNL     1      13.312  -5.754   2.839 -0.14 +0.00    +0.000    11.355
ATOM      8  C   UNL     1      14.022  -5.487   1.658 -0.17 -0.00    +0.000    11.355
ATOM      9  C   UNL     1      13.839  -6.285   0.526 -0.18 -0.00    +0.000    11.355
ATOM     10  C   UNL     1      12.944  -7.365   0.561 -0.12 -0.00    +0.000    11.355
ATOM     11  C   UNL     1      12.754  -8.172  -0.571 -0.11 -0.00    +0.000    11.355
ATOM     12  C   UNL     1      13.536  -4.894   4.056 -0.26 +0.00    +0.000    11.355
ATOM     13  N   UNL     1      14.905  -5.095   4.576 -0.38 +0.00    +0.000    11.355
ATOM     14  H   UNL     1      15.537  -5.178   3.781 -0.03 +0.00    +0.000    11.355
ATOM     15  C   UNL     1      15.020  -6.375   5.315 -0.45 +0.00    +0.000    11.355
ATOM     16  C   UNL     1      15.388  -7.535   4.392 -0.41 +0.00    +0.000    11.355
ATOM     17  C   UNL     1      15.395  -3.913   5.329 -0.54 +0.00    +0.000    11.355
ATOM     18  C   UNL     1      16.567  -3.180   4.659 -0.50 -0.00    +0.000    11.355
ATOM     19  O   UNL     1      12.686 -11.049  -1.871 -0.29 -0.00    +0.000    11.355
ATOM     20  O   UNL     1      13.467 -11.832   0.155 -0.45 +0.00    +0.000    11.355
ATOM     21  C   UNL     1      13.691 -11.191  -0.910 -0.36 +0.00    +0.000    11.355
ATOM     22  N   UNL     1      14.960 -10.562  -1.130 -0.26 -0.00    +0.000    11.355
ATOM     23  H   UNL     1      15.040  -9.944  -1.893 -0.00 -0.00    +0.000    11.355
ATOM     24  C   UNL     1      16.124 -10.773  -0.313 -0.29 +0.00    +0.000    11.355
ATOM     25  C   UNL     1      16.038 -10.567   1.071 -0.31 +0.00    +0.000    11.355
ATOM     26  C   UNL     1      17.160 -10.745   1.885 -0.40 +0.00    +0.000    11.355
ATOM     27  C   UNL     1      18.394 -11.124   1.330 -0.47 -0.00    +0.000    11.355
ATOM     28  C   UNL     1      18.487 -11.296  -0.062 -0.44 -0.00    +0.000    11.355
ATOM     29  C   UNL     1      17.364 -11.119  -0.877 -0.32 -0.00    +0.000    11.355
ATOM     30  C   UNL     1      19.577 -11.305   2.207 -0.71 -0.00    +0.000    11.355
ATOM     31  N   UNL     1      19.981 -10.290   3.134 -0.61 -0.00    +0.000    11.355
ATOM     32  O   UNL     1      20.253 -12.366   2.127 -1.64 -0.00    +0.000    11.355
ATOM     33  H   UNL     1      19.515  -9.423   3.147 -0.56 -0.00    +0.000    11.355
ATOM     34  O   UNL     1      21.003 -10.519   3.995 -0.72 -0.00    +0.000    11.355
ATOM     35  H   UNL     1      21.312 -11.432   3.894 -0.51 -0.00    +0.000    11.355
TER
ENDMDL
MODEL       64
USER    Run = 64
USER    Cluster Rank = 26
USER    Number of conformations in this cluster = 1
USER  
USER    RMSD from reference structure       = 10.787 A
USER  
USER    Estimated Free Energy of Binding    =   -8.92 kcal/mol  [=(1)+(2)+(3)-(4)]
USER    Estimated Inhibition Constant, Ki   =  290.24 nM (nanomolar)  [Temperature = 298.15 K]
USER    
USER    (1) Final Intermolecular Energy     =  -11.90 kcal/mol
USER        vdW + Hbond + desolv Energy     =  -11.90 kcal/mol
USER        Electrostatic Energy            =   +0.00 kcal/mol
USER    (2) Final Total Internal Energy     =   -1.94 kcal/mol
USER    (3) Torsional Free Energy           =   +2.98 kcal/mol
USER    (4) Unbound System's Energy  [=(2)] =   -1.94 kcal/mol
USER    
USER    
USER  
USER    DPF = ligand_dock.biased.dpf
USER    NEWDPF move	ligand.pdbqt
USER    NEWDPF about	1.858000 0.218000 -0.021000
USER    NEWDPF tran0	14.788480 -3.610026 4.658872
USER    NEWDPF axisangle0	0.129761 -0.543791 0.829128 -78.221627
USER    NEWDPF quaternion0	0.081856 -0.343035 0.523033 -0.775927
USER    NEWDPF dihe0	-71.76 -118.32 5.40 127.57 113.24 121.28 141.85 97.12 -140.28 144.18 
USER  
USER                              x       y       z    vdW   Elec        q     RMS 
ATOM      1  C   UNL     1      14.655  -4.747   5.841 -0.49 +0.00    +0.000    10.787
ATOM      2  C   UNL     1      14.676  -5.600   4.607 -0.36 +0.00    +0.000    10.787
ATOM      3  C   UNL     1      13.981  -5.196   3.457 -0.21 +0.00    +0.000    10.787
ATOM      4  C   UNL     1      13.967  -6.003   2.317 -0.19 +0.00    +0.000    10.787
ATOM      5  C   UNL     1      14.638  -7.234   2.316 -0.24 +0.00    +0.000    10.787
ATOM      6  C   UNL     1      14.628  -8.052   1.175 -0.23 +0.00    +0.000    10.787
ATOM      7  C   UNL     1      15.298  -9.286   1.182 -0.25 +0.00    +0.000    10.787
ATOM      8  C   UNL     1      15.981  -9.698   2.337 -0.34 +0.00    +0.000    10.787
ATOM      9  C   UNL     1      15.995  -8.890   3.477 -0.32 +0.00    +0.000    10.787
ATOM     10  C   UNL     1      15.327  -7.657   3.477 -0.26 +0.00    +0.000    10.787
ATOM     11  C   UNL     1      15.336  -6.839   4.617 -0.40 +0.00    +0.000    10.787
ATOM     12  C   UNL     1      15.308 -10.161  -0.044 -0.29 +0.00    +0.000    10.787
ATOM     13  N   UNL     1      14.854 -11.526   0.301 -0.35 +0.00    +0.000    10.787
ATOM     14  H   UNL     1      14.596 -12.002  -0.563 -0.01 +0.00    +0.000    10.787
ATOM     15  C   UNL     1      13.623 -11.495   1.125 -0.43 +0.00    +0.000    10.787
ATOM     16  C   UNL     1      12.362 -11.628   0.271 -0.39 +0.00    +0.000    10.787
ATOM     17  C   UNL     1      15.948 -12.349   0.876 -0.48 +0.00    +0.000    10.787
ATOM     18  C   UNL     1      17.231 -12.371   0.032 -0.53 +0.00    +0.000    10.787
ATOM     19  O   UNL     1      14.989  -3.407   5.491 -0.52 -0.00    +0.000    10.787
ATOM     20  O   UNL     1      15.545  -2.843   3.324 -0.40 -0.00    +0.000    10.787
ATOM     21  C   UNL     1      15.925  -3.097   4.501 -0.52 -0.00    +0.000    10.787
ATOM     22  N   UNL     1      17.320  -3.115   4.829 -0.35 -0.00    +0.000    10.787
ATOM     23  H   UNL     1      17.580  -3.470   5.710 -0.20 -0.00    +0.000    10.787
ATOM     24  C   UNL     1      18.365  -2.648   3.959 -0.24 -0.00    +0.000    10.787
ATOM     25  C   UNL     1      18.045  -2.248   2.654 -0.43 -0.00    +0.000    10.787
ATOM     26  C   UNL     1      19.045  -1.811   1.781 -0.37 -0.00    +0.000    10.787
ATOM     27  C   UNL     1      20.388  -1.773   2.193 -0.51 -0.00    +0.000    10.787
ATOM     28  C   UNL     1      20.712  -2.208   3.491 -0.72 -0.00    +0.000    10.787
ATOM     29  C   UNL     1      19.711  -2.645   4.364 -0.40 -0.00    +0.000    10.787
ATOM     30  C   UNL     1      21.439  -1.310   1.253 -0.41 -0.00    +0.000    10.787
ATOM     31  N   UNL     1      22.113  -2.223   0.379 -0.35 -0.00    +0.000    10.787
ATOM     32  O   UNL     1      21.759  -0.091   1.231 -0.32 -0.00    +0.000    10.787
ATOM     33  H   UNL     1      21.934  -3.189   0.445 -0.05 +0.00    +0.000    10.787
ATOM     34  O   UNL     1      22.995  -1.763  -0.541 -0.32 -0.00    +0.000    10.787
ATOM     35  H   UNL     1      23.120  -0.809  -0.420 -0.01 -0.00    +0.000    10.787
TER
ENDMDL
MODEL        5
USER    Run = 5
USER    Cluster Rank = 27
USER    Number of conformations in this cluster = 1
USER  
USER    RMSD from reference structure       = 14.684 A
USER  
USER    Estimated Free Energy of Binding    =   -8.24 kcal/mol  [=(1)+(2)+(3)-(4)]
USER    Estimated Inhibition Constant, Ki   =  910.41 nM (nanomolar)  [Temperature = 298.15 K]
USER    
USER    (1) Final Intermolecular Energy     =  -11.22 kcal/mol
USER        vdW + Hbond + desolv Energy     =  -11.22 kcal/mol
USER        Electrostatic Energy            =   +0.00 kcal/mol
USER    (2) Final Total Internal Energy     =   -3.08 kcal/mol
USER    (3) Torsional Free Energy           =   +2.98 kcal/mol
USER    (4) Unbound System's Energy  [=(2)] =   -3.08 kcal/mol
USER    
USER    
USER  
USER    DPF = ligand_dock.biased.dpf
USER    NEWDPF move	ligand.pdbqt
USER    NEWDPF about	1.858000 0.218000 -0.021000
USER    NEWDPF tran0	21.865656 -7.875520 -4.420066
USER    NEWDPF axisangle0	0.906061 0.381475 0.183114 -175.897220
USER    NEWDPF quaternion0	0.905480 0.381230 0.182997 -0.035796
USER    NEWDPF dihe0	26.35 -157.53 6.84 -174.43 -176.21 -179.96 -120.21 -119.12 161.19 179.33 
USER  
USER                              x       y       z    vdW   Elec        q     RMS 
ATOM      1  C   UNL     1      21.857  -7.409  -5.998 -0.17 -0.00    +0.000    14.684
ATOM      2  C   UNL     1      20.696  -8.359  -5.961 -0.15 -0.00    +0.000    14.684
ATOM      3  C   UNL     1      20.855  -9.685  -6.393 -0.22 -0.00    +0.000    14.684
ATOM      4  C   UNL     1      19.769 -10.564  -6.395 -0.29 -0.00    +0.000    14.684
ATOM      5  C   UNL     1      18.505 -10.125  -5.976 -0.23 -0.00    +0.000    14.684
ATOM      6  C   UNL     1      17.409 -11.001  -5.975 -0.30 -0.00    +0.000    14.684
ATOM      7  C   UNL     1      16.144 -10.554  -5.560 -0.21 -0.00    +0.000    14.684
ATOM      8  C   UNL     1      15.982  -9.225  -5.140 -0.14 -0.00    +0.000    14.684
ATOM      9  C   UNL     1      17.068  -8.346  -5.139 -0.13 -0.00    +0.000    14.684
ATOM     10  C   UNL     1      18.333  -8.785  -5.554 -0.14 -0.00    +0.000    14.684
ATOM     11  C   UNL     1      19.430  -7.910  -5.556 -0.13 -0.00    +0.000    14.684
ATOM     12  C   UNL     1      14.966 -11.493  -5.538 -0.30 -0.00    +0.000    14.684
ATOM     13  N   UNL     1      14.579 -11.856  -6.918 -0.26 -0.00    +0.000    14.684
ATOM     14  H   UNL     1      13.561 -11.861  -6.971 -0.00 -0.00    +0.000    14.684
ATOM     15  C   UNL     1      15.005 -13.235  -7.255 -0.32 +0.00    +0.000    14.684
ATOM     16  C   UNL     1      14.893 -13.517  -8.753 -0.40 +0.00    +0.000    14.684
ATOM     17  C   UNL     1      15.005 -10.831  -7.904 -0.18 -0.00    +0.000    14.684
ATOM     18  C   UNL     1      13.959  -9.739  -8.171 -0.06 -0.00    +0.000    14.684
ATOM     19  O   UNL     1      22.291  -7.146  -4.667 -0.24 -0.00    +0.000    14.684
ATOM     20  O   UNL     1      21.160  -6.966  -2.664 -0.46 -0.00    +0.000    14.684
ATOM     21  C   UNL     1      21.673  -7.708  -3.547 -0.31 -0.00    +0.000    14.684
ATOM     22  N   UNL     1      21.669  -9.133  -3.395 -0.41 -0.00    +0.000    14.684
ATOM     23  H   UNL     1      22.214  -9.664  -4.021 -0.03 -0.00    +0.000    14.684
ATOM     24  C   UNL     1      20.922  -9.841  -2.390 -0.50 -0.00    +0.000    14.684
ATOM     25  C   UNL     1      19.631 -10.299  -2.689 -0.39 -0.00    +0.000    14.684
ATOM     26  C   UNL     1      18.876 -10.970  -1.724 -0.37 -0.00    +0.000    14.684
ATOM     27  C   UNL     1      19.393 -11.190  -0.436 -0.47 -0.00    +0.000    14.684
ATOM     28  C   UNL     1      20.674 -10.698  -0.126 -0.60 -0.00    +0.000    14.684
ATOM     29  C   UNL     1      21.430 -10.027  -1.093 -0.57 -0.00    +0.000    14.684
ATOM     30  C   UNL     1      18.577 -11.900   0.580 -0.58 -0.00    +0.000    14.684
ATOM     31  N   UNL     1      17.157 -12.023   0.444 -0.45 +0.00    +0.000    14.684
ATOM     32  O   UNL     1      19.141 -12.395   1.594 -1.33 -0.00    +0.000    14.684
ATOM     33  H   UNL     1      16.693 -11.569  -0.297 -0.00 +0.00    +0.000    14.684
ATOM     34  O   UNL     1      16.447 -12.762   1.330 -0.98 +0.00    +0.000    14.684
ATOM     35  H   UNL     1      17.029 -13.049   2.051 +0.12 +0.00    +0.000    14.684
TER
ENDMDL


AVSFLD: # AVS field file
AVSFLD: #
AVSFLD: # Created by AutoDock
AVSFLD: #
AVSFLD: ndim=2           # number of dimensions in the field
AVSFLD: nspace=1         # number of physical coordinates
AVSFLD: veclen=7         # vector size
AVSFLD: dim1=35          # atoms
AVSFLD: dim2=27          # conformations
AVSFLD: data=Real       # data type (byte,integer,Real,double)
AVSFLD: field=uniform    # field coordinate layout
AVSFLD: label= x y z vdW Elec q RMS
AVSFLD: variable 1 file = ligand_dock.biased.dlg.pdb filetype = ascii offset = 5 stride = 12
AVSFLD: variable 2 file = ligand_dock.biased.dlg.pdb filetype = ascii offset = 6 stride = 12
AVSFLD: variable 3 file = ligand_dock.biased.dlg.pdb filetype = ascii offset = 7 stride = 12
AVSFLD: variable 4 file = ligand_dock.biased.dlg.pdb filetype = ascii offset = 8 stride = 12
AVSFLD: variable 5 file = ligand_dock.biased.dlg.pdb filetype = ascii offset = 9 stride = 12
AVSFLD: variable 6 file = ligand_dock.biased.dlg.pdb filetype = ascii offset = 10 stride = 12
AVSFLD: variable 7 file = ligand_dock.biased.dlg.pdb filetype = ascii offset = 11 stride = 12
AVSFLD: # end of file

>>> Closing the docking parameter file (DPF)...
This docking finished at:			5:48 44" p.m., 11/03/2024


________________________________________________________________________________

autodock4: Successful Completion on "ThinkStation-P620"

Real= 17m 29.07s,  CPU= 17m 28.74s,  System= 0.20s
________________________________________________________________________________

