REMARK  Name = 
REMARK  5 active torsions:
REMARK  status: ('A' for Active; 'I' for Inactive)
REMARK    1  A    between atoms: O_1  and  N_2
REMARK    2  A    between atoms: C_3  and  C_4
REMARK    3  A    between atoms: C_4  and  C_5
REMARK    4  A    between atoms: C_5  and  C_6
REMARK    5  A    between atoms: C_6  and  C_7
REMARK                            x       y       z     vdW  Elec       q    Type
REMARK                         _______ _______ _______ _____ _____    ______ ____
ROOT
ATOM      1  C   UNL     1       0.890   0.095  -0.360  0.00  0.00     0.000 C 
ENDROOT
BRANCH   1   2
ATOM      2  C   UNL     1       2.238   0.658  -0.818  0.00  0.00     0.000 C 
BRANCH   2   4
ATOM      3  N   UNL     1       3.921  -0.299   0.827  0.00  0.00     0.000 N 
ATOM      4  C   UNL     1       3.346  -0.294  -0.482  0.00  0.00     0.000 C 
ATOM      5  O   UNL     1       3.743  -1.121  -1.347  0.00  0.00     0.000 OA
ATOM      6  H   UNL     1       3.591   0.331   1.507  0.00  0.00     0.000 HD
BRANCH   3   7
ATOM      7  O   UNL     1       4.917  -1.163   1.139  0.00  0.00     0.000 OA
ATOM      8  H   UNL     1       5.184  -1.027   2.062  0.00  0.00     0.000 HD
ENDBRANCH   3   7
ENDBRANCH   2   4
ENDBRANCH   1   2
BRANCH   1   9
ATOM      9  C   UNL     1      -0.252   1.060  -0.695  0.00  0.00     0.000 C 
BRANCH   9  10
ATOM     10  C   UNL     1      -1.571   0.496  -0.238  0.00  0.00     0.000 A 
ATOM     11  C   UNL     1      -2.037   0.748   1.063  0.00  0.00     0.000 A 
ATOM     12  C   UNL     1      -3.247   0.197   1.497  0.00  0.00     0.000 A 
ATOM     13  C   UNL     1      -3.994  -0.616   0.640  0.00  0.00     0.000 A 
ATOM     14  C   UNL     1      -3.530  -0.881  -0.652  0.00  0.00     0.000 A 
ATOM     15  C   UNL     1      -2.321  -0.333  -1.090  0.00  0.00     0.000 A 
ATOM     16  CM  UNL     1      -2.783  -0.065   0.203  1.00  0.00     0.000 AC
ENDBRANCH   9  10
ENDBRANCH   1   9
TORSDOF 5