          AutoDock 4.2 Release 4.2.6   
         (C) 1989-2012 The Scripps Research Institute
        AutoDock comes with ABSOLUTELY NO WARRANTY.
        AutoDock is free software, and you are welcome
        to redistribute it under certain conditions;
        for details type 'autodock4 -C'

                     main.cc  $Revision: 1.213 $

                   Compiled on Feb 20 2022 at 09:48:33


This file was created at:			6:39 07" p.m., 11/08/2024
                   on host:		"ThinkStation-P620"
Current Working Directory = "/home/antonio/Documenti/buccheri/IDROSSAMICO HDAC/HDAC 8/P (copia)/Ligand_10"

      ________________________________________________________________

                   SETTING UP DEFAULT PARAMETER LIBRARY
      ________________________________________________________________


Random number generator was seeded with values 358145, 1731087547.
Docking parameter file (DPF) used for this docking:		ligand_dock.biased.dpf
DPF> parameter_file ad4_arom_params.dat

Using read_parameter_library() to try to open and read "ad4_arom_params.dat".

DPF> autodock_parameter_version 4.2       # used by autodock to validate parameter set

	Autodock parameter version 4.2.
DPF> outlev 1                             # diagnostic output level

Output Level = 1  ADT-COMPATIBLE OUTPUT DURING DOCKING.
DPF> intelec                              # calculate internal electrostatics

Electrostatic energies will be calculated for all non-bonds between moving atoms.
DPF> seed pid time                        # seeds for random generator

Random number generator was seeded with values 358145, 1731087547.
DPF> ligand_types A C HD OA N AC

WARNING: pairwise distance, Rij, 0.00, is not a very reasonable value for the equilibrium separation of two atoms! (0.90 Angstroms <= Rij <= 6.00 Angstroms)

Perhaps you meant to use "intnbp_coeffs" instead of "intnbp_r_eps"?

DPF> fld receptor.maps.fld                # grid_data_file

Opening Grid Map Dimensions file:		receptor.maps.fld
Grid Point Spacing =				0.375 Angstroms

Even Number of User-specified Grid Points =	70 x-points
						70 y-points
						70 z-points

Coordinates of Central Grid Point of Maps =	(36.691, 12.592, 124.207)
Macromolecule file used to create Grid Maps =	receptor.pdbqt
Grid Parameter file used to create Grid Maps =	receptor.gpf
Minimum coordinates in grid = (23.566, -0.533, 111.082)
Maximum coordinates in grid = (49.816, 25.717, 137.332)

DPF> map receptor.A.map                   # atom-specific affinity map

DPF> map receptor.C.map                   # atom-specific affinity map

DPF> map receptor.HD.map                  # atom-specific affinity map

DPF> map receptor.OA.biased.map

DPF> map receptor.N.map                   # atom-specific affinity map

DPF> map receptor.AC.biased.map

DPF> elecmap receptor.e.map               # electrostatics map

DPF> desolvmap receptor.d.map             # desolvation map

DPF> move ligand.dum.pdbqt

1,4-interactions will be _ignored_ in the non-bonded internal energy calculation.

Ligand PDBQT file = "ligand.dum.pdbqt"

INPUT LIGAND PDBQT FILE:
________________________

INPUT-LIGAND-PDBQT: REMARK  Name = 
INPUT-LIGAND-PDBQT: REMARK  5 active torsions:
INPUT-LIGAND-PDBQT: REMARK  status: ('A' for Active; 'I' for Inactive)
INPUT-LIGAND-PDBQT: REMARK    1  A    between atoms: O_1  and  N_2
INPUT-LIGAND-PDBQT: REMARK    2  A    between atoms: C_3  and  C_4
INPUT-LIGAND-PDBQT: REMARK    3  A    between atoms: C_4  and  C_5
INPUT-LIGAND-PDBQT: REMARK    4  A    between atoms: C_5  and  C_6
INPUT-LIGAND-PDBQT: REMARK    5  A    between atoms: C_6  and  C_7
INPUT-LIGAND-PDBQT: REMARK                            x       y       z     vdW  Elec       q    Type
INPUT-LIGAND-PDBQT: REMARK                         _______ _______ _______ _____ _____    ______ ____
INPUT-LIGAND-PDBQT: ROOT
INPUT-LIGAND-PDBQT: ATOM      1  C   UNL     1       0.890   0.095  -0.360  0.00  0.00     0.000 C 
INPUT-LIGAND-PDBQT: ENDROOT
INPUT-LIGAND-PDBQT: BRANCH   1   2
INPUT-LIGAND-PDBQT: ATOM      2  C   UNL     1       2.238   0.658  -0.818  0.00  0.00     0.000 C 
INPUT-LIGAND-PDBQT: BRANCH   2   4
INPUT-LIGAND-PDBQT: ATOM      3  N   UNL     1       3.921  -0.299   0.827  0.00  0.00     0.000 N 
INPUT-LIGAND-PDBQT: ATOM      4  C   UNL     1       3.346  -0.294  -0.482  0.00  0.00     0.000 C 
INPUT-LIGAND-PDBQT: ATOM      5  O   UNL     1       3.743  -1.121  -1.347  0.00  0.00     0.000 OA
INPUT-LIGAND-PDBQT: ATOM      6  H   UNL     1       3.591   0.331   1.507  0.00  0.00     0.000 HD
INPUT-LIGAND-PDBQT: BRANCH   3   7
INPUT-LIGAND-PDBQT: ATOM      7  O   UNL     1       4.917  -1.163   1.139  0.00  0.00     0.000 OA
INPUT-LIGAND-PDBQT: ATOM      8  H   UNL     1       5.184  -1.027   2.062  0.00  0.00     0.000 HD
INPUT-LIGAND-PDBQT: ENDBRANCH   3   7
INPUT-LIGAND-PDBQT: ENDBRANCH   2   4
INPUT-LIGAND-PDBQT: ENDBRANCH   1   2
INPUT-LIGAND-PDBQT: BRANCH   1   9
INPUT-LIGAND-PDBQT: ATOM      9  C   UNL     1      -0.252   1.060  -0.695  0.00  0.00     0.000 C 
INPUT-LIGAND-PDBQT: BRANCH   9  10
INPUT-LIGAND-PDBQT: ATOM     10  C   UNL     1      -1.571   0.496  -0.238  0.00  0.00     0.000 A 
INPUT-LIGAND-PDBQT: ATOM     11  C   UNL     1      -2.037   0.748   1.063  0.00  0.00     0.000 A 
INPUT-LIGAND-PDBQT: ATOM     12  C   UNL     1      -3.247   0.197   1.497  0.00  0.00     0.000 A 
INPUT-LIGAND-PDBQT: ATOM     13  C   UNL     1      -3.994  -0.616   0.640  0.00  0.00     0.000 A 
INPUT-LIGAND-PDBQT: ATOM     14  C   UNL     1      -3.530  -0.881  -0.652  0.00  0.00     0.000 A 
INPUT-LIGAND-PDBQT: ATOM     15  C   UNL     1      -2.321  -0.333  -1.090  0.00  0.00     0.000 A 
INPUT-LIGAND-PDBQT: ATOM     16  CM  UNL     1      -2.783  -0.065   0.203  1.00  0.00     0.000 AC
INPUT-LIGAND-PDBQT: ENDBRANCH   9  10
INPUT-LIGAND-PDBQT: ENDBRANCH   1   9
INPUT-LIGAND-PDBQT: TORSDOF 5________________________________________________________________________________

Total charge on ligand                               =	+0.000 e
REMARK  Name = 
REMARK  5 active torsions:
REMARK  status: ('A' for Active; 'I' for Inactive)
REMARK    1  A    between atoms: O_1  and  N_2
REMARK    2  A    between atoms: C_3  and  C_4
REMARK    3  A    between atoms: C_4  and  C_5
REMARK    4  A    between atoms: C_5  and  C_6
REMARK    5  A    between atoms: C_6  and  C_7
REMARK                            x       y       z     vdW  Elec       q    Type
REMARK                         _______ _______ _______ _____ _____    ______ ____


Number of Rotatable Bonds in Small Molecule =	5 torsions
Number of atoms in ligand:  16

Number of non-hydrogen atoms in ligand:  14

Number of vibrational degrees of freedom of ligand:  42


Number of torsional degrees of freedom = 5
Estimated loss of torsional free energy upon binding = +1.4915 kcal/mol


DPF> about 0.725 -0.143 0.203            # small molecule center

Small molecule center of rotation =	(+0.725, -0.143, +0.203)

DPF> tran0 random                         # initial coordinates/A or random

Initial translation =			(45.347, 5.975, 136.339) Angstroms
DPF> quaternion0 random                   # initial orientation

Each run will begin with a new, random initial orientation.
Initial quaternion,  (x,y,z,w) =	( -0.062, 0.434, 0.860, 0.262 ),
DPF> dihe0 random                         # initial dihedrals (relative) or random

DPF> torsdof 5                            # torsional degrees of freedom

Number of torsional degrees of freedom = 5
Free energy coefficient for torsional degrees of freedom = 0.2983 as specified in parameter library "ad4_arom_params.dat".

Estimated loss of torsional free energy upon binding = +1.4915 kcal/mol

DPF> rmstol 2.0                           # cluster_tolerance/A

Maximum RMS tolerance for conformational cluster analysis = 2.00 Angstroms
DPF> extnrg 1000.0                        # external grid energy

External grid energy (beyond grid map walls) = 1000.00

DPF> e0max 0.0 10000                      # max initial energy; max number of retries

Using user-specified maximum number of retries for simanneal initialization, 10000 retries.
If the simanneal initial energy is greater than e0max, 0.000,
then a new, random initial state will be created.

DPF> ga_pop_size 150                      # number of individuals in population

A population of 150 individuals will be used
DPF> ga_num_evals 2500000                 # maximum number of energy evaluations

There will be at most 2500000 function evaluations used.
DPF> ga_num_generations 27000             # maximum number of generations

The GA will run for at most 27000 generations.
DPF> ga_elitism 1                         # number of top individuals to survive to next generation

The 1 best will be preserved each GA generation.
DPF> ga_mutation_rate 0.02                # rate of gene mutation

The mutation rate is 0.020000.
DPF> ga_crossover_rate 0.8                # rate of crossover

The crossover rate is 0.800000.
DPF> ga_window_size 10                    # 

The GA's selection window is 10 generations.
DPF> ga_cauchy_alpha 0.0                  # Alpha parameter of Cauchy distribution

The alpha parameter (for the Cauchy distribution) is being set to 0.000000.
DPF> ga_cauchy_beta 1.0                   # Beta parameter Cauchy distribution

The beta parameter (for the Cauchy distribution) is being set to 1.000000.
DPF> set_ga                               # set the above parameters for GA or LGA

DPF> sw_max_its 300                       # iterations of Solis & Wets local search

Solis & Wets algorithms will perform at most 300 iterations.
DPF> sw_max_succ 4                        # consecutive successes before changing rho

Solis & Wets algorithms expand rho every 4 in a row successes.
DPF> sw_max_fail 4                        # consecutive failures before changing rho

Solis & Wets algorithms contract rho every 4 in a row failures.
DPF> sw_rho 1.0                           # size of local search space to sample

rho is set to 1.000000.
DPF> sw_lb_rho 0.01                       # lower bound on rho

rho will never get smaller than 0.010000.
DPF> ls_search_freq 0.06                  # probability of performing local search on individual

Local search will be performed with frequency 0.060000.
DPF> set_psw1                             # set the above pseudo-Solis & Wets parameters

Creating a new Local Search object using the pseudo-Solis-Wets algorithm (pSW1) with the current settings.

DPF> unbound_model bound                  # state of unbound ligand

DPF> ga_run 100                           # do this many hybrid GA-LS runs

centering ligand on specified point: 0.725 -0.143 0.203
Furthest true ligand atom from "about" center is 4.911 Angstroms (maxrad).
Number of requested GA dockings = 100 runs
Unbound model to be used is 'same as bound' [AutoDock 4.2 default].

	BEGINNING GENETIC ALGORITHM DOCKING 1 of 100
Run: 1 Seed: 100805355 1935284889 [ Run 1 of 100 GA/GALS ]
Beginning LAMARCKIAN GENETIC ALGORITHM (LGA), with a maximum of 2500000 energy evaluations.

Final-Value: -11.763


	FINAL GENETIC ALGORITHM DOCKED STATE
	_______________________________________________


Detailed state:  trans 36.845 12.302 121.671 quatxyzw 0.416370 -0.767865 -0.484331 -0.049416 center 0.725 -0.143 0.203 ntor 5 179.9882 -161.3286 74.7846 -179.7730 65.0334
State:	 36.845  12.302 121.671   0.417 -0.769 -0.485 -174.335    179.99 -161.33   74.78 -179.77   65.03

DOCKED: MODEL        1
DOCKED: USER    Run = 1
DOCKED: USER    DPF = ligand_dock.biased.dpf
DOCKED: USER  
DOCKED: USER    Estimated Free Energy of Binding    =   -9.38 kcal/mol  [=(1)+(2)+(3)-(4)]
DOCKED: USER    Estimated Inhibition Constant, Ki   =  133.44 nM (nanomolar)  [Temperature = 298.15 K]
DOCKED: USER    
DOCKED: USER    (1) Final Intermolecular Energy     =  -10.87 kcal/mol
DOCKED: USER        vdW + Hbond + desolv Energy     =  -10.87 kcal/mol
DOCKED: USER        Electrostatic Energy            =   +0.00 kcal/mol
DOCKED: USER    (2) Final Total Internal Energy     =   -0.89 kcal/mol
DOCKED: USER    (3) Torsional Free Energy           =   +1.49 kcal/mol
DOCKED: USER    (4) Unbound System's Energy  [=(2)] =   -0.89 kcal/mol
DOCKED: USER    
DOCKED: USER    
DOCKED: USER    NEWDPF move ligand.dum.pdbqt
DOCKED: USER    NEWDPF about 0.725000 -0.143000 0.203000
DOCKED: USER    NEWDPF tran0 36.845054 12.301506 121.671243
DOCKED: USER    NEWDPF quaternion0 0.416370 -0.767865 -0.484331 -0.049416
DOCKED: USER    NEWDPF axisangle0 0.416880 -0.768804 -0.484924 -174.335027
DOCKED: USER    NEWDPF quat0 0.416880 -0.768804 -0.484924 -174.335027
DOCKED: USER    NEWDPF dihe0 179.99 -161.33 74.78 -179.77 65.03 
DOCKED: USER  keepresnum = 1 
DOCKED: USER  
DOCKED: REMARK  Name = 
DOCKED: REMARK  5 active torsions:
DOCKED: REMARK  status: ('A' for Active; 'I' for Inactive)
DOCKED: REMARK    1  A    between atoms: O_1  and  N_2
DOCKED: REMARK    2  A    between atoms: C_3  and  C_4
DOCKED: REMARK    3  A    between atoms: C_4  and  C_5
DOCKED: REMARK    4  A    between atoms: C_5  and  C_6
DOCKED: REMARK    5  A    between atoms: C_6  and  C_7
DOCKED: REMARK                            x       y       z     vdW  Elec       q    Type
DOCKED: REMARK                         _______ _______ _______ _____ _____    ______ ____
DOCKED: USER                              x       y       z     vdW  Elec       q    Type
DOCKED: USER                           _______ _______ _______ _____ _____    ______ ____
DOCKED: ROOT
DOCKED: ATOM      1  C   UNL     1      36.867  11.836 122.100 -0.60 -0.00    +0.000 C 
DOCKED: ENDROOT
DOCKED: BRANCH   1   2
DOCKED: ATOM      2  C   UNL     1      35.879  10.692 122.342 -0.66 -0.00    +0.000 C 
DOCKED: BRANCH   2   4
DOCKED: ATOM      3  N   UNL     1      36.665   8.535 123.431 -0.64 -0.00    +0.000 N 
DOCKED: ATOM      4  C   UNL     1      36.582   9.369 122.273 -0.72 -0.00    +0.000 C 
DOCKED: ATOM      5  O   UNL     1      37.065   8.974 121.177 -2.71 -0.00    +0.000 OA
DOCKED: ATOM      6  H   UNL     1      36.264   8.836 124.278 -0.27 -0.00    +0.000 HD
DOCKED: BRANCH   3   7
DOCKED: ATOM      7  O   UNL     1      37.291   7.335 123.373 -2.02 -0.00    +0.000 OA
DOCKED: ATOM      8  H   UNL     1      37.627   7.191 122.474 -0.25 -0.00    +0.000 HD
DOCKED: ENDBRANCH   3   7
DOCKED: ENDBRANCH   2   4
DOCKED: ENDBRANCH   1   2
DOCKED: BRANCH   1   9
DOCKED: ATOM      9  C   UNL     1      37.197  12.564 123.408 -0.63 -0.00    +0.000 C 
DOCKED: BRANCH   9  10
DOCKED: ATOM     10  C   UNL     1      36.695  13.982 123.364 -0.47 -0.00    +0.000 A 
DOCKED: ATOM     11  C   UNL     1      37.526  15.014 122.898 -0.36 -0.00    +0.000 A 
DOCKED: ATOM     12  C   UNL     1      37.069  16.336 122.888 -0.26 -0.00    +0.000 A 
DOCKED: ATOM     13  C   UNL     1      35.786  16.638 123.352 -0.32 -0.00    +0.000 A 
DOCKED: ATOM     14  C   UNL     1      34.958  15.617 123.829 -0.49 -0.00    +0.000 A 
DOCKED: ATOM     15  C   UNL     1      35.410  14.294 123.842 -0.47 -0.00    +0.000 A 
DOCKED: ATOM     16  CM  UNL     1      36.240  15.313 123.363 +0.00 -0.00    +0.000 AC
DOCKED: ENDBRANCH   9  10
DOCKED: ENDBRANCH   1   9
DOCKED: TORSDOF 5DOCKED: TER
DOCKED: ENDMDL
________________________________________________________________________________


	BEGINNING GENETIC ALGORITHM DOCKING 2 of 100
Run: 2 Seed: 1781904289 532444920 [ Run 2 of 100 GA/GALS ]
Beginning LAMARCKIAN GENETIC ALGORITHM (LGA), with a maximum of 2500000 energy evaluations.

Final-Value: -11.605


	FINAL GENETIC ALGORITHM DOCKED STATE
	_______________________________________________


Detailed state:  trans 37.975 11.566 123.324 quatxyzw 0.347648 -0.687152 0.543252 0.334425 center 0.725 -0.143 0.203 ntor 5 -174.2602 164.2396 -53.1276 64.5385 -92.4661
State:	 37.975  11.566 123.324   0.369 -0.729  0.576 140.925   -174.26  164.24  -53.13   64.54  -92.47

DOCKED: MODEL        2
DOCKED: USER    Run = 2
DOCKED: USER    DPF = ligand_dock.biased.dpf
DOCKED: USER  
DOCKED: USER    Estimated Free Energy of Binding    =   -9.26 kcal/mol  [=(1)+(2)+(3)-(4)]
DOCKED: USER    Estimated Inhibition Constant, Ki   =  162.33 nM (nanomolar)  [Temperature = 298.15 K]
DOCKED: USER    
DOCKED: USER    (1) Final Intermolecular Energy     =  -10.75 kcal/mol
DOCKED: USER        vdW + Hbond + desolv Energy     =  -10.75 kcal/mol
DOCKED: USER        Electrostatic Energy            =   +0.00 kcal/mol
DOCKED: USER    (2) Final Total Internal Energy     =   -0.85 kcal/mol
DOCKED: USER    (3) Torsional Free Energy           =   +1.49 kcal/mol
DOCKED: USER    (4) Unbound System's Energy  [=(2)] =   -0.85 kcal/mol
DOCKED: USER    
DOCKED: USER    
DOCKED: USER    NEWDPF move ligand.dum.pdbqt
DOCKED: USER    NEWDPF about 0.725000 -0.143000 0.203000
DOCKED: USER    NEWDPF tran0 37.974874 11.566361 123.324063
DOCKED: USER    NEWDPF quaternion0 0.347648 -0.687152 0.543252 0.334425
DOCKED: USER    NEWDPF axisangle0 0.368888 -0.729134 0.576442 140.924853
DOCKED: USER    NEWDPF quat0 0.368888 -0.729134 0.576442 140.924853
DOCKED: USER    NEWDPF dihe0 -174.26 164.24 -53.13 64.54 -92.47 
DOCKED: USER  keepresnum = 1 
DOCKED: USER  
DOCKED: REMARK  Name = 
DOCKED: REMARK  5 active torsions:
DOCKED: REMARK  status: ('A' for Active; 'I' for Inactive)
DOCKED: REMARK    1  A    between atoms: O_1  and  N_2
DOCKED: REMARK    2  A    between atoms: C_3  and  C_4
DOCKED: REMARK    3  A    between atoms: C_4  and  C_5
DOCKED: REMARK    4  A    between atoms: C_5  and  C_6
DOCKED: REMARK    5  A    between atoms: C_6  and  C_7
DOCKED: REMARK                            x       y       z     vdW  Elec       q    Type
DOCKED: REMARK                         _______ _______ _______ _____ _____    ______ ____
DOCKED: USER                              x       y       z     vdW  Elec       q    Type
DOCKED: USER                           _______ _______ _______ _____ _____    ______ ____
DOCKED: ROOT
DOCKED: ATOM      1  C   UNL     1      37.388  11.757 123.182 -0.49 -0.00    +0.000 C 
DOCKED: ENDROOT
DOCKED: BRANCH   1   2
DOCKED: ATOM      2  C   UNL     1      36.219  10.953 122.606 -0.68 -0.00    +0.000 C 
DOCKED: BRANCH   2   4
DOCKED: ATOM      3  N   UNL     1      36.702   8.573 123.351 -0.66 -0.00    +0.000 N 
DOCKED: ATOM      4  C   UNL     1      36.646   9.548 122.307 -0.71 -0.00    +0.000 C 
DOCKED: ATOM      5  O   UNL     1      36.916   9.216 121.121 -2.69 -0.00    +0.000 OA
DOCKED: ATOM      6  H   UNL     1      36.466   8.830 124.271 -0.35 -0.00    +0.000 HD
DOCKED: BRANCH   3   7
DOCKED: ATOM      7  O   UNL     1      37.079   7.299 123.085 -2.11 -0.00    +0.000 OA
DOCKED: ATOM      8  H   UNL     1      37.363   7.234 122.160 -0.15 -0.00    +0.000 HD
DOCKED: ENDBRANCH   3   7
DOCKED: ENDBRANCH   2   4
DOCKED: ENDBRANCH   1   2
DOCKED: BRANCH   1   9
DOCKED: ATOM      9  C   UNL     1      37.608  13.052 122.393 -0.51 -0.00    +0.000 C 
DOCKED: BRANCH   9  10
DOCKED: ATOM     10  C   UNL     1      36.750  14.159 122.946 -0.44 -0.00    +0.000 A 
DOCKED: ATOM     11  C   UNL     1      37.146  15.500 122.805 -0.32 -0.00    +0.000 A 
DOCKED: ATOM     12  C   UNL     1      36.364  16.525 123.348 -0.29 -0.00    +0.000 A 
DOCKED: ATOM     13  C   UNL     1      35.190  16.220 124.041 -0.43 -0.00    +0.000 A 
DOCKED: ATOM     14  C   UNL     1      34.797  14.887 124.196 -0.47 -0.00    +0.000 A 
DOCKED: ATOM     15  C   UNL     1      35.575  13.858 123.656 -0.45 -0.00    +0.000 A 
DOCKED: ATOM     16  CM  UNL     1      35.971  15.191 123.499 +0.00 -0.00    +0.000 AC
DOCKED: ENDBRANCH   9  10
DOCKED: ENDBRANCH   1   9
DOCKED: TORSDOF 5DOCKED: TER
DOCKED: ENDMDL
________________________________________________________________________________


	BEGINNING GENETIC ALGORITHM DOCKING 3 of 100
Run: 3 Seed: 2066249113 2099059955 [ Run 3 of 100 GA/GALS ]
Beginning LAMARCKIAN GENETIC ALGORITHM (LGA), with a maximum of 2500000 energy evaluations.

Final-Value: -11.495


	FINAL GENETIC ALGORITHM DOCKED STATE
	_______________________________________________


Detailed state:  trans 37.360 11.872 123.316 quatxyzw -0.456523 0.734391 -0.160226 -0.476008 center 0.725 -0.143 0.203 ntor 5 178.0449 157.6677 -1.1974 101.8880 51.5746
State:	 37.360  11.872 123.316  -0.519  0.835 -0.182 -123.150    178.04  157.67   -1.20  101.89   51.57

DOCKED: MODEL        3
DOCKED: USER    Run = 3
DOCKED: USER    DPF = ligand_dock.biased.dpf
DOCKED: USER  
DOCKED: USER    Estimated Free Energy of Binding    =   -9.12 kcal/mol  [=(1)+(2)+(3)-(4)]
DOCKED: USER    Estimated Inhibition Constant, Ki   =  206.90 nM (nanomolar)  [Temperature = 298.15 K]
DOCKED: USER    
DOCKED: USER    (1) Final Intermolecular Energy     =  -10.61 kcal/mol
DOCKED: USER        vdW + Hbond + desolv Energy     =  -10.61 kcal/mol
DOCKED: USER        Electrostatic Energy            =   +0.00 kcal/mol
DOCKED: USER    (2) Final Total Internal Energy     =   -0.88 kcal/mol
DOCKED: USER    (3) Torsional Free Energy           =   +1.49 kcal/mol
DOCKED: USER    (4) Unbound System's Energy  [=(2)] =   -0.88 kcal/mol
DOCKED: USER    
DOCKED: USER    
DOCKED: USER    NEWDPF move ligand.dum.pdbqt
DOCKED: USER    NEWDPF about 0.725000 -0.143000 0.203000
DOCKED: USER    NEWDPF tran0 37.359532 11.872486 123.316416
DOCKED: USER    NEWDPF quaternion0 -0.456523 0.734391 -0.160226 -0.476008
DOCKED: USER    NEWDPF axisangle0 -0.519106 0.835066 -0.182191 -123.150039
DOCKED: USER    NEWDPF quat0 -0.519106 0.835066 -0.182191 -123.150039
DOCKED: USER    NEWDPF dihe0 178.04 157.67 -1.20 101.89 51.57 
DOCKED: USER  keepresnum = 1 
DOCKED: USER  
DOCKED: REMARK  Name = 
DOCKED: REMARK  5 active torsions:
DOCKED: REMARK  status: ('A' for Active; 'I' for Inactive)
DOCKED: REMARK    1  A    between atoms: O_1  and  N_2
DOCKED: REMARK    2  A    between atoms: C_3  and  C_4
DOCKED: REMARK    3  A    between atoms: C_4  and  C_5
DOCKED: REMARK    4  A    between atoms: C_5  and  C_6
DOCKED: REMARK    5  A    between atoms: C_6  and  C_7
DOCKED: REMARK                            x       y       z     vdW  Elec       q    Type
DOCKED: REMARK                         _______ _______ _______ _____ _____    ______ ____
DOCKED: USER                              x       y       z     vdW  Elec       q    Type
DOCKED: USER                           _______ _______ _______ _____ _____    ______ ____
DOCKED: ROOT
DOCKED: ATOM      1  C   UNL     1      36.739  11.751 123.345 -0.69 -0.00    +0.000 C 
DOCKED: ENDROOT
DOCKED: BRANCH   1   2
DOCKED: ATOM      2  C   UNL     1      35.885  10.850 122.449 -0.66 -0.00    +0.000 C 
DOCKED: BRANCH   2   4
DOCKED: ATOM      3  N   UNL     1      36.509   8.559 123.354 -0.64 -0.00    +0.000 N 
DOCKED: ATOM      4  C   UNL     1      36.532   9.508 122.284 -0.71 -0.00    +0.000 C 
DOCKED: ATOM      5  O   UNL     1      37.064   9.202 121.183 -2.74 -0.00    +0.000 OA
DOCKED: ATOM      6  H   UNL     1      36.071   8.793 124.203 -0.24 -0.00    +0.000 HD
DOCKED: BRANCH   3   7
DOCKED: ATOM      7  O   UNL     1      37.086   7.342 123.208 -2.13 -0.00    +0.000 OA
DOCKED: ATOM      8  H   UNL     1      37.443   7.260 122.309 -0.17 -0.00    +0.000 HD
DOCKED: ENDBRANCH   3   7
DOCKED: ENDBRANCH   2   4
DOCKED: ENDBRANCH   1   2
DOCKED: BRANCH   1   9
DOCKED: ATOM      9  C   UNL     1      36.104  13.137 123.496 -0.62 -0.00    +0.000 C 
DOCKED: BRANCH   9  10
DOCKED: ATOM     10  C   UNL     1      37.106  14.214 123.176 -0.44 -0.00    +0.000 A 
DOCKED: ATOM     11  C   UNL     1      36.816  15.560 123.458 -0.35 -0.00    +0.000 A 
DOCKED: ATOM     12  C   UNL     1      37.734  16.562 123.131 -0.23 -0.00    +0.000 A 
DOCKED: ATOM     13  C   UNL     1      38.942  16.231 122.512 -0.24 -0.00    +0.000 A 
DOCKED: ATOM     14  C   UNL     1      39.233  14.895 122.217 -0.37 -0.00    +0.000 A 
DOCKED: ATOM     15  C   UNL     1      38.318  13.890 122.541 -0.39 -0.00    +0.000 A 
DOCKED: ATOM     16  CM  UNL     1      38.025  15.225 122.839 +0.00 -0.00    +0.000 AC
DOCKED: ENDBRANCH   9  10
DOCKED: ENDBRANCH   1   9
DOCKED: TORSDOF 5DOCKED: TER
DOCKED: ENDMDL
________________________________________________________________________________


	BEGINNING GENETIC ALGORITHM DOCKING 4 of 100
Run: 4 Seed: 1735564266 435750776 [ Run 4 of 100 GA/GALS ]
Beginning LAMARCKIAN GENETIC ALGORITHM (LGA), with a maximum of 2500000 energy evaluations.

Final-Value: -11.476


	FINAL GENETIC ALGORITHM DOCKED STATE
	_______________________________________________


Detailed state:  trans 37.232 11.963 122.594 quatxyzw 0.569520 -0.762296 -0.038174 0.305114 center 0.725 -0.143 0.203 ntor 5 180.0000 168.8394 19.7603 -101.3038 29.9139
State:	 37.232  11.963 122.594   0.598 -0.800 -0.040 144.470    180.00  168.84   19.76 -101.30   29.91

DOCKED: MODEL        4
DOCKED: USER    Run = 4
DOCKED: USER    DPF = ligand_dock.biased.dpf
DOCKED: USER  
DOCKED: USER    Estimated Free Energy of Binding    =   -9.13 kcal/mol  [=(1)+(2)+(3)-(4)]
DOCKED: USER    Estimated Inhibition Constant, Ki   =  202.07 nM (nanomolar)  [Temperature = 298.15 K]
DOCKED: USER    
DOCKED: USER    (1) Final Intermolecular Energy     =  -10.62 kcal/mol
DOCKED: USER        vdW + Hbond + desolv Energy     =  -10.62 kcal/mol
DOCKED: USER        Electrostatic Energy            =   +0.00 kcal/mol
DOCKED: USER    (2) Final Total Internal Energy     =   -0.85 kcal/mol
DOCKED: USER    (3) Torsional Free Energy           =   +1.49 kcal/mol
DOCKED: USER    (4) Unbound System's Energy  [=(2)] =   -0.85 kcal/mol
DOCKED: USER    
DOCKED: USER    
DOCKED: USER    NEWDPF move ligand.dum.pdbqt
DOCKED: USER    NEWDPF about 0.725000 -0.143000 0.203000
DOCKED: USER    NEWDPF tran0 37.232357 11.962692 122.593800
DOCKED: USER    NEWDPF quaternion0 0.569520 -0.762296 -0.038174 0.305114
DOCKED: USER    NEWDPF axisangle0 0.598037 -0.800466 -0.040085 144.470014
DOCKED: USER    NEWDPF quat0 0.598037 -0.800466 -0.040085 144.470014
DOCKED: USER    NEWDPF dihe0 180.00 168.84 19.76 -101.30 29.91 
DOCKED: USER  keepresnum = 1 
DOCKED: USER  
DOCKED: REMARK  Name = 
DOCKED: REMARK  5 active torsions:
DOCKED: REMARK  status: ('A' for Active; 'I' for Inactive)
DOCKED: REMARK    1  A    between atoms: O_1  and  N_2
DOCKED: REMARK    2  A    between atoms: C_3  and  C_4
DOCKED: REMARK    3  A    between atoms: C_4  and  C_5
DOCKED: REMARK    4  A    between atoms: C_5  and  C_6
DOCKED: REMARK    5  A    between atoms: C_6  and  C_7
DOCKED: REMARK                            x       y       z     vdW  Elec       q    Type
DOCKED: REMARK                         _______ _______ _______ _____ _____    ______ ____
DOCKED: USER                              x       y       z     vdW  Elec       q    Type
DOCKED: USER                           _______ _______ _______ _____ _____    ______ ____
DOCKED: ROOT
DOCKED: ATOM      1  C   UNL     1      36.756  11.678 122.898 -0.67 -0.00    +0.000 C 
DOCKED: ENDROOT
DOCKED: BRANCH   1   2
DOCKED: ATOM      2  C   UNL     1      35.838  10.549 122.420 -0.66 -0.00    +0.000 C 
DOCKED: BRANCH   2   4
DOCKED: ATOM      3  N   UNL     1      36.759   8.421 123.459 -0.67 -0.00    +0.000 N 
DOCKED: ATOM      4  C   UNL     1      36.600   9.263 122.314 -0.73 -0.00    +0.000 C 
DOCKED: ATOM      5  O   UNL     1      37.066   8.903 121.199 -2.70 -0.00    +0.000 OA
DOCKED: ATOM      6  H   UNL     1      36.372   8.693 124.321 -0.29 -0.00    +0.000 HD
DOCKED: BRANCH   3   7
DOCKED: ATOM      7  O   UNL     1      37.440   7.253 123.366 -1.86 -0.00    +0.000 OA
DOCKED: ATOM      8  H   UNL     1      37.754   7.135 122.456 -0.32 -0.00    +0.000 HD
DOCKED: ENDBRANCH   3   7
DOCKED: ENDBRANCH   2   4
DOCKED: ENDBRANCH   1   2
DOCKED: BRANCH   1   9
DOCKED: ATOM      9  C   UNL     1      35.942  12.843 123.471 -0.63 -0.00    +0.000 C 
DOCKED: BRANCH   9  10
DOCKED: ATOM     10  C   UNL     1      36.667  14.146 123.261 -0.46 -0.00    +0.000 A 
DOCKED: ATOM     11  C   UNL     1      38.013  14.152 122.861 -0.43 -0.00    +0.000 A 
DOCKED: ATOM     12  C   UNL     1      38.694  15.363 122.697 -0.32 -0.00    +0.000 A 
DOCKED: ATOM     13  C   UNL     1      38.039  16.573 122.940 -0.22 -0.00    +0.000 A 
DOCKED: ATOM     14  C   UNL     1      36.703  16.574 123.350 -0.27 -0.00    +0.000 A 
DOCKED: ATOM     15  C   UNL     1      36.018  15.367 123.515 -0.41 -0.00    +0.000 A 
DOCKED: ATOM     16  CM  UNL     1      37.355  15.362 123.104 +0.00 -0.00    +0.000 AC
DOCKED: ENDBRANCH   9  10
DOCKED: ENDBRANCH   1   9
DOCKED: TORSDOF 5DOCKED: TER
DOCKED: ENDMDL
________________________________________________________________________________


	BEGINNING GENETIC ALGORITHM DOCKING 5 of 100
Run: 5 Seed: 222471776 1870568775 [ Run 5 of 100 GA/GALS ]
Beginning LAMARCKIAN GENETIC ALGORITHM (LGA), with a maximum of 2500000 energy evaluations.

Final-Value: -11.888


	FINAL GENETIC ALGORITHM DOCKED STATE
	_______________________________________________


Detailed state:  trans 35.386 11.426 122.779 quatxyzw -0.546757 -0.069626 0.569807 0.609532 center 0.725 -0.143 0.203 ntor 5 -160.0462 26.4049 -71.6104 180.0000 -70.9116
State:	 35.386  11.426 122.779  -0.690 -0.088  0.719 104.889   -160.05   26.40  -71.61  180.00  -70.91

DOCKED: MODEL        5
DOCKED: USER    Run = 5
DOCKED: USER    DPF = ligand_dock.biased.dpf
DOCKED: USER  
DOCKED: USER    Estimated Free Energy of Binding    =   -9.55 kcal/mol  [=(1)+(2)+(3)-(4)]
DOCKED: USER    Estimated Inhibition Constant, Ki   =  100.64 nM (nanomolar)  [Temperature = 298.15 K]
DOCKED: USER    
DOCKED: USER    (1) Final Intermolecular Energy     =  -11.04 kcal/mol
DOCKED: USER        vdW + Hbond + desolv Energy     =  -11.04 kcal/mol
DOCKED: USER        Electrostatic Energy            =   +0.00 kcal/mol
DOCKED: USER    (2) Final Total Internal Energy     =   -0.85 kcal/mol
DOCKED: USER    (3) Torsional Free Energy           =   +1.49 kcal/mol
DOCKED: USER    (4) Unbound System's Energy  [=(2)] =   -0.85 kcal/mol
DOCKED: USER    
DOCKED: USER    
DOCKED: USER    NEWDPF move ligand.dum.pdbqt
DOCKED: USER    NEWDPF about 0.725000 -0.143000 0.203000
DOCKED: USER    NEWDPF tran0 35.385671 11.426217 122.779439
DOCKED: USER    NEWDPF quaternion0 -0.546757 -0.069626 0.569807 0.609532
DOCKED: USER    NEWDPF axisangle0 -0.689686 -0.087827 0.718762 104.888672
DOCKED: USER    NEWDPF quat0 -0.689686 -0.087827 0.718762 104.888672
DOCKED: USER    NEWDPF dihe0 -160.05 26.40 -71.61 180.00 -70.91 
DOCKED: USER  keepresnum = 1 
DOCKED: USER  
DOCKED: REMARK  Name = 
DOCKED: REMARK  5 active torsions:
DOCKED: REMARK  status: ('A' for Active; 'I' for Inactive)
DOCKED: REMARK    1  A    between atoms: O_1  and  N_2
DOCKED: REMARK    2  A    between atoms: C_3  and  C_4
DOCKED: REMARK    3  A    between atoms: C_4  and  C_5
DOCKED: REMARK    4  A    between atoms: C_5  and  C_6
DOCKED: REMARK    5  A    between atoms: C_6  and  C_7
DOCKED: REMARK                            x       y       z     vdW  Elec       q    Type
DOCKED: REMARK                         _______ _______ _______ _____ _____    ______ ____
DOCKED: USER                              x       y       z     vdW  Elec       q    Type
DOCKED: USER                           _______ _______ _______ _____ _____    ______ ____
DOCKED: ROOT
DOCKED: ATOM      1  C   UNL     1      35.928  11.685 122.581 -0.59 -0.00    +0.000 C 
DOCKED: ENDROOT
DOCKED: BRANCH   1   2
DOCKED: ATOM      2  C   UNL     1      37.068  11.054 121.778 -0.53 -0.00    +0.000 C 
DOCKED: BRANCH   2   4
DOCKED: ATOM      3  N   UNL     1      37.100   8.952 123.204 -0.64 -0.00    +0.000 N 
DOCKED: ATOM      4  C   UNL     1      37.041   9.561 121.912 -0.61 -0.00    +0.000 C 
DOCKED: ATOM      5  O   UNL     1      36.925   8.843 120.882 -2.68 -0.00    +0.000 OA
DOCKED: ATOM      6  H   UNL     1      37.166   9.516 124.007 -0.53 -0.00    +0.000 HD
DOCKED: BRANCH   3   7
DOCKED: ATOM      7  O   UNL     1      37.068   7.603 123.332 -2.25 -0.00    +0.000 OA
DOCKED: ATOM      8  H   UNL     1      37.318   7.194 122.489 -0.17 -0.00    +0.000 HD
DOCKED: ENDBRANCH   3   7
DOCKED: ENDBRANCH   2   4
DOCKED: ENDBRANCH   1   2
DOCKED: BRANCH   1   9
DOCKED: ATOM      9  C   UNL     1      36.463  12.403 123.825 -0.66 -0.00    +0.000 C 
DOCKED: BRANCH   9  10
DOCKED: ATOM     10  C   UNL     1      36.343  13.895 123.666 -0.48 -0.00    +0.000 A 
DOCKED: ATOM     11  C   UNL     1      37.403  14.638 123.121 -0.40 -0.00    +0.000 A 
DOCKED: ATOM     12  C   UNL     1      37.303  16.028 123.004 -0.28 -0.00    +0.000 A 
DOCKED: ATOM     13  C   UNL     1      36.149  16.686 123.438 -0.30 -0.00    +0.000 A 
DOCKED: ATOM     14  C   UNL     1      35.094  15.954 123.993 -0.46 -0.00    +0.000 A 
DOCKED: ATOM     15  C   UNL     1      35.190  14.565 124.113 -0.45 -0.00    +0.000 A 
DOCKED: ATOM     16  CM  UNL     1      36.247  15.294 123.556 +0.00 -0.00    +0.000 AC
DOCKED: ENDBRANCH   9  10
DOCKED: ENDBRANCH   1   9
DOCKED: TORSDOF 5DOCKED: TER
DOCKED: ENDMDL
________________________________________________________________________________


	BEGINNING GENETIC ALGORITHM DOCKING 6 of 100
Run: 6 Seed: 818341645 1042639888 [ Run 6 of 100 GA/GALS ]
Beginning LAMARCKIAN GENETIC ALGORITHM (LGA), with a maximum of 2500000 energy evaluations.

Final-Value: -12.062


	FINAL GENETIC ALGORITHM DOCKED STATE
	_______________________________________________


Detailed state:  trans 37.550 12.219 123.146 quatxyzw 0.524117 -0.645777 -0.148757 0.534925 center 0.725 -0.143 0.203 ntor 5 -162.4066 113.9694 56.3674 80.1054 71.7488
State:	 37.550  12.219 123.146   0.620 -0.764 -0.176 115.322   -162.41  113.97   56.37   80.11   71.75

DOCKED: MODEL        6
DOCKED: USER    Run = 6
DOCKED: USER    DPF = ligand_dock.biased.dpf
DOCKED: USER  
DOCKED: USER    Estimated Free Energy of Binding    =   -9.71 kcal/mol  [=(1)+(2)+(3)-(4)]
DOCKED: USER    Estimated Inhibition Constant, Ki   =   75.83 nM (nanomolar)  [Temperature = 298.15 K]
DOCKED: USER    
DOCKED: USER    (1) Final Intermolecular Energy     =  -11.21 kcal/mol
DOCKED: USER        vdW + Hbond + desolv Energy     =  -11.21 kcal/mol
DOCKED: USER        Electrostatic Energy            =   +0.00 kcal/mol
DOCKED: USER    (2) Final Total Internal Energy     =   -0.86 kcal/mol
DOCKED: USER    (3) Torsional Free Energy           =   +1.49 kcal/mol
DOCKED: USER    (4) Unbound System's Energy  [=(2)] =   -0.86 kcal/mol
DOCKED: USER    
DOCKED: USER    
DOCKED: USER    NEWDPF move ligand.dum.pdbqt
DOCKED: USER    NEWDPF about 0.725000 -0.143000 0.203000
DOCKED: USER    NEWDPF tran0 37.549766 12.219044 123.145542
DOCKED: USER    NEWDPF quaternion0 0.524117 -0.645777 -0.148757 0.534925
DOCKED: USER    NEWDPF axisangle0 0.620330 -0.764324 -0.176065 115.322356
DOCKED: USER    NEWDPF quat0 0.620330 -0.764324 -0.176065 115.322356
DOCKED: USER    NEWDPF dihe0 -162.41 113.97 56.37 80.11 71.75 
DOCKED: USER  keepresnum = 1 
DOCKED: USER  
DOCKED: REMARK  Name = 
DOCKED: REMARK  5 active torsions:
DOCKED: REMARK  status: ('A' for Active; 'I' for Inactive)
DOCKED: REMARK    1  A    between atoms: O_1  and  N_2
DOCKED: REMARK    2  A    between atoms: C_3  and  C_4
DOCKED: REMARK    3  A    between atoms: C_4  and  C_5
DOCKED: REMARK    4  A    between atoms: C_5  and  C_6
DOCKED: REMARK    5  A    between atoms: C_6  and  C_7
DOCKED: REMARK                            x       y       z     vdW  Elec       q    Type
DOCKED: REMARK                         _______ _______ _______ _____ _____    ______ ____
DOCKED: USER                              x       y       z     vdW  Elec       q    Type
DOCKED: USER                           _______ _______ _______ _____ _____    ______ ____
DOCKED: ROOT
DOCKED: ATOM      1  C   UNL     1      37.070  11.806 123.134 -0.66 -0.00    +0.000 C 
DOCKED: ENDROOT
DOCKED: BRANCH   1   2
DOCKED: ATOM      2  C   UNL     1      36.518  10.992 121.961 -0.62 -0.00    +0.000 C 
DOCKED: BRANCH   2   4
DOCKED: ATOM      3  N   UNL     1      37.088   8.964 123.379 -0.60 -0.00    +0.000 N 
DOCKED: ATOM      4  C   UNL     1      36.914   9.552 122.088 -0.65 -0.00    +0.000 C 
DOCKED: ATOM      5  O   UNL     1      37.054   8.849 121.052 -2.70 -0.00    +0.000 OA
DOCKED: ATOM      6  H   UNL     1      36.953   9.510 124.187 -0.55 -0.00    +0.000 HD
DOCKED: BRANCH   3   7
DOCKED: ATOM      7  O   UNL     1      37.438   7.660 123.501 -2.12 -0.00    +0.000 OA
DOCKED: ATOM      8  H   UNL     1      37.798   7.343 122.658 -0.35 -0.00    +0.000 HD
DOCKED: ENDBRANCH   3   7
DOCKED: ENDBRANCH   2   4
DOCKED: ENDBRANCH   1   2
DOCKED: BRANCH   1   9
DOCKED: ATOM      9  C   UNL     1      35.945  12.538 123.874 -0.60 -0.00    +0.000 C 
DOCKED: BRANCH   9  10
DOCKED: ATOM     10  C   UNL     1      36.008  14.017 123.601 -0.49 -0.00    +0.000 A 
DOCKED: ATOM     11  C   UNL     1      34.944  14.853 123.979 -0.49 -0.00    +0.000 A 
DOCKED: ATOM     12  C   UNL     1      34.990  16.222 123.696 -0.43 -0.00    +0.000 A 
DOCKED: ATOM     13  C   UNL     1      36.091  16.763 123.026 -0.28 -0.00    +0.000 A 
DOCKED: ATOM     14  C   UNL     1      37.147  15.934 122.636 -0.27 -0.00    +0.000 A 
DOCKED: ATOM     15  C   UNL     1      37.106  14.565 122.916 -0.41 -0.00    +0.000 A 
DOCKED: ATOM     16  CM  UNL     1      36.048  15.392 123.309 +0.00 -0.00    +0.000 AC
DOCKED: ENDBRANCH   9  10
DOCKED: ENDBRANCH   1   9
DOCKED: TORSDOF 5DOCKED: TER
DOCKED: ENDMDL
________________________________________________________________________________


	BEGINNING GENETIC ALGORITHM DOCKING 7 of 100
Run: 7 Seed: 313004028 402365197 [ Run 7 of 100 GA/GALS ]
Beginning LAMARCKIAN GENETIC ALGORITHM (LGA), with a maximum of 2500000 energy evaluations.

Final-Value: -11.880


	FINAL GENETIC ALGORITHM DOCKED STATE
	_______________________________________________


Detailed state:  trans 36.908 12.391 121.437 quatxyzw 0.383537 -0.744597 -0.544137 -0.048877 center 0.725 -0.143 0.203 ntor 5 -172.2898 -174.5715 90.9202 -5.3539 68.6428
State:	 36.908  12.391 121.437   0.384 -0.745 -0.545 -174.397   -172.29 -174.57   90.92   -5.35   68.64

DOCKED: MODEL        7
DOCKED: USER    Run = 7
DOCKED: USER    DPF = ligand_dock.biased.dpf
DOCKED: USER  
DOCKED: USER    Estimated Free Energy of Binding    =   -9.47 kcal/mol  [=(1)+(2)+(3)-(4)]
DOCKED: USER    Estimated Inhibition Constant, Ki   =  114.44 nM (nanomolar)  [Temperature = 298.15 K]
DOCKED: USER    
DOCKED: USER    (1) Final Intermolecular Energy     =  -10.96 kcal/mol
DOCKED: USER        vdW + Hbond + desolv Energy     =  -10.96 kcal/mol
DOCKED: USER        Electrostatic Energy            =   +0.00 kcal/mol
DOCKED: USER    (2) Final Total Internal Energy     =   -0.92 kcal/mol
DOCKED: USER    (3) Torsional Free Energy           =   +1.49 kcal/mol
DOCKED: USER    (4) Unbound System's Energy  [=(2)] =   -0.92 kcal/mol
DOCKED: USER    
DOCKED: USER    
DOCKED: USER    NEWDPF move ligand.dum.pdbqt
DOCKED: USER    NEWDPF about 0.725000 -0.143000 0.203000
DOCKED: USER    NEWDPF tran0 36.907883 12.391224 121.436725
DOCKED: USER    NEWDPF quaternion0 0.383537 -0.744597 -0.544137 -0.048877
DOCKED: USER    NEWDPF axisangle0 0.383996 -0.745488 -0.544788 -174.396910
DOCKED: USER    NEWDPF quat0 0.383996 -0.745488 -0.544788 -174.396910
DOCKED: USER    NEWDPF dihe0 -172.29 -174.57 90.92 -5.35 68.64 
DOCKED: USER  keepresnum = 1 
DOCKED: USER  
DOCKED: REMARK  Name = 
DOCKED: REMARK  5 active torsions:
DOCKED: REMARK  status: ('A' for Active; 'I' for Inactive)
DOCKED: REMARK    1  A    between atoms: O_1  and  N_2
DOCKED: REMARK    2  A    between atoms: C_3  and  C_4
DOCKED: REMARK    3  A    between atoms: C_4  and  C_5
DOCKED: REMARK    4  A    between atoms: C_5  and  C_6
DOCKED: REMARK    5  A    between atoms: C_6  and  C_7
DOCKED: REMARK                            x       y       z     vdW  Elec       q    Type
DOCKED: REMARK                         _______ _______ _______ _____ _____    ______ ____
DOCKED: USER                              x       y       z     vdW  Elec       q    Type
DOCKED: USER                           _______ _______ _______ _____ _____    ______ ____
DOCKED: ROOT
DOCKED: ATOM      1  C   UNL     1      36.945  11.880 121.809 -0.58 -0.00    +0.000 C 
DOCKED: ENDROOT
DOCKED: BRANCH   1   2
DOCKED: ATOM      2  C   UNL     1      35.933  10.749 122.006 -0.54 -0.00    +0.000 C 
DOCKED: BRANCH   2   4
DOCKED: ATOM      3  N   UNL     1      36.814   8.817 123.401 -0.61 -0.00    +0.000 N 
DOCKED: ATOM      4  C   UNL     1      36.636   9.430 122.122 -0.70 -0.00    +0.000 C 
DOCKED: ATOM      5  O   UNL     1      37.035   8.841 121.081 -2.69 -0.00    +0.000 OA
DOCKED: ATOM      6  H   UNL     1      36.478   9.268 124.209 -0.40 -0.00    +0.000 HD
DOCKED: BRANCH   3   7
DOCKED: ATOM      7  O   UNL     1      37.441   7.621 123.511 -2.09 -0.00    +0.000 OA
DOCKED: ATOM      8  H   UNL     1      37.814   7.373 122.651 -0.34 -0.00    +0.000 HD
DOCKED: ENDBRANCH   3   7
DOCKED: ENDBRANCH   2   4
DOCKED: ENDBRANCH   1   2
DOCKED: BRANCH   1   9
DOCKED: ATOM      9  C   UNL     1      37.410  12.444 123.155 -0.58 -0.00    +0.000 C 
DOCKED: BRANCH   9  10
DOCKED: ATOM     10  C   UNL     1      36.891  13.844 123.349 -0.48 -0.00    +0.000 A 
DOCKED: ATOM     11  C   UNL     1      35.592  14.057 123.840 -0.49 -0.00    +0.000 A 
DOCKED: ATOM     12  C   UNL     1      35.100  15.358 123.989 -0.50 -0.00    +0.000 A 
DOCKED: ATOM     13  C   UNL     1      35.896  16.452 123.640 -0.34 -0.00    +0.000 A 
DOCKED: ATOM     14  C   UNL     1      37.186  16.247 123.139 -0.27 -0.00    +0.000 A 
DOCKED: ATOM     15  C   UNL     1      37.682  14.949 122.988 -0.37 -0.00    +0.000 A 
DOCKED: ATOM     16  CM  UNL     1      36.392  15.151 123.491 +0.00 -0.00    +0.000 AC
DOCKED: ENDBRANCH   9  10
DOCKED: ENDBRANCH   1   9
DOCKED: TORSDOF 5DOCKED: TER
DOCKED: ENDMDL
________________________________________________________________________________


	BEGINNING GENETIC ALGORITHM DOCKING 8 of 100
Run: 8 Seed: 1399753633 743419810 [ Run 8 of 100 GA/GALS ]
Beginning LAMARCKIAN GENETIC ALGORITHM (LGA), with a maximum of 2500000 energy evaluations.

Final-Value: -11.931


	FINAL GENETIC ALGORITHM DOCKED STATE
	_______________________________________________


Detailed state:  trans 37.535 11.622 123.675 quatxyzw -0.229596 0.614610 -0.601147 -0.456248 center 0.725 -0.143 0.203 ntor 5 -175.0719 147.1121 -53.6004 -80.8912 -86.4677
State:	 37.535  11.622 123.675  -0.258  0.691 -0.676 -125.710   -175.07  147.11  -53.60  -80.89  -86.47

DOCKED: MODEL        8
DOCKED: USER    Run = 8
DOCKED: USER    DPF = ligand_dock.biased.dpf
DOCKED: USER  
DOCKED: USER    Estimated Free Energy of Binding    =   -9.54 kcal/mol  [=(1)+(2)+(3)-(4)]
DOCKED: USER    Estimated Inhibition Constant, Ki   =  102.21 nM (nanomolar)  [Temperature = 298.15 K]
DOCKED: USER    
DOCKED: USER    (1) Final Intermolecular Energy     =  -11.03 kcal/mol
DOCKED: USER        vdW + Hbond + desolv Energy     =  -11.03 kcal/mol
DOCKED: USER        Electrostatic Energy            =   +0.00 kcal/mol
DOCKED: USER    (2) Final Total Internal Energy     =   -0.90 kcal/mol
DOCKED: USER    (3) Torsional Free Energy           =   +1.49 kcal/mol
DOCKED: USER    (4) Unbound System's Energy  [=(2)] =   -0.90 kcal/mol
DOCKED: USER    
DOCKED: USER    
DOCKED: USER    NEWDPF move ligand.dum.pdbqt
DOCKED: USER    NEWDPF about 0.725000 -0.143000 0.203000
DOCKED: USER    NEWDPF tran0 37.535303 11.622477 123.675130
DOCKED: USER    NEWDPF quaternion0 -0.229596 0.614610 -0.601147 -0.456248
DOCKED: USER    NEWDPF axisangle0 -0.258015 0.690688 -0.675558 -125.709521
DOCKED: USER    NEWDPF quat0 -0.258015 0.690688 -0.675558 -125.709521
DOCKED: USER    NEWDPF dihe0 -175.07 147.11 -53.60 -80.89 -86.47 
DOCKED: USER  keepresnum = 1 
DOCKED: USER  
DOCKED: REMARK  Name = 
DOCKED: REMARK  5 active torsions:
DOCKED: REMARK  status: ('A' for Active; 'I' for Inactive)
DOCKED: REMARK    1  A    between atoms: O_1  and  N_2
DOCKED: REMARK    2  A    between atoms: C_3  and  C_4
DOCKED: REMARK    3  A    between atoms: C_4  and  C_5
DOCKED: REMARK    4  A    between atoms: C_5  and  C_6
DOCKED: REMARK    5  A    between atoms: C_6  and  C_7
DOCKED: REMARK                            x       y       z     vdW  Elec       q    Type
DOCKED: REMARK                         _______ _______ _______ _____ _____    ______ ____
DOCKED: USER                              x       y       z     vdW  Elec       q    Type
DOCKED: USER                           _______ _______ _______ _____ _____    ______ ____
DOCKED: ROOT
DOCKED: ATOM      1  C   UNL     1      37.049  11.824 123.324 -0.67 -0.00    +0.000 C 
DOCKED: ENDROOT
DOCKED: BRANCH   1   2
DOCKED: ATOM      2  C   UNL     1      36.171  11.044 122.343 -0.66 -0.00    +0.000 C 
DOCKED: BRANCH   2   4
DOCKED: ATOM      3  N   UNL     1      36.635   8.749 123.328 -0.63 -0.00    +0.000 N 
DOCKED: ATOM      4  C   UNL     1      36.662   9.634 122.206 -0.70 -0.00    +0.000 C 
DOCKED: ATOM      5  O   UNL     1      37.061   9.218 121.084 -2.74 -0.00    +0.000 OA
DOCKED: ATOM      6  H   UNL     1      36.299   9.070 124.195 -0.33 -0.00    +0.000 HD
DOCKED: BRANCH   3   7
DOCKED: ATOM      7  O   UNL     1      37.070   7.471 123.208 -2.21 -0.00    +0.000 OA
DOCKED: ATOM      8  H   UNL     1      37.438   7.338 122.320 -0.15 -0.00    +0.000 HD
DOCKED: ENDBRANCH   3   7
DOCKED: ENDBRANCH   2   4
DOCKED: ENDBRANCH   1   2
DOCKED: BRANCH   1   9
DOCKED: ATOM      9  C   UNL     1      37.571  13.116 122.687 -0.53 -0.00    +0.000 C 
DOCKED: BRANCH   9  10
DOCKED: ATOM     10  C   UNL     1      36.660  14.270 123.010 -0.44 -0.00    +0.000 A 
DOCKED: ATOM     11  C   UNL     1      35.608  14.108 123.927 -0.47 -0.00    +0.000 A 
DOCKED: ATOM     12  C   UNL     1      34.742  15.171 124.201 -0.52 -0.00    +0.000 A 
DOCKED: ATOM     13  C   UNL     1      34.915  16.399 123.557 -0.42 -0.00    +0.000 A 
DOCKED: ATOM     14  C   UNL     1      35.952  16.564 122.634 -0.27 -0.00    +0.000 A 
DOCKED: ATOM     15  C   UNL     1      36.820  15.504 122.356 -0.29 -0.00    +0.000 A 
DOCKED: ATOM     16  CM  UNL     1      35.783  15.336 123.281 +0.00 -0.00    +0.000 AC
DOCKED: ENDBRANCH   9  10
DOCKED: ENDBRANCH   1   9
DOCKED: TORSDOF 5DOCKED: TER
DOCKED: ENDMDL
________________________________________________________________________________


	BEGINNING GENETIC ALGORITHM DOCKING 9 of 100
Run: 9 Seed: 407678056 1398657150 [ Run 9 of 100 GA/GALS ]
Beginning LAMARCKIAN GENETIC ALGORITHM (LGA), with a maximum of 2500000 energy evaluations.

Final-Value: -11.887


	FINAL GENETIC ALGORITHM DOCKED STATE
	_______________________________________________


Detailed state:  trans 37.468 12.505 122.576 quatxyzw -0.514444 0.724813 0.277033 -0.365028 center 0.725 -0.143 0.203 ntor 5 -179.4192 150.6950 58.7732 60.1412 72.2090
State:	 37.468  12.505 122.576  -0.553  0.779  0.298 -137.181   -179.42  150.70   58.77   60.14   72.21

DOCKED: MODEL        9
DOCKED: USER    Run = 9
DOCKED: USER    DPF = ligand_dock.biased.dpf
DOCKED: USER  
DOCKED: USER    Estimated Free Energy of Binding    =   -9.49 kcal/mol  [=(1)+(2)+(3)-(4)]
DOCKED: USER    Estimated Inhibition Constant, Ki   =  110.92 nM (nanomolar)  [Temperature = 298.15 K]
DOCKED: USER    
DOCKED: USER    (1) Final Intermolecular Energy     =  -10.98 kcal/mol
DOCKED: USER        vdW + Hbond + desolv Energy     =  -10.98 kcal/mol
DOCKED: USER        Electrostatic Energy            =   +0.00 kcal/mol
DOCKED: USER    (2) Final Total Internal Energy     =   -0.91 kcal/mol
DOCKED: USER    (3) Torsional Free Energy           =   +1.49 kcal/mol
DOCKED: USER    (4) Unbound System's Energy  [=(2)] =   -0.91 kcal/mol
DOCKED: USER    
DOCKED: USER    
DOCKED: USER    NEWDPF move ligand.dum.pdbqt
DOCKED: USER    NEWDPF about 0.725000 -0.143000 0.203000
DOCKED: USER    NEWDPF tran0 37.467778 12.504720 122.575517
DOCKED: USER    NEWDPF quaternion0 -0.514444 0.724813 0.277033 -0.365028
DOCKED: USER    NEWDPF axisangle0 -0.552574 0.778535 0.297566 -137.181398
DOCKED: USER    NEWDPF quat0 -0.552574 0.778535 0.297566 -137.181398
DOCKED: USER    NEWDPF dihe0 -179.42 150.70 58.77 60.14 72.21 
DOCKED: USER  keepresnum = 1 
DOCKED: USER  
DOCKED: REMARK  Name = 
DOCKED: REMARK  5 active torsions:
DOCKED: REMARK  status: ('A' for Active; 'I' for Inactive)
DOCKED: REMARK    1  A    between atoms: O_1  and  N_2
DOCKED: REMARK    2  A    between atoms: C_3  and  C_4
DOCKED: REMARK    3  A    between atoms: C_4  and  C_5
DOCKED: REMARK    4  A    between atoms: C_5  and  C_6
DOCKED: REMARK    5  A    between atoms: C_6  and  C_7
DOCKED: REMARK                            x       y       z     vdW  Elec       q    Type
DOCKED: REMARK                         _______ _______ _______ _____ _____    ______ ____
DOCKED: USER                              x       y       z     vdW  Elec       q    Type
DOCKED: USER                           _______ _______ _______ _____ _____    ______ ____
DOCKED: ROOT
DOCKED: ATOM      1  C   UNL     1      37.071  12.053 122.774 -0.63 -0.00    +0.000 C 
DOCKED: ENDROOT
DOCKED: BRANCH   1   2
DOCKED: ATOM      2  C   UNL     1      36.150  11.143 121.957 -0.58 -0.00    +0.000 C 
DOCKED: BRANCH   2   4
DOCKED: ATOM      3  N   UNL     1      36.669   8.967 123.162 -0.65 -0.00    +0.000 N 
DOCKED: ATOM      4  C   UNL     1      36.668   9.736 121.956 -0.67 -0.00    +0.000 C 
DOCKED: ATOM      5  O   UNL     1      37.066   9.217 120.878 -2.74 -0.00    +0.000 OA
DOCKED: ATOM      6  H   UNL     1      36.334   9.368 123.996 -0.34 -0.00    +0.000 HD
DOCKED: BRANCH   3   7
DOCKED: ATOM      7  O   UNL     1      37.128   7.693 123.166 -2.30 -0.00    +0.000 OA
DOCKED: ATOM      8  H   UNL     1      37.428   7.455 122.274 -0.13 -0.00    +0.000 HD
DOCKED: ENDBRANCH   3   7
DOCKED: ENDBRANCH   2   4
DOCKED: ENDBRANCH   1   2
DOCKED: BRANCH   1   9
DOCKED: ATOM      9  C   UNL     1      36.308  12.719 123.923 -0.59 -0.00    +0.000 C 
DOCKED: BRANCH   9  10
DOCKED: ATOM     10  C   UNL     1      36.096  14.182 123.638 -0.48 -0.00    +0.000 A 
DOCKED: ATOM     11  C   UNL     1      34.954  14.841 124.124 -0.48 -0.00    +0.000 A 
DOCKED: ATOM     12  C   UNL     1      34.742  16.192 123.831 -0.47 -0.00    +0.000 A 
DOCKED: ATOM     13  C   UNL     1      35.662  16.891 123.044 -0.30 -0.00    +0.000 A 
DOCKED: ATOM     14  C   UNL     1      36.794  16.239 122.547 -0.25 -0.00    +0.000 A 
DOCKED: ATOM     15  C   UNL     1      37.010  14.888 122.836 -0.37 -0.00    +0.000 A 
DOCKED: ATOM     16  CM  UNL     1      35.877  15.539 123.337 +0.00 -0.00    +0.000 AC
DOCKED: ENDBRANCH   9  10
DOCKED: ENDBRANCH   1   9
DOCKED: TORSDOF 5DOCKED: TER
DOCKED: ENDMDL
________________________________________________________________________________


	BEGINNING GENETIC ALGORITHM DOCKING 10 of 100
Run: 10 Seed: 1577013389 332497556 [ Run 10 of 100 GA/GALS ]
Beginning LAMARCKIAN GENETIC ALGORITHM (LGA), with a maximum of 2500000 energy evaluations.

Final-Value: -11.421


	FINAL GENETIC ALGORITHM DOCKED STATE
	_______________________________________________


Detailed state:  trans 37.352 11.679 123.183 quatxyzw -0.449778 0.680783 -0.341512 -0.466481 center 0.725 -0.143 0.203 ntor 5 -174.2095 151.5487 -21.3285 21.4770 58.6885
State:	 37.352  11.679 123.183  -0.508  0.770 -0.386 -124.388   -174.21  151.55  -21.33   21.48   58.69

DOCKED: MODEL       10
DOCKED: USER    Run = 10
DOCKED: USER    DPF = ligand_dock.biased.dpf
DOCKED: USER  
DOCKED: USER    Estimated Free Energy of Binding    =   -9.02 kcal/mol  [=(1)+(2)+(3)-(4)]
DOCKED: USER    Estimated Inhibition Constant, Ki   =  243.82 nM (nanomolar)  [Temperature = 298.15 K]
DOCKED: USER    
DOCKED: USER    (1) Final Intermolecular Energy     =  -10.51 kcal/mol
DOCKED: USER        vdW + Hbond + desolv Energy     =  -10.51 kcal/mol
DOCKED: USER        Electrostatic Energy            =   +0.00 kcal/mol
DOCKED: USER    (2) Final Total Internal Energy     =   -0.91 kcal/mol
DOCKED: USER    (3) Torsional Free Energy           =   +1.49 kcal/mol
DOCKED: USER    (4) Unbound System's Energy  [=(2)] =   -0.91 kcal/mol
DOCKED: USER    
DOCKED: USER    
DOCKED: USER    NEWDPF move ligand.dum.pdbqt
DOCKED: USER    NEWDPF about 0.725000 -0.143000 0.203000
DOCKED: USER    NEWDPF tran0 37.352091 11.678830 123.182894
DOCKED: USER    NEWDPF quaternion0 -0.449778 0.680783 -0.341512 -0.466481
DOCKED: USER    NEWDPF axisangle0 -0.508493 0.769653 -0.386094 -124.387838
DOCKED: USER    NEWDPF quat0 -0.508493 0.769653 -0.386094 -124.387838
DOCKED: USER    NEWDPF dihe0 -174.21 151.55 -21.33 21.48 58.69 
DOCKED: USER  keepresnum = 1 
DOCKED: USER  
DOCKED: REMARK  Name = 
DOCKED: REMARK  5 active torsions:
DOCKED: REMARK  status: ('A' for Active; 'I' for Inactive)
DOCKED: REMARK    1  A    between atoms: O_1  and  N_2
DOCKED: REMARK    2  A    between atoms: C_3  and  C_4
DOCKED: REMARK    3  A    between atoms: C_4  and  C_5
DOCKED: REMARK    4  A    between atoms: C_5  and  C_6
DOCKED: REMARK    5  A    between atoms: C_6  and  C_7
DOCKED: REMARK                            x       y       z     vdW  Elec       q    Type
DOCKED: REMARK                         _______ _______ _______ _____ _____    ______ ____
DOCKED: USER                              x       y       z     vdW  Elec       q    Type
DOCKED: USER                           _______ _______ _______ _____ _____    ______ ____
DOCKED: ROOT
DOCKED: ATOM      1  C   UNL     1      36.725  11.637 123.105 -0.69 -0.00    +0.000 C 
DOCKED: ENDROOT
DOCKED: BRANCH   1   2
DOCKED: ATOM      2  C   UNL     1      35.912  10.607 122.317 -0.65 -0.00    +0.000 C 
DOCKED: BRANCH   2   4
DOCKED: ATOM      3  N   UNL     1      36.792   8.514 123.457 -0.65 -0.00    +0.000 N 
DOCKED: ATOM      4  C   UNL     1      36.634   9.294 122.269 -0.72 -0.00    +0.000 C 
DOCKED: ATOM      5  O   UNL     1      37.066   8.858 121.168 -2.69 -0.00    +0.000 OA
DOCKED: ATOM      6  H   UNL     1      36.431   8.846 124.310 -0.32 -0.00    +0.000 HD
DOCKED: BRANCH   3   7
DOCKED: ATOM      7  O   UNL     1      37.436   7.322 123.418 -1.95 -0.00    +0.000 OA
DOCKED: ATOM      8  H   UNL     1      37.808   7.185 122.532 -0.34 -0.00    +0.000 HD
DOCKED: ENDBRANCH   3   7
DOCKED: ENDBRANCH   2   4
DOCKED: ENDBRANCH   1   2
DOCKED: BRANCH   1   9
DOCKED: ATOM      9  C   UNL     1      36.309  13.065 122.737 -0.53 -0.00    +0.000 C 
DOCKED: BRANCH   9  10
DOCKED: ATOM     10  C   UNL     1      37.487  13.838 122.205 -0.42 -0.00    +0.000 A 
DOCKED: ATOM     11  C   UNL     1      37.548  14.191 120.847 -0.32 -0.00    +0.000 A 
DOCKED: ATOM     12  C   UNL     1      38.657  14.881 120.348 -0.24 -0.00    +0.000 A 
DOCKED: ATOM     13  C   UNL     1      39.716  15.214 121.198 -0.26 -0.00    +0.000 A 
DOCKED: ATOM     14  C   UNL     1      39.667  14.854 122.548 -0.36 -0.00    +0.000 A 
DOCKED: ATOM     15  C   UNL     1      38.561  14.164 123.051 -0.35 -0.00    +0.000 A 
DOCKED: ATOM     16  CM  UNL     1      38.606  14.523 121.700 +0.00 -0.00    +0.000 AC
DOCKED: ENDBRANCH   9  10
DOCKED: ENDBRANCH   1   9
DOCKED: TORSDOF 5DOCKED: TER
DOCKED: ENDMDL
________________________________________________________________________________


	BEGINNING GENETIC ALGORITHM DOCKING 11 of 100
Run: 11 Seed: 1339601691 935748264 [ Run 11 of 100 GA/GALS ]
Beginning LAMARCKIAN GENETIC ALGORITHM (LGA), with a maximum of 2500000 energy evaluations.

Final-Value: -11.487


	FINAL GENETIC ALGORITHM DOCKED STATE
	_______________________________________________


Detailed state:  trans 35.704 12.098 121.756 quatxyzw 0.396558 -0.638026 -0.638042 -0.169020 center 0.725 -0.143 0.203 ntor 5 -179.9420 -159.0779 104.8499 179.1986 15.3071
State:	 35.704  12.098 121.756   0.402 -0.647 -0.647 -160.538   -179.94 -159.08  104.85  179.20   15.31

DOCKED: MODEL       11
DOCKED: USER    Run = 11
DOCKED: USER    DPF = ligand_dock.biased.dpf
DOCKED: USER  
DOCKED: USER    Estimated Free Energy of Binding    =   -9.08 kcal/mol  [=(1)+(2)+(3)-(4)]
DOCKED: USER    Estimated Inhibition Constant, Ki   =  222.06 nM (nanomolar)  [Temperature = 298.15 K]
DOCKED: USER    
DOCKED: USER    (1) Final Intermolecular Energy     =  -10.57 kcal/mol
DOCKED: USER        vdW + Hbond + desolv Energy     =  -10.57 kcal/mol
DOCKED: USER        Electrostatic Energy            =   +0.00 kcal/mol
DOCKED: USER    (2) Final Total Internal Energy     =   -0.92 kcal/mol
DOCKED: USER    (3) Torsional Free Energy           =   +1.49 kcal/mol
DOCKED: USER    (4) Unbound System's Energy  [=(2)] =   -0.92 kcal/mol
DOCKED: USER    
DOCKED: USER    
DOCKED: USER    NEWDPF move ligand.dum.pdbqt
DOCKED: USER    NEWDPF about 0.725000 -0.143000 0.203000
DOCKED: USER    NEWDPF tran0 35.703837 12.097826 121.756429
DOCKED: USER    NEWDPF quaternion0 0.396558 -0.638026 -0.638042 -0.169020
DOCKED: USER    NEWDPF axisangle0 0.402346 -0.647339 -0.647356 -160.538357
DOCKED: USER    NEWDPF quat0 0.402346 -0.647339 -0.647356 -160.538357
DOCKED: USER    NEWDPF dihe0 -179.94 -159.08 104.85 179.20 15.31 
DOCKED: USER  keepresnum = 1 
DOCKED: USER  
DOCKED: REMARK  Name = 
DOCKED: REMARK  5 active torsions:
DOCKED: REMARK  status: ('A' for Active; 'I' for Inactive)
DOCKED: REMARK    1  A    between atoms: O_1  and  N_2
DOCKED: REMARK    2  A    between atoms: C_3  and  C_4
DOCKED: REMARK    3  A    between atoms: C_4  and  C_5
DOCKED: REMARK    4  A    between atoms: C_5  and  C_6
DOCKED: REMARK    5  A    between atoms: C_6  and  C_7
DOCKED: REMARK                            x       y       z     vdW  Elec       q    Type
DOCKED: REMARK                         _______ _______ _______ _____ _____    ______ ____
DOCKED: USER                              x       y       z     vdW  Elec       q    Type
DOCKED: USER                           _______ _______ _______ _____ _____    ______ ____
DOCKED: ROOT
DOCKED: ATOM      1  C   UNL     1      35.937  11.565 122.007 -0.49 -0.00    +0.000 C 
DOCKED: ENDROOT
DOCKED: BRANCH   1   2
DOCKED: ATOM      2  C   UNL     1      35.257  10.208 122.208 -0.54 -0.00    +0.000 C 
DOCKED: BRANCH   2   4
DOCKED: ATOM      3  N   UNL     1      36.435   8.311 123.420 -0.66 -0.00    +0.000 N 
DOCKED: ATOM      4  C   UNL     1      36.277   9.110 122.245 -0.71 -0.00    +0.000 C 
DOCKED: ATOM      5  O   UNL     1      36.970   8.866 121.220 -2.66 -0.00    +0.000 OA
DOCKED: ATOM      6  H   UNL     1      35.875   8.488 124.209 -0.17 -0.00    +0.000 HD
DOCKED: BRANCH   3   7
DOCKED: ATOM      7  O   UNL     1      37.349   7.312 123.456 -1.97 -0.00    +0.000 OA
DOCKED: ATOM      8  H   UNL     1      37.815   7.270 122.605 -0.35 -0.00    +0.000 HD
DOCKED: ENDBRANCH   3   7
DOCKED: ENDBRANCH   2   4
DOCKED: ENDBRANCH   1   2
DOCKED: BRANCH   1   9
DOCKED: ATOM      9  C   UNL     1      36.617  12.037 123.296 -0.69 -0.00    +0.000 C 
DOCKED: BRANCH   9  10
DOCKED: ATOM     10  C   UNL     1      36.950  13.503 123.211 -0.50 -0.00    +0.000 A 
DOCKED: ATOM     11  C   UNL     1      38.208  13.918 122.743 -0.42 -0.00    +0.000 A 
DOCKED: ATOM     12  C   UNL     1      38.529  15.278 122.695 -0.33 -0.00    +0.000 A 
DOCKED: ATOM     13  C   UNL     1      37.601  16.232 123.122 -0.26 -0.00    +0.000 A 
DOCKED: ATOM     14  C   UNL     1      36.351  15.826 123.601 -0.35 -0.00    +0.000 A 
DOCKED: ATOM     15  C   UNL     1      36.027  14.467 123.651 -0.47 -0.00    +0.000 A 
DOCKED: ATOM     16  CM  UNL     1      37.277  14.870 123.171 +0.00 -0.00    +0.000 AC
DOCKED: ENDBRANCH   9  10
DOCKED: ENDBRANCH   1   9
DOCKED: TORSDOF 5DOCKED: TER
DOCKED: ENDMDL
________________________________________________________________________________


	BEGINNING GENETIC ALGORITHM DOCKING 12 of 100
Run: 12 Seed: 1898235709 1215107581 [ Run 12 of 100 GA/GALS ]
Beginning LAMARCKIAN GENETIC ALGORITHM (LGA), with a maximum of 2500000 energy evaluations.

Final-Value: -11.204


	FINAL GENETIC ALGORITHM DOCKED STATE
	_______________________________________________


Detailed state:  trans 35.161 11.198 123.324 quatxyzw 0.266473 -0.194994 -0.424970 -0.842834 center 0.725 -0.143 0.203 ntor 5 -168.3911 -26.5846 19.4730 142.6915 -132.8928
State:	 35.161  11.198 123.324   0.495 -0.362 -0.790 -65.119   -168.39  -26.58   19.47  142.69 -132.89

DOCKED: MODEL       12
DOCKED: USER    Run = 12
DOCKED: USER    DPF = ligand_dock.biased.dpf
DOCKED: USER  
DOCKED: USER    Estimated Free Energy of Binding    =   -8.70 kcal/mol  [=(1)+(2)+(3)-(4)]
DOCKED: USER    Estimated Inhibition Constant, Ki   =  416.45 nM (nanomolar)  [Temperature = 298.15 K]
DOCKED: USER    
DOCKED: USER    (1) Final Intermolecular Energy     =  -10.20 kcal/mol
DOCKED: USER        vdW + Hbond + desolv Energy     =  -10.20 kcal/mol
DOCKED: USER        Electrostatic Energy            =   +0.00 kcal/mol
DOCKED: USER    (2) Final Total Internal Energy     =   -1.01 kcal/mol
DOCKED: USER    (3) Torsional Free Energy           =   +1.49 kcal/mol
DOCKED: USER    (4) Unbound System's Energy  [=(2)] =   -1.01 kcal/mol
DOCKED: USER    
DOCKED: USER    
DOCKED: USER    NEWDPF move ligand.dum.pdbqt
DOCKED: USER    NEWDPF about 0.725000 -0.143000 0.203000
DOCKED: USER    NEWDPF tran0 35.161387 11.198086 123.324062
DOCKED: USER    NEWDPF quaternion0 0.266473 -0.194994 -0.424970 -0.842834
DOCKED: USER    NEWDPF axisangle0 0.495144 -0.362326 -0.789653 -65.118696
DOCKED: USER    NEWDPF quat0 0.495144 -0.362326 -0.789653 -65.118696
DOCKED: USER    NEWDPF dihe0 -168.39 -26.58 19.47 142.69 -132.89 
DOCKED: USER  keepresnum = 1 
DOCKED: USER  
DOCKED: REMARK  Name = 
DOCKED: REMARK  5 active torsions:
DOCKED: REMARK  status: ('A' for Active; 'I' for Inactive)
DOCKED: REMARK    1  A    between atoms: O_1  and  N_2
DOCKED: REMARK    2  A    between atoms: C_3  and  C_4
DOCKED: REMARK    3  A    between atoms: C_4  and  C_5
DOCKED: REMARK    4  A    between atoms: C_5  and  C_6
DOCKED: REMARK    5  A    between atoms: C_6  and  C_7
DOCKED: REMARK                            x       y       z     vdW  Elec       q    Type
DOCKED: REMARK                         _______ _______ _______ _____ _____    ______ ____
DOCKED: USER                              x       y       z     vdW  Elec       q    Type
DOCKED: USER                           _______ _______ _______ _____ _____    ______ ____
DOCKED: ROOT
DOCKED: ATOM      1  C   UNL     1      35.713  11.341 123.047 -0.65 -0.00    +0.000 C 
DOCKED: ENDROOT
DOCKED: BRANCH   1   2
DOCKED: ATOM      2  C   UNL     1      37.070  10.644 123.173 -0.60 -0.00    +0.000 C 
DOCKED: BRANCH   2   4
DOCKED: ATOM      3  N   UNL     1      37.071   8.108 123.313 -0.74 -0.00    +0.000 N 
DOCKED: ATOM      4  C   UNL     1      37.031   9.296 122.519 -0.64 -0.00    +0.000 C 
DOCKED: ATOM      5  O   UNL     1      36.922   9.212 121.266 -2.64 -0.00    +0.000 OA
DOCKED: ATOM      6  H   UNL     1      37.132   8.177 124.293 -0.38 -0.00    +0.000 HD
DOCKED: BRANCH   3   7
DOCKED: ATOM      7  O   UNL     1      37.028   6.886 122.728 -1.58 -0.00    +0.000 OA
DOCKED: ATOM      8  H   UNL     1      37.155   6.983 121.771 -0.17 -0.00    +0.000 HD
DOCKED: ENDBRANCH   3   7
DOCKED: ENDBRANCH   2   4
DOCKED: ENDBRANCH   1   2
DOCKED: BRANCH   1   9
DOCKED: ATOM      9  C   UNL     1      35.847  12.852 123.262 -0.52 -0.00    +0.000 C 
DOCKED: BRANCH   9  10
DOCKED: ATOM     10  C   UNL     1      36.996  13.399 122.458 -0.46 -0.00    +0.000 A 
DOCKED: ATOM     11  C   UNL     1      37.976  14.196 123.074 -0.42 -0.00    +0.000 A 
DOCKED: ATOM     12  C   UNL     1      39.026  14.730 122.320 -0.37 -0.00    +0.000 A 
DOCKED: ATOM     13  C   UNL     1      39.100  14.481 120.947 -0.28 -0.00    +0.000 A 
DOCKED: ATOM     14  C   UNL     1      38.122  13.699 120.325 -0.33 -0.00    +0.000 A 
DOCKED: ATOM     15  C   UNL     1      37.070  13.163 121.075 -0.40 -0.00    +0.000 A 
DOCKED: ATOM     16  CM  UNL     1      38.048  13.945 121.700 +0.00 -0.00    +0.000 AC
DOCKED: ENDBRANCH   9  10
DOCKED: ENDBRANCH   1   9
DOCKED: TORSDOF 5DOCKED: TER
DOCKED: ENDMDL
________________________________________________________________________________


	BEGINNING GENETIC ALGORITHM DOCKING 13 of 100
Run: 13 Seed: 1775933659 1523484128 [ Run 13 of 100 GA/GALS ]
Beginning LAMARCKIAN GENETIC ALGORITHM (LGA), with a maximum of 2500000 energy evaluations.

Final-Value: -11.212


	FINAL GENETIC ALGORITHM DOCKED STATE
	_______________________________________________


Detailed state:  trans 36.078 11.985 121.770 quatxyzw 0.233896 -0.612250 -0.479417 -0.583611 center 0.725 -0.143 0.203 ntor 5 -175.6587 -79.5708 39.0216 130.1511 73.9944
State:	 36.078  11.985 121.770   0.288 -0.754 -0.590 -108.590   -175.66  -79.57   39.02  130.15   73.99

DOCKED: MODEL       13
DOCKED: USER    Run = 13
DOCKED: USER    DPF = ligand_dock.biased.dpf
DOCKED: USER  
DOCKED: USER    Estimated Free Energy of Binding    =   -8.86 kcal/mol  [=(1)+(2)+(3)-(4)]
DOCKED: USER    Estimated Inhibition Constant, Ki   =  319.80 nM (nanomolar)  [Temperature = 298.15 K]
DOCKED: USER    
DOCKED: USER    (1) Final Intermolecular Energy     =  -10.35 kcal/mol
DOCKED: USER        vdW + Hbond + desolv Energy     =  -10.35 kcal/mol
DOCKED: USER        Electrostatic Energy            =   +0.00 kcal/mol
DOCKED: USER    (2) Final Total Internal Energy     =   -0.86 kcal/mol
DOCKED: USER    (3) Torsional Free Energy           =   +1.49 kcal/mol
DOCKED: USER    (4) Unbound System's Energy  [=(2)] =   -0.86 kcal/mol
DOCKED: USER    
DOCKED: USER    
DOCKED: USER    NEWDPF move ligand.dum.pdbqt
DOCKED: USER    NEWDPF about 0.725000 -0.143000 0.203000
DOCKED: USER    NEWDPF tran0 36.077597 11.984861 121.769820
DOCKED: USER    NEWDPF quaternion0 0.233896 -0.612250 -0.479417 -0.583611
DOCKED: USER    NEWDPF axisangle0 0.288038 -0.753972 -0.590391 -108.590153
DOCKED: USER    NEWDPF quat0 0.288038 -0.753972 -0.590391 -108.590153
DOCKED: USER    NEWDPF dihe0 -175.66 -79.57 39.02 130.15 73.99 
DOCKED: USER  keepresnum = 1 
DOCKED: USER  
DOCKED: REMARK  Name = 
DOCKED: REMARK  5 active torsions:
DOCKED: REMARK  status: ('A' for Active; 'I' for Inactive)
DOCKED: REMARK    1  A    between atoms: O_1  and  N_2
DOCKED: REMARK    2  A    between atoms: C_3  and  C_4
DOCKED: REMARK    3  A    between atoms: C_4  and  C_5
DOCKED: REMARK    4  A    between atoms: C_5  and  C_6
DOCKED: REMARK    5  A    between atoms: C_6  and  C_7
DOCKED: REMARK                            x       y       z     vdW  Elec       q    Type
DOCKED: REMARK                         _______ _______ _______ _____ _____    ______ ____
DOCKED: USER                              x       y       z     vdW  Elec       q    Type
DOCKED: USER                           _______ _______ _______ _____ _____    ______ ____
DOCKED: ROOT
DOCKED: ATOM      1  C   UNL     1      36.637  11.771 121.976 -0.60 -0.00    +0.000 C 
DOCKED: ENDROOT
DOCKED: BRANCH   1   2
DOCKED: ATOM      2  C   UNL     1      36.938  10.729 123.057 -0.64 -0.00    +0.000 C 
DOCKED: BRANCH   2   4
DOCKED: ATOM      3  N   UNL     1      36.879   8.201 123.301 -0.72 -0.00    +0.000 N 
DOCKED: ATOM      4  C   UNL     1      36.984   9.354 122.462 -0.65 -0.00    +0.000 C 
DOCKED: ATOM      5  O   UNL     1      37.074   9.217 121.212 -2.73 -0.00    +0.000 OA
DOCKED: ATOM      6  H   UNL     1      36.783   8.313 124.274 -0.36 -0.00    +0.000 HD
DOCKED: BRANCH   3   7
DOCKED: ATOM      7  O   UNL     1      36.911   6.956 122.769 -1.63 -0.00    +0.000 OA
DOCKED: ATOM      8  H   UNL     1      37.077   7.018 121.815 -0.14 -0.00    +0.000 HD
DOCKED: ENDBRANCH   3   7
DOCKED: ENDBRANCH   2   4
DOCKED: ENDBRANCH   1   2
DOCKED: BRANCH   1   9
DOCKED: ATOM      9  C   UNL     1      37.454  13.048 122.199 -0.53 -0.00    +0.000 C 
DOCKED: BRANCH   9  10
DOCKED: ATOM     10  C   UNL     1      36.576  14.151 122.727 -0.40 -0.00    +0.000 A 
DOCKED: ATOM     11  C   UNL     1      36.757  15.473 122.287 -0.28 -0.00    +0.000 A 
DOCKED: ATOM     12  C   UNL     1      35.962  16.502 122.802 -0.29 -0.00    +0.000 A 
DOCKED: ATOM     13  C   UNL     1      34.990  16.221 123.766 -0.44 -0.00    +0.000 A 
DOCKED: ATOM     14  C   UNL     1      34.813  14.909 124.218 -0.48 -0.00    +0.000 A 
DOCKED: ATOM     15  C   UNL     1      35.605  13.878 123.706 -0.46 -0.00    +0.000 A 
DOCKED: ATOM     16  CM  UNL     1      35.784  15.188 123.251 +0.00 -0.00    +0.000 AC
DOCKED: ENDBRANCH   9  10
DOCKED: ENDBRANCH   1   9
DOCKED: TORSDOF 5DOCKED: TER
DOCKED: ENDMDL
________________________________________________________________________________


	BEGINNING GENETIC ALGORITHM DOCKING 14 of 100
Run: 14 Seed: 1490023969 1815635785 [ Run 14 of 100 GA/GALS ]
Beginning LAMARCKIAN GENETIC ALGORITHM (LGA), with a maximum of 2500000 energy evaluations.

Final-Value: -11.781


	FINAL GENETIC ALGORITHM DOCKED STATE
	_______________________________________________


Detailed state:  trans 37.503 11.599 123.475 quatxyzw 0.328869 -0.597289 0.595057 0.425439 center 0.725 -0.143 0.203 ntor 5 179.8032 154.0602 -57.1214 -115.5048 -65.0252
State:	 37.503  11.599 123.475   0.363 -0.660  0.658 129.643    179.80  154.06  -57.12 -115.50  -65.03

DOCKED: MODEL       14
DOCKED: USER    Run = 14
DOCKED: USER    DPF = ligand_dock.biased.dpf
DOCKED: USER  
DOCKED: USER    Estimated Free Energy of Binding    =   -9.41 kcal/mol  [=(1)+(2)+(3)-(4)]
DOCKED: USER    Estimated Inhibition Constant, Ki   =  127.26 nM (nanomolar)  [Temperature = 298.15 K]
DOCKED: USER    
DOCKED: USER    (1) Final Intermolecular Energy     =  -10.90 kcal/mol
DOCKED: USER        vdW + Hbond + desolv Energy     =  -10.90 kcal/mol
DOCKED: USER        Electrostatic Energy            =   +0.00 kcal/mol
DOCKED: USER    (2) Final Total Internal Energy     =   -0.88 kcal/mol
DOCKED: USER    (3) Torsional Free Energy           =   +1.49 kcal/mol
DOCKED: USER    (4) Unbound System's Energy  [=(2)] =   -0.88 kcal/mol
DOCKED: USER    
DOCKED: USER    
DOCKED: USER    NEWDPF move ligand.dum.pdbqt
DOCKED: USER    NEWDPF about 0.725000 -0.143000 0.203000
DOCKED: USER    NEWDPF tran0 37.503303 11.598564 123.475165
DOCKED: USER    NEWDPF quaternion0 0.328869 -0.597289 0.595057 0.425439
DOCKED: USER    NEWDPF axisangle0 0.363397 -0.659997 0.657531 129.643064
DOCKED: USER    NEWDPF quat0 0.363397 -0.659997 0.657531 129.643064
DOCKED: USER    NEWDPF dihe0 179.80 154.06 -57.12 -115.50 -65.03 
DOCKED: USER  keepresnum = 1 
DOCKED: USER  
DOCKED: REMARK  Name = 
DOCKED: REMARK  5 active torsions:
DOCKED: REMARK  status: ('A' for Active; 'I' for Inactive)
DOCKED: REMARK    1  A    between atoms: O_1  and  N_2
DOCKED: REMARK    2  A    between atoms: C_3  and  C_4
DOCKED: REMARK    3  A    between atoms: C_4  and  C_5
DOCKED: REMARK    4  A    between atoms: C_5  and  C_6
DOCKED: REMARK    5  A    between atoms: C_6  and  C_7
DOCKED: REMARK                            x       y       z     vdW  Elec       q    Type
DOCKED: REMARK                         _______ _______ _______ _____ _____    ______ ____
DOCKED: USER                              x       y       z     vdW  Elec       q    Type
DOCKED: USER                           _______ _______ _______ _____ _____    ______ ____
DOCKED: ROOT
DOCKED: ATOM      1  C   UNL     1      36.954  11.711 123.181 -0.67 -0.00    +0.000 C 
DOCKED: ENDROOT
DOCKED: BRANCH   1   2
DOCKED: ATOM      2  C   UNL     1      36.038  10.739 122.433 -0.67 -0.00    +0.000 C 
DOCKED: BRANCH   2   4
DOCKED: ATOM      3  N   UNL     1      36.847   8.558 123.455 -0.65 -0.00    +0.000 N 
DOCKED: ATOM      4  C   UNL     1      36.690   9.395 122.306 -0.72 -0.00    +0.000 C 
DOCKED: ATOM      5  O   UNL     1      37.063   8.986 121.173 -2.71 -0.00    +0.000 OA
DOCKED: ATOM      6  H   UNL     1      36.532   8.870 124.333 -0.34 -0.00    +0.000 HD
DOCKED: BRANCH   3   7
DOCKED: ATOM      7  O   UNL     1      37.428   7.339 123.344 -1.96 -0.00    +0.000 OA
DOCKED: ATOM      8  H   UNL     1      37.678   7.183 122.420 -0.25 -0.00    +0.000 HD
DOCKED: ENDBRANCH   3   7
DOCKED: ENDBRANCH   2   4
DOCKED: ENDBRANCH   1   2
DOCKED: BRANCH   1   9
DOCKED: ATOM      9  C   UNL     1      37.244  12.955 122.335 -0.54 -0.00    +0.000 C 
DOCKED: BRANCH   9  10
DOCKED: ATOM     10  C   UNL     1      36.661  14.182 122.983 -0.44 -0.00    +0.000 A 
DOCKED: ATOM     11  C   UNL     1      35.543  14.075 123.827 -0.48 -0.00    +0.000 A 
DOCKED: ATOM     12  C   UNL     1      34.983  15.219 124.404 -0.49 -0.00    +0.000 A 
DOCKED: ATOM     13  C   UNL     1      35.528  16.478 124.134 -0.37 -0.00    +0.000 A 
DOCKED: ATOM     14  C   UNL     1      36.633  16.593 123.286 -0.27 -0.00    +0.000 A 
DOCKED: ATOM     15  C   UNL     1      37.196  15.452 122.707 -0.32 -0.00    +0.000 A 
DOCKED: ATOM     16  CM  UNL     1      36.091  15.333 123.556 +0.00 -0.00    +0.000 AC
DOCKED: ENDBRANCH   9  10
DOCKED: ENDBRANCH   1   9
DOCKED: TORSDOF 5DOCKED: TER
DOCKED: ENDMDL
________________________________________________________________________________


	BEGINNING GENETIC ALGORITHM DOCKING 15 of 100
Run: 15 Seed: 677600803 599018251 [ Run 15 of 100 GA/GALS ]
Beginning LAMARCKIAN GENETIC ALGORITHM (LGA), with a maximum of 2500000 energy evaluations.

Final-Value: -11.737


	FINAL GENETIC ALGORITHM DOCKED STATE
	_______________________________________________


Detailed state:  trans 37.389 12.088 122.607 quatxyzw -0.532610 0.762958 0.211860 -0.298893 center 0.725 -0.143 0.203 ntor 5 -179.6868 157.3372 43.8031 -120.0068 67.6197
State:	 37.389  12.088 122.607  -0.558  0.800  0.222 -145.218   -179.69  157.34   43.80 -120.01   67.62

DOCKED: MODEL       15
DOCKED: USER    Run = 15
DOCKED: USER    DPF = ligand_dock.biased.dpf
DOCKED: USER  
DOCKED: USER    Estimated Free Energy of Binding    =   -9.36 kcal/mol  [=(1)+(2)+(3)-(4)]
DOCKED: USER    Estimated Inhibition Constant, Ki   =  137.83 nM (nanomolar)  [Temperature = 298.15 K]
DOCKED: USER    
DOCKED: USER    (1) Final Intermolecular Energy     =  -10.85 kcal/mol
DOCKED: USER        vdW + Hbond + desolv Energy     =  -10.85 kcal/mol
DOCKED: USER        Electrostatic Energy            =   +0.00 kcal/mol
DOCKED: USER    (2) Final Total Internal Energy     =   -0.89 kcal/mol
DOCKED: USER    (3) Torsional Free Energy           =   +1.49 kcal/mol
DOCKED: USER    (4) Unbound System's Energy  [=(2)] =   -0.89 kcal/mol
DOCKED: USER    
DOCKED: USER    
DOCKED: USER    NEWDPF move ligand.dum.pdbqt
DOCKED: USER    NEWDPF about 0.725000 -0.143000 0.203000
DOCKED: USER    NEWDPF tran0 37.388846 12.087840 122.607095
DOCKED: USER    NEWDPF quaternion0 -0.532610 0.762958 0.211860 -0.298893
DOCKED: USER    NEWDPF axisangle0 -0.558124 0.799506 0.222009 -145.217791
DOCKED: USER    NEWDPF quat0 -0.558124 0.799506 0.222009 -145.217791
DOCKED: USER    NEWDPF dihe0 -179.69 157.34 43.80 -120.01 67.62 
DOCKED: USER  keepresnum = 1 
DOCKED: USER  
DOCKED: REMARK  Name = 
DOCKED: REMARK  5 active torsions:
DOCKED: REMARK  status: ('A' for Active; 'I' for Inactive)
DOCKED: REMARK    1  A    between atoms: O_1  and  N_2
DOCKED: REMARK    2  A    between atoms: C_3  and  C_4
DOCKED: REMARK    3  A    between atoms: C_4  and  C_5
DOCKED: REMARK    4  A    between atoms: C_5  and  C_6
DOCKED: REMARK    5  A    between atoms: C_6  and  C_7
DOCKED: REMARK                            x       y       z     vdW  Elec       q    Type
DOCKED: REMARK                         _______ _______ _______ _____ _____    ______ ____
DOCKED: USER                              x       y       z     vdW  Elec       q    Type
DOCKED: USER                           _______ _______ _______ _____ _____    ______ ____
DOCKED: ROOT
DOCKED: ATOM      1  C   UNL     1      36.994  11.695 122.908 -0.65 -0.00    +0.000 C 
DOCKED: ENDROOT
DOCKED: BRANCH   1   2
DOCKED: ATOM      2  C   UNL     1      36.017  10.669 122.326 -0.66 -0.00    +0.000 C 
DOCKED: BRANCH   2   4
DOCKED: ATOM      3  N   UNL     1      36.859   8.545 123.436 -0.66 -0.00    +0.000 N 
DOCKED: ATOM      4  C   UNL     1      36.659   9.317 122.250 -0.72 -0.00    +0.000 C 
DOCKED: ATOM      5  O   UNL     1      36.987   8.844 121.128 -2.68 -0.00    +0.000 OA
DOCKED: ATOM      6  H   UNL     1      36.579   8.907 124.307 -0.37 -0.00    +0.000 HD
DOCKED: BRANCH   3   7
DOCKED: ATOM      7  O   UNL     1      37.432   7.319 123.372 -1.94 -0.00    +0.000 OA
DOCKED: ATOM      8  H   UNL     1      37.652   7.114 122.449 -0.29 -0.00    +0.000 HD
DOCKED: ENDBRANCH   3   7
DOCKED: ENDBRANCH   2   4
DOCKED: ENDBRANCH   1   2
DOCKED: BRANCH   1   9
DOCKED: ATOM      9  C   UNL     1      36.300  12.594 123.936 -0.60 -0.00    +0.000 C 
DOCKED: BRANCH   9  10
DOCKED: ATOM     10  C   UNL     1      36.203  14.006 123.422 -0.48 -0.00    +0.000 A 
DOCKED: ATOM     11  C   UNL     1      37.192  14.519 122.567 -0.39 -0.00    +0.000 A 
DOCKED: ATOM     12  C   UNL     1      37.118  15.841 122.116 -0.24 -0.00    +0.000 A 
DOCKED: ATOM     13  C   UNL     1      36.063  16.662 122.523 -0.26 -0.00    +0.000 A 
DOCKED: ATOM     14  C   UNL     1      35.081  16.162 123.385 -0.41 -0.00    +0.000 A 
DOCKED: ATOM     15  C   UNL     1      35.152  14.841 123.838 -0.51 -0.00    +0.000 A 
DOCKED: ATOM     16  CM  UNL     1      36.135  15.338 122.976 +0.00 -0.00    +0.000 AC
DOCKED: ENDBRANCH   9  10
DOCKED: ENDBRANCH   1   9
DOCKED: TORSDOF 5DOCKED: TER
DOCKED: ENDMDL
________________________________________________________________________________


	BEGINNING GENETIC ALGORITHM DOCKING 16 of 100
Run: 16 Seed: 1119518175 4848854 [ Run 16 of 100 GA/GALS ]
Beginning LAMARCKIAN GENETIC ALGORITHM (LGA), with a maximum of 2500000 energy evaluations.

Final-Value: -12.053


	FINAL GENETIC ALGORITHM DOCKED STATE
	_______________________________________________


Detailed state:  trans 36.996 11.565 123.897 quatxyzw -0.000110 0.494152 -0.610868 -0.618590 center 0.725 -0.143 0.203 ntor 5 -173.3098 100.5235 -43.6734 -76.4468 -77.7024
State:	 36.996  11.565 123.897  -0.000  0.629 -0.777 -103.574   -173.31  100.52  -43.67  -76.45  -77.70

DOCKED: MODEL       16
DOCKED: USER    Run = 16
DOCKED: USER    DPF = ligand_dock.biased.dpf
DOCKED: USER  
DOCKED: USER    Estimated Free Energy of Binding    =   -9.67 kcal/mol  [=(1)+(2)+(3)-(4)]
DOCKED: USER    Estimated Inhibition Constant, Ki   =   82.07 nM (nanomolar)  [Temperature = 298.15 K]
DOCKED: USER    
DOCKED: USER    (1) Final Intermolecular Energy     =  -11.16 kcal/mol
DOCKED: USER        vdW + Hbond + desolv Energy     =  -11.16 kcal/mol
DOCKED: USER        Electrostatic Energy            =   +0.00 kcal/mol
DOCKED: USER    (2) Final Total Internal Energy     =   -0.89 kcal/mol
DOCKED: USER    (3) Torsional Free Energy           =   +1.49 kcal/mol
DOCKED: USER    (4) Unbound System's Energy  [=(2)] =   -0.89 kcal/mol
DOCKED: USER    
DOCKED: USER    
DOCKED: USER    NEWDPF move ligand.dum.pdbqt
DOCKED: USER    NEWDPF about 0.725000 -0.143000 0.203000
DOCKED: USER    NEWDPF tran0 36.996321 11.565031 123.896791
DOCKED: USER    NEWDPF quaternion0 -0.000110 0.494152 -0.610868 -0.618590
DOCKED: USER    NEWDPF axisangle0 -0.000141 0.628921 -0.777469 -103.573505
DOCKED: USER    NEWDPF quat0 -0.000141 0.628921 -0.777469 -103.573505
DOCKED: USER    NEWDPF dihe0 -173.31 100.52 -43.67 -76.45 -77.70 
DOCKED: USER  keepresnum = 1 
DOCKED: USER  
DOCKED: REMARK  Name = 
DOCKED: REMARK  5 active torsions:
DOCKED: REMARK  status: ('A' for Active; 'I' for Inactive)
DOCKED: REMARK    1  A    between atoms: O_1  and  N_2
DOCKED: REMARK    2  A    between atoms: C_3  and  C_4
DOCKED: REMARK    3  A    between atoms: C_4  and  C_5
DOCKED: REMARK    4  A    between atoms: C_5  and  C_6
DOCKED: REMARK    5  A    between atoms: C_6  and  C_7
DOCKED: REMARK                            x       y       z     vdW  Elec       q    Type
DOCKED: REMARK                         _______ _______ _______ _____ _____    ______ ____
DOCKED: USER                              x       y       z     vdW  Elec       q    Type
DOCKED: USER                           _______ _______ _______ _____ _____    ______ ____
DOCKED: ROOT
DOCKED: ATOM      1  C   UNL     1      36.793  11.841 123.364 -0.69 -0.00    +0.000 C 
DOCKED: ENDROOT
DOCKED: BRANCH   1   2
DOCKED: ATOM      2  C   UNL     1      36.622  11.241 121.966 -0.62 -0.00    +0.000 C 
DOCKED: BRANCH   2   4
DOCKED: ATOM      3  N   UNL     1      36.849   9.051 123.233 -0.63 -0.00    +0.000 N 
DOCKED: ATOM      4  C   UNL     1      36.873   9.763 121.994 -0.63 -0.00    +0.000 C 
DOCKED: ATOM      5  O   UNL     1      37.066   9.142 120.914 -2.73 -0.00    +0.000 OA
DOCKED: ATOM      6  H   UNL     1      36.674   9.536 124.071 -0.46 -0.00    +0.000 HD
DOCKED: BRANCH   3   7
DOCKED: ATOM      7  O   UNL     1      37.067   7.714 123.264 -2.32 -0.00    +0.000 OA
DOCKED: ATOM      8  H   UNL     1      37.328   7.410 122.380 -0.12 -0.00    +0.000 HD
DOCKED: ENDBRANCH   3   7
DOCKED: ENDBRANCH   2   4
DOCKED: ENDBRANCH   1   2
DOCKED: BRANCH   1   9
DOCKED: ATOM      9  C   UNL     1      37.586  13.151 123.308 -0.53 -0.00    +0.000 C 
DOCKED: BRANCH   9  10
DOCKED: ATOM     10  C   UNL     1      36.661  14.333 123.431 -0.45 -0.00    +0.000 A 
DOCKED: ATOM     11  C   UNL     1      35.325  14.150 123.826 -0.43 -0.00    +0.000 A 
DOCKED: ATOM     12  C   UNL     1      34.459  15.244 123.909 -0.52 -0.00    +0.000 A 
DOCKED: ATOM     13  C   UNL     1      34.916  16.526 123.588 -0.41 -0.00    +0.000 A 
DOCKED: ATOM     14  C   UNL     1      36.241  16.713 123.183 -0.28 -0.00    +0.000 A 
DOCKED: ATOM     15  C   UNL     1      37.110  15.622 123.098 -0.32 -0.00    +0.000 A 
DOCKED: ATOM     16  CM  UNL     1      35.786  15.431 123.505 +0.00 -0.00    +0.000 AC
DOCKED: ENDBRANCH   9  10
DOCKED: ENDBRANCH   1   9
DOCKED: TORSDOF 5DOCKED: TER
DOCKED: ENDMDL
________________________________________________________________________________


	BEGINNING GENETIC ALGORITHM DOCKING 17 of 100
Run: 17 Seed: 670325609 653955405 [ Run 17 of 100 GA/GALS ]
Beginning LAMARCKIAN GENETIC ALGORITHM (LGA), with a maximum of 2500000 energy evaluations.

Final-Value: -11.872


	FINAL GENETIC ALGORITHM DOCKED STATE
	_______________________________________________


Detailed state:  trans 37.191 11.475 123.965 quatxyzw -0.194085 0.559953 -0.654456 -0.469543 center 0.725 -0.143 0.203 ntor 5 179.4355 146.9014 -67.4271 80.7929 -76.0851
State:	 37.191  11.475 123.965  -0.220  0.634 -0.741 -123.991    179.44  146.90  -67.43   80.79  -76.09

DOCKED: MODEL       17
DOCKED: USER    Run = 17
DOCKED: USER    DPF = ligand_dock.biased.dpf
DOCKED: USER  
DOCKED: USER    Estimated Free Energy of Binding    =   -9.48 kcal/mol  [=(1)+(2)+(3)-(4)]
DOCKED: USER    Estimated Inhibition Constant, Ki   =  113.07 nM (nanomolar)  [Temperature = 298.15 K]
DOCKED: USER    
DOCKED: USER    (1) Final Intermolecular Energy     =  -10.97 kcal/mol
DOCKED: USER        vdW + Hbond + desolv Energy     =  -10.97 kcal/mol
DOCKED: USER        Electrostatic Energy            =   +0.00 kcal/mol
DOCKED: USER    (2) Final Total Internal Energy     =   -0.90 kcal/mol
DOCKED: USER    (3) Torsional Free Energy           =   +1.49 kcal/mol
DOCKED: USER    (4) Unbound System's Energy  [=(2)] =   -0.90 kcal/mol
DOCKED: USER    
DOCKED: USER    
DOCKED: USER    NEWDPF move ligand.dum.pdbqt
DOCKED: USER    NEWDPF about 0.725000 -0.143000 0.203000
DOCKED: USER    NEWDPF tran0 37.191477 11.474785 123.964584
DOCKED: USER    NEWDPF quaternion0 -0.194085 0.559953 -0.654456 -0.469543
DOCKED: USER    NEWDPF axisangle0 -0.219824 0.634214 -0.741249 -123.990752
DOCKED: USER    NEWDPF quat0 -0.219824 0.634214 -0.741249 -123.990752
DOCKED: USER    NEWDPF dihe0 179.44 146.90 -67.43 80.79 -76.09 
DOCKED: USER  keepresnum = 1 
DOCKED: USER  
DOCKED: REMARK  Name = 
DOCKED: REMARK  5 active torsions:
DOCKED: REMARK  status: ('A' for Active; 'I' for Inactive)
DOCKED: REMARK    1  A    between atoms: O_1  and  N_2
DOCKED: REMARK    2  A    between atoms: C_3  and  C_4
DOCKED: REMARK    3  A    between atoms: C_4  and  C_5
DOCKED: REMARK    4  A    between atoms: C_5  and  C_6
DOCKED: REMARK    5  A    between atoms: C_6  and  C_7
DOCKED: REMARK                            x       y       z     vdW  Elec       q    Type
DOCKED: REMARK                         _______ _______ _______ _____ _____    ______ ____
DOCKED: USER                              x       y       z     vdW  Elec       q    Type
DOCKED: USER                           _______ _______ _______ _____ _____    ______ ____
DOCKED: ROOT
DOCKED: ATOM      1  C   UNL     1      36.767  11.664 123.534 -0.70 -0.00    +0.000 C 
DOCKED: ENDROOT
DOCKED: BRANCH   1   2
DOCKED: ATOM      2  C   UNL     1      35.982  10.833 122.516 -0.67 -0.00    +0.000 C 
DOCKED: BRANCH   2   4
DOCKED: ATOM      3  N   UNL     1      36.688   8.565 123.419 -0.64 -0.00    +0.000 N 
DOCKED: ATOM      4  C   UNL     1      36.620   9.490 122.330 -0.72 -0.00    +0.000 C 
DOCKED: ATOM      5  O   UNL     1      37.063   9.160 121.197 -2.73 -0.00    +0.000 OA
DOCKED: ATOM      6  H   UNL     1      36.318   8.817 124.296 -0.29 -0.00    +0.000 HD
DOCKED: BRANCH   3   7
DOCKED: ATOM      7  O   UNL     1      37.256   7.347 123.254 -2.04 -0.00    +0.000 OA
DOCKED: ATOM      8  H   UNL     1      37.560   7.254 122.337 -0.17 -0.00    +0.000 HD
DOCKED: ENDBRANCH   3   7
DOCKED: ENDBRANCH   2   4
DOCKED: ENDBRANCH   1   2
DOCKED: BRANCH   1   9
DOCKED: ATOM      9  C   UNL     1      37.442  12.864 122.862 -0.58 -0.00    +0.000 C 
DOCKED: BRANCH   9  10
DOCKED: ATOM     10  C   UNL     1      36.691  14.132 123.170 -0.46 -0.00    +0.000 A 
DOCKED: ATOM     11  C   UNL     1      37.247  15.381 122.846 -0.33 -0.00    +0.000 A 
DOCKED: ATOM     12  C   UNL     1      36.563  16.560 123.161 -0.28 -0.00    +0.000 A 
DOCKED: ATOM     13  C   UNL     1      35.326  16.500 123.810 -0.39 -0.00    +0.000 A 
DOCKED: ATOM     14  C   UNL     1      34.774  15.261 124.147 -0.53 -0.00    +0.000 A 
DOCKED: ATOM     15  C   UNL     1      35.453  14.080 123.834 -0.46 -0.00    +0.000 A 
DOCKED: ATOM     16  CM  UNL     1      36.009  15.319 123.495 +0.00 -0.00    +0.000 AC
DOCKED: ENDBRANCH   9  10
DOCKED: ENDBRANCH   1   9
DOCKED: TORSDOF 5DOCKED: TER
DOCKED: ENDMDL
________________________________________________________________________________


	BEGINNING GENETIC ALGORITHM DOCKING 18 of 100
Run: 18 Seed: 196989515 1653140149 [ Run 18 of 100 GA/GALS ]
Beginning LAMARCKIAN GENETIC ALGORITHM (LGA), with a maximum of 2500000 energy evaluations.

Final-Value: -11.561


	FINAL GENETIC ALGORITHM DOCKED STATE
	_______________________________________________


Detailed state:  trans 36.209 12.257 121.304 quatxyzw -0.213802 0.734843 0.500184 0.405105 center 0.725 -0.143 0.203 ntor 5 -180.0000 -123.1045 65.5293 -64.7432 96.5880
State:	 36.209  12.257 121.304  -0.234  0.804  0.547 132.205   -180.00 -123.10   65.53  -64.74   96.59

DOCKED: MODEL       18
DOCKED: USER    Run = 18
DOCKED: USER    DPF = ligand_dock.biased.dpf
DOCKED: USER  
DOCKED: USER    Estimated Free Energy of Binding    =   -9.24 kcal/mol  [=(1)+(2)+(3)-(4)]
DOCKED: USER    Estimated Inhibition Constant, Ki   =  168.55 nM (nanomolar)  [Temperature = 298.15 K]
DOCKED: USER    
DOCKED: USER    (1) Final Intermolecular Energy     =  -10.73 kcal/mol
DOCKED: USER        vdW + Hbond + desolv Energy     =  -10.73 kcal/mol
DOCKED: USER        Electrostatic Energy            =   +0.00 kcal/mol
DOCKED: USER    (2) Final Total Internal Energy     =   -0.83 kcal/mol
DOCKED: USER    (3) Torsional Free Energy           =   +1.49 kcal/mol
DOCKED: USER    (4) Unbound System's Energy  [=(2)] =   -0.83 kcal/mol
DOCKED: USER    
DOCKED: USER    
DOCKED: USER    NEWDPF move ligand.dum.pdbqt
DOCKED: USER    NEWDPF about 0.725000 -0.143000 0.203000
DOCKED: USER    NEWDPF tran0 36.209026 12.256830 121.304200
DOCKED: USER    NEWDPF quaternion0 -0.213802 0.734843 0.500184 0.405105
DOCKED: USER    NEWDPF axisangle0 -0.233850 0.803748 0.547086 132.204615
DOCKED: USER    NEWDPF quat0 -0.233850 0.803748 0.547086 132.204615
DOCKED: USER    NEWDPF dihe0 -180.00 -123.10 65.53 -64.74 96.59 
DOCKED: USER  keepresnum = 1 
DOCKED: USER  
DOCKED: REMARK  Name = 
DOCKED: REMARK  5 active torsions:
DOCKED: REMARK  status: ('A' for Active; 'I' for Inactive)
DOCKED: REMARK    1  A    between atoms: O_1  and  N_2
DOCKED: REMARK    2  A    between atoms: C_3  and  C_4
DOCKED: REMARK    3  A    between atoms: C_4  and  C_5
DOCKED: REMARK    4  A    between atoms: C_5  and  C_6
DOCKED: REMARK    5  A    between atoms: C_6  and  C_7
DOCKED: REMARK                            x       y       z     vdW  Elec       q    Type
DOCKED: REMARK                         _______ _______ _______ _____ _____    ______ ____
DOCKED: USER                              x       y       z     vdW  Elec       q    Type
DOCKED: USER                           _______ _______ _______ _____ _____    ______ ____
DOCKED: ROOT
DOCKED: ATOM      1  C   UNL     1      36.591  11.919 121.680 -0.56 -0.00    +0.000 C 
DOCKED: ENDROOT
DOCKED: BRANCH   1   2
DOCKED: ATOM      2  C   UNL     1      36.230  10.922 122.784 -0.69 -0.00    +0.000 C 
DOCKED: BRANCH   2   4
DOCKED: ATOM      3  N   UNL     1      36.987   8.587 123.439 -0.66 -0.00    +0.000 N 
DOCKED: ATOM      4  C   UNL     1      36.694   9.544 122.419 -0.72 -0.00    +0.000 C 
DOCKED: ATOM      5  O   UNL     1      36.784   9.217 121.204 -2.66 -0.00    +0.000 OA
DOCKED: ATOM      6  H   UNL     1      36.891   8.838 124.386 -0.46 -0.00    +0.000 HD
DOCKED: BRANCH   3   7
DOCKED: ATOM      7  O   UNL     1      37.399   7.337 123.115 -1.95 -0.00    +0.000 OA
DOCKED: ATOM      8  H   UNL     1      37.442   7.253 122.149 -0.16 -0.00    +0.000 HD
DOCKED: ENDBRANCH   3   7
DOCKED: ENDBRANCH   2   4
DOCKED: ENDBRANCH   1   2
DOCKED: BRANCH   1   9
DOCKED: ATOM      9  C   UNL     1      37.612  12.946 122.178 -0.49 -0.00    +0.000 C 
DOCKED: BRANCH   9  10
DOCKED: ATOM     10  C   UNL     1      36.921  14.065 122.912 -0.45 -0.00    +0.000 A 
DOCKED: ATOM     11  C   UNL     1      35.661  13.857 123.496 -0.45 -0.00    +0.000 A 
DOCKED: ATOM     12  C   UNL     1      35.006  14.906 124.150 -0.49 -0.00    +0.000 A 
DOCKED: ATOM     13  C   UNL     1      35.599  16.169 124.216 -0.38 -0.00    +0.000 A 
DOCKED: ATOM     14  C   UNL     1      36.848  16.386 123.626 -0.27 -0.00    +0.000 A 
DOCKED: ATOM     15  C   UNL     1      37.507  15.341 122.971 -0.34 -0.00    +0.000 A 
DOCKED: ATOM     16  CM  UNL     1      36.257  15.121 123.561 +0.00 -0.00    +0.000 AC
DOCKED: ENDBRANCH   9  10
DOCKED: ENDBRANCH   1   9
DOCKED: TORSDOF 5DOCKED: TER
DOCKED: ENDMDL
________________________________________________________________________________


	BEGINNING GENETIC ALGORITHM DOCKING 19 of 100
Run: 19 Seed: 1056740234 1673804065 [ Run 19 of 100 GA/GALS ]
Beginning LAMARCKIAN GENETIC ALGORITHM (LGA), with a maximum of 2500000 energy evaluations.

Final-Value: -11.842


	FINAL GENETIC ALGORITHM DOCKED STATE
	_______________________________________________


Detailed state:  trans 37.042 12.450 121.231 quatxyzw 0.367645 -0.794371 -0.477630 -0.075382 center 0.725 -0.143 0.203 ntor 5 176.6223 -169.3664 78.1109 178.6618 87.1882
State:	 37.042  12.450 121.231   0.369 -0.797 -0.479 -171.354    176.62 -169.37   78.11  178.66   87.19

DOCKED: MODEL       19
DOCKED: USER    Run = 19
DOCKED: USER    DPF = ligand_dock.biased.dpf
DOCKED: USER  
DOCKED: USER    Estimated Free Energy of Binding    =   -9.41 kcal/mol  [=(1)+(2)+(3)-(4)]
DOCKED: USER    Estimated Inhibition Constant, Ki   =  126.82 nM (nanomolar)  [Temperature = 298.15 K]
DOCKED: USER    
DOCKED: USER    (1) Final Intermolecular Energy     =  -10.90 kcal/mol
DOCKED: USER        vdW + Hbond + desolv Energy     =  -10.90 kcal/mol
DOCKED: USER        Electrostatic Energy            =   +0.00 kcal/mol
DOCKED: USER    (2) Final Total Internal Energy     =   -0.94 kcal/mol
DOCKED: USER    (3) Torsional Free Energy           =   +1.49 kcal/mol
DOCKED: USER    (4) Unbound System's Energy  [=(2)] =   -0.94 kcal/mol
DOCKED: USER    
DOCKED: USER    
DOCKED: USER    NEWDPF move ligand.dum.pdbqt
DOCKED: USER    NEWDPF about 0.725000 -0.143000 0.203000
DOCKED: USER    NEWDPF tran0 37.042179 12.449704 121.231425
DOCKED: USER    NEWDPF quaternion0 0.367645 -0.794371 -0.477630 -0.075382
DOCKED: USER    NEWDPF axisangle0 0.368694 -0.796637 -0.478993 -171.353699
DOCKED: USER    NEWDPF quat0 0.368694 -0.796637 -0.478993 -171.353699
DOCKED: USER    NEWDPF dihe0 176.62 -169.37 78.11 178.66 87.19 
DOCKED: USER  keepresnum = 1 
DOCKED: USER  
DOCKED: REMARK  Name = 
DOCKED: REMARK  5 active torsions:
DOCKED: REMARK  status: ('A' for Active; 'I' for Inactive)
DOCKED: REMARK    1  A    between atoms: O_1  and  N_2
DOCKED: REMARK    2  A    between atoms: C_3  and  C_4
DOCKED: REMARK    3  A    between atoms: C_4  and  C_5
DOCKED: REMARK    4  A    between atoms: C_5  and  C_6
DOCKED: REMARK    5  A    between atoms: C_6  and  C_7
DOCKED: REMARK                            x       y       z     vdW  Elec       q    Type
DOCKED: REMARK                         _______ _______ _______ _____ _____    ______ ____
DOCKED: USER                              x       y       z     vdW  Elec       q    Type
DOCKED: USER                           _______ _______ _______ _____ _____    ______ ____
DOCKED: ROOT
DOCKED: ATOM      1  C   UNL     1      37.067  12.011 121.687 -0.56 -0.00    +0.000 C 
DOCKED: ENDROOT
DOCKED: BRANCH   1   2
DOCKED: ATOM      2  C   UNL     1      36.026  10.958 122.077 -0.59 -0.00    +0.000 C 
DOCKED: BRANCH   2   4
DOCKED: ATOM      3  N   UNL     1      36.886   8.949 123.373 -0.60 -0.00    +0.000 N 
DOCKED: ATOM      4  C   UNL     1      36.648   9.595 122.120 -0.69 -0.00    +0.000 C 
DOCKED: ATOM      5  O   UNL     1      36.925   9.000 121.043 -2.68 -0.00    +0.000 OA
DOCKED: ATOM      6  H   UNL     1      36.646   9.406 124.210 -0.46 -0.00    +0.000 HD
DOCKED: BRANCH   3   7
DOCKED: ATOM      7  O   UNL     1      37.440   7.713 123.417 -2.18 -0.00    +0.000 OA
DOCKED: ATOM      8  H   UNL     1      37.567   7.385 122.513 -0.18 -0.00    +0.000 HD
DOCKED: ENDBRANCH   3   7
DOCKED: ENDBRANCH   2   4
DOCKED: ENDBRANCH   1   2
DOCKED: BRANCH   1   9
DOCKED: ATOM      9  C   UNL     1      37.551  12.788 122.915 -0.52 -0.00    +0.000 C 
DOCKED: BRANCH   9  10
DOCKED: ATOM     10  C   UNL     1      36.731  14.036 123.106 -0.47 -0.00    +0.000 A 
DOCKED: ATOM     11  C   UNL     1      37.153  15.254 122.547 -0.32 -0.00    +0.000 A 
DOCKED: ATOM     12  C   UNL     1      36.408  16.419 122.752 -0.27 -0.00    +0.000 A 
DOCKED: ATOM     13  C   UNL     1      35.243  16.379 123.525 -0.39 -0.00    +0.000 A 
DOCKED: ATOM     14  C   UNL     1      34.825  15.174 124.095 -0.52 -0.00    +0.000 A 
DOCKED: ATOM     15  C   UNL     1      35.567  14.006 123.893 -0.46 -0.00    +0.000 A 
DOCKED: ATOM     16  CM  UNL     1      35.988  15.211 123.320 +0.00 -0.00    +0.000 AC
DOCKED: ENDBRANCH   9  10
DOCKED: ENDBRANCH   1   9
DOCKED: TORSDOF 5DOCKED: TER
DOCKED: ENDMDL
________________________________________________________________________________


	BEGINNING GENETIC ALGORITHM DOCKING 20 of 100
Run: 20 Seed: 419896281 12800518 [ Run 20 of 100 GA/GALS ]
Beginning LAMARCKIAN GENETIC ALGORITHM (LGA), with a maximum of 2500000 energy evaluations.

Final-Value: -11.759


	FINAL GENETIC ALGORITHM DOCKED STATE
	_______________________________________________


Detailed state:  trans 37.091 11.478 123.920 quatxyzw -0.210116 0.555332 -0.677959 -0.433392 center 0.725 -0.143 0.203 ntor 5 -180.0000 150.1501 -75.1289 -93.0149 -74.1188
State:	 37.091  11.478 123.920  -0.233  0.616 -0.752 -128.634   -180.00  150.15  -75.13  -93.01  -74.12

DOCKED: MODEL       20
DOCKED: USER    Run = 20
DOCKED: USER    DPF = ligand_dock.biased.dpf
DOCKED: USER  
DOCKED: USER    Estimated Free Energy of Binding    =   -9.36 kcal/mol  [=(1)+(2)+(3)-(4)]
DOCKED: USER    Estimated Inhibition Constant, Ki   =  138.76 nM (nanomolar)  [Temperature = 298.15 K]
DOCKED: USER    
DOCKED: USER    (1) Final Intermolecular Energy     =  -10.85 kcal/mol
DOCKED: USER        vdW + Hbond + desolv Energy     =  -10.85 kcal/mol
DOCKED: USER        Electrostatic Energy            =   +0.00 kcal/mol
DOCKED: USER    (2) Final Total Internal Energy     =   -0.91 kcal/mol
DOCKED: USER    (3) Torsional Free Energy           =   +1.49 kcal/mol
DOCKED: USER    (4) Unbound System's Energy  [=(2)] =   -0.91 kcal/mol
DOCKED: USER    
DOCKED: USER    
DOCKED: USER    NEWDPF move ligand.dum.pdbqt
DOCKED: USER    NEWDPF about 0.725000 -0.143000 0.203000
DOCKED: USER    NEWDPF tran0 37.091089 11.477885 123.920216
DOCKED: USER    NEWDPF quaternion0 -0.210116 0.555332 -0.677959 -0.433392
DOCKED: USER    NEWDPF axisangle0 -0.233150 0.616211 -0.752280 -128.633919
DOCKED: USER    NEWDPF quat0 -0.233150 0.616211 -0.752280 -128.633919
DOCKED: USER    NEWDPF dihe0 -180.00 150.15 -75.13 -93.01 -74.12 
DOCKED: USER  keepresnum = 1 
DOCKED: USER  
DOCKED: REMARK  Name = 
DOCKED: REMARK  5 active torsions:
DOCKED: REMARK  status: ('A' for Active; 'I' for Inactive)
DOCKED: REMARK    1  A    between atoms: O_1  and  N_2
DOCKED: REMARK    2  A    between atoms: C_3  and  C_4
DOCKED: REMARK    3  A    between atoms: C_4  and  C_5
DOCKED: REMARK    4  A    between atoms: C_5  and  C_6
DOCKED: REMARK    5  A    between atoms: C_6  and  C_7
DOCKED: REMARK                            x       y       z     vdW  Elec       q    Type
DOCKED: REMARK                         _______ _______ _______ _____ _____    ______ ____
DOCKED: USER                              x       y       z     vdW  Elec       q    Type
DOCKED: USER                           _______ _______ _______ _____ _____    ______ ____
DOCKED: ROOT
DOCKED: ATOM      1  C   UNL     1      36.656  11.662 123.499 -0.70 -0.00    +0.000 C 
DOCKED: ENDROOT
DOCKED: BRANCH   1   2
DOCKED: ATOM      2  C   UNL     1      35.781  10.812 122.573 -0.66 -0.00    +0.000 C 
DOCKED: BRANCH   2   4
DOCKED: ATOM      3  N   UNL     1      36.609   8.536 123.339 -0.66 -0.00    +0.000 N 
DOCKED: ATOM      4  C   UNL     1      36.440   9.495 122.292 -0.70 -0.00    +0.000 C 
DOCKED: ATOM      5  O   UNL     1      36.808   9.218 121.119 -2.66 -0.00    +0.000 OA
DOCKED: ATOM      6  H   UNL     1      36.297   8.746 124.248 -0.29 -0.00    +0.000 HD
DOCKED: BRANCH   3   7
DOCKED: ATOM      7  O   UNL     1      37.195   7.340 123.089 -2.08 -0.00    +0.000 OA
DOCKED: ATOM      8  H   UNL     1      37.443   7.292 122.152 -0.14 -0.00    +0.000 HD
DOCKED: ENDBRANCH   3   7
DOCKED: ENDBRANCH   2   4
DOCKED: ENDBRANCH   1   2
DOCKED: BRANCH   1   9
DOCKED: ATOM      9  C   UNL     1      37.353  12.784 122.722 -0.57 -0.00    +0.000 C 
DOCKED: BRANCH   9  10
DOCKED: ATOM     10  C   UNL     1      36.710  14.112 123.022 -0.45 -0.00    +0.000 A 
DOCKED: ATOM     11  C   UNL     1      35.569  14.179 123.837 -0.49 -0.00    +0.000 A 
DOCKED: ATOM     12  C   UNL     1      34.954  15.410 124.089 -0.51 -0.00    +0.000 A 
DOCKED: ATOM     13  C   UNL     1      35.468  16.579 123.521 -0.36 -0.00    +0.000 A 
DOCKED: ATOM     14  C   UNL     1      36.597  16.518 122.698 -0.25 -0.00    +0.000 A 
DOCKED: ATOM     15  C   UNL     1      37.215  15.290 122.444 -0.31 -0.00    +0.000 A 
DOCKED: ATOM     16  CM  UNL     1      36.086  15.348 123.268 +0.00 -0.00    +0.000 AC
DOCKED: ENDBRANCH   9  10
DOCKED: ENDBRANCH   1   9
DOCKED: TORSDOF 5DOCKED: TER
DOCKED: ENDMDL
________________________________________________________________________________


	BEGINNING GENETIC ALGORITHM DOCKING 21 of 100
Run: 21 Seed: 1593810175 1385794044 [ Run 21 of 100 GA/GALS ]
Beginning LAMARCKIAN GENETIC ALGORITHM (LGA), with a maximum of 2500000 energy evaluations.

Final-Value: -12.026


	FINAL GENETIC ALGORITHM DOCKED STATE
	_______________________________________________


Detailed state:  trans 37.286 11.491 123.876 quatxyzw 0.096859 -0.576980 0.609160 0.535384 center 0.725 -0.143 0.203 ntor 5 -173.1580 124.5337 -50.7905 102.7597 -89.4455
State:	 37.286  11.491 123.876   0.115 -0.683  0.721 115.260   -173.16  124.53  -50.79  102.76  -89.45

DOCKED: MODEL       21
DOCKED: USER    Run = 21
DOCKED: USER    DPF = ligand_dock.biased.dpf
DOCKED: USER  
DOCKED: USER    Estimated Free Energy of Binding    =   -9.62 kcal/mol  [=(1)+(2)+(3)-(4)]
DOCKED: USER    Estimated Inhibition Constant, Ki   =   88.13 nM (nanomolar)  [Temperature = 298.15 K]
DOCKED: USER    
DOCKED: USER    (1) Final Intermolecular Energy     =  -11.12 kcal/mol
DOCKED: USER        vdW + Hbond + desolv Energy     =  -11.12 kcal/mol
DOCKED: USER        Electrostatic Energy            =   +0.00 kcal/mol
DOCKED: USER    (2) Final Total Internal Energy     =   -0.91 kcal/mol
DOCKED: USER    (3) Torsional Free Energy           =   +1.49 kcal/mol
DOCKED: USER    (4) Unbound System's Energy  [=(2)] =   -0.91 kcal/mol
DOCKED: USER    
DOCKED: USER    
DOCKED: USER    NEWDPF move ligand.dum.pdbqt
DOCKED: USER    NEWDPF about 0.725000 -0.143000 0.203000
DOCKED: USER    NEWDPF tran0 37.285535 11.491001 123.876486
DOCKED: USER    NEWDPF quaternion0 0.096859 -0.576980 0.609160 0.535384
DOCKED: USER    NEWDPF axisangle0 0.114679 -0.683133 0.721234 115.260038
DOCKED: USER    NEWDPF quat0 0.114679 -0.683133 0.721234 115.260038
DOCKED: USER    NEWDPF dihe0 -173.16 124.53 -50.79 102.76 -89.45 
DOCKED: USER  keepresnum = 1 
DOCKED: USER  
DOCKED: REMARK  Name = 
DOCKED: REMARK  5 active torsions:
DOCKED: REMARK  status: ('A' for Active; 'I' for Inactive)
DOCKED: REMARK    1  A    between atoms: O_1  and  N_2
DOCKED: REMARK    2  A    between atoms: C_3  and  C_4
DOCKED: REMARK    3  A    between atoms: C_4  and  C_5
DOCKED: REMARK    4  A    between atoms: C_5  and  C_6
DOCKED: REMARK    5  A    between atoms: C_6  and  C_7
DOCKED: REMARK                            x       y       z     vdW  Elec       q    Type
DOCKED: REMARK                         _______ _______ _______ _____ _____    ______ ____
DOCKED: USER                              x       y       z     vdW  Elec       q    Type
DOCKED: USER                           _______ _______ _______ _____ _____    ______ ____
DOCKED: ROOT
DOCKED: ATOM      1  C   UNL     1      36.933  11.759 123.424 -0.68 -0.00    +0.000 C 
DOCKED: ENDROOT
DOCKED: BRANCH   1   2
DOCKED: ATOM      2  C   UNL     1      36.350  11.138 122.152 -0.64 -0.00    +0.000 C 
DOCKED: BRANCH   2   4
DOCKED: ATOM      3  N   UNL     1      36.727   8.855 123.200 -0.65 -0.00    +0.000 N 
DOCKED: ATOM      4  C   UNL     1      36.744   9.696 122.044 -0.67 -0.00    +0.000 C 
DOCKED: ATOM      5  O   UNL     1      37.051   9.215 120.920 -2.73 -0.00    +0.000 OA
DOCKED: ATOM      6  H   UNL     1      36.463   9.228 124.071 -0.39 -0.00    +0.000 HD
DOCKED: BRANCH   3   7
DOCKED: ATOM      7  O   UNL     1      37.074   7.548 123.107 -2.26 -0.00    +0.000 OA
DOCKED: ATOM      8  H   UNL     1      37.410   7.367 122.214 -0.13 -0.00    +0.000 HD
DOCKED: ENDBRANCH   3   7
DOCKED: ENDBRANCH   2   4
DOCKED: ENDBRANCH   1   2
DOCKED: BRANCH   1   9
DOCKED: ATOM      9  C   UNL     1      37.674  13.063 123.111 -0.53 -0.00    +0.000 C 
DOCKED: BRANCH   9  10
DOCKED: ATOM     10  C   UNL     1      36.739  14.239 123.211 -0.45 -0.00    +0.000 A 
DOCKED: ATOM     11  C   UNL     1      37.133  15.501 122.737 -0.32 -0.00    +0.000 A 
DOCKED: ATOM     12  C   UNL     1      36.276  16.599 122.860 -0.27 -0.00    +0.000 A 
DOCKED: ATOM     13  C   UNL     1      35.026  16.448 123.465 -0.40 -0.00    +0.000 A 
DOCKED: ATOM     14  C   UNL     1      34.631  15.197 123.950 -0.52 -0.00    +0.000 A 
DOCKED: ATOM     15  C   UNL     1      35.484  14.097 123.830 -0.47 -0.00    +0.000 A 
DOCKED: ATOM     16  CM  UNL     1      35.882  15.346 123.343 +0.00 -0.00    +0.000 AC
DOCKED: ENDBRANCH   9  10
DOCKED: ENDBRANCH   1   9
DOCKED: TORSDOF 5DOCKED: TER
DOCKED: ENDMDL
________________________________________________________________________________


	BEGINNING GENETIC ALGORITHM DOCKING 22 of 100
Run: 22 Seed: 1275938420 75974170 [ Run 22 of 100 GA/GALS ]
Beginning LAMARCKIAN GENETIC ALGORITHM (LGA), with a maximum of 2500000 energy evaluations.

Final-Value: -11.197


	FINAL GENETIC ALGORITHM DOCKED STATE
	_______________________________________________


Detailed state:  trans 37.267 11.740 123.137 quatxyzw -0.363945 0.469001 -0.720471 -0.358474 center 0.725 -0.143 0.203 ntor 5 177.7635 171.6899 -79.7508 -129.6296 -16.4327
State:	 37.267  11.740 123.137  -0.390  0.502 -0.772 -137.987    177.76  171.69  -79.75 -129.63  -16.43

DOCKED: MODEL       22
DOCKED: USER    Run = 22
DOCKED: USER    DPF = ligand_dock.biased.dpf
DOCKED: USER  
DOCKED: USER    Estimated Free Energy of Binding    =   -8.83 kcal/mol  [=(1)+(2)+(3)-(4)]
DOCKED: USER    Estimated Inhibition Constant, Ki   =  338.87 nM (nanomolar)  [Temperature = 298.15 K]
DOCKED: USER    
DOCKED: USER    (1) Final Intermolecular Energy     =  -10.32 kcal/mol
DOCKED: USER        vdW + Hbond + desolv Energy     =  -10.32 kcal/mol
DOCKED: USER        Electrostatic Energy            =   +0.00 kcal/mol
DOCKED: USER    (2) Final Total Internal Energy     =   -0.88 kcal/mol
DOCKED: USER    (3) Torsional Free Energy           =   +1.49 kcal/mol
DOCKED: USER    (4) Unbound System's Energy  [=(2)] =   -0.88 kcal/mol
DOCKED: USER    
DOCKED: USER    
DOCKED: USER    NEWDPF move ligand.dum.pdbqt
DOCKED: USER    NEWDPF about 0.725000 -0.143000 0.203000
DOCKED: USER    NEWDPF tran0 37.266703 11.739774 123.136840
DOCKED: USER    NEWDPF quaternion0 -0.363945 0.469001 -0.720471 -0.358474
DOCKED: USER    NEWDPF axisangle0 -0.389855 0.502390 -0.771763 -137.987006
DOCKED: USER    NEWDPF quat0 -0.389855 0.502390 -0.771763 -137.987006
DOCKED: USER    NEWDPF dihe0 177.76 171.69 -79.75 -129.63 -16.43 
DOCKED: USER  keepresnum = 1 
DOCKED: USER  
DOCKED: REMARK  Name = 
DOCKED: REMARK  5 active torsions:
DOCKED: REMARK  status: ('A' for Active; 'I' for Inactive)
DOCKED: REMARK    1  A    between atoms: O_1  and  N_2
DOCKED: REMARK    2  A    between atoms: C_3  and  C_4
DOCKED: REMARK    3  A    between atoms: C_4  and  C_5
DOCKED: REMARK    4  A    between atoms: C_5  and  C_6
DOCKED: REMARK    5  A    between atoms: C_6  and  C_7
DOCKED: REMARK                            x       y       z     vdW  Elec       q    Type
DOCKED: REMARK                         _______ _______ _______ _____ _____    ______ ____
DOCKED: USER                              x       y       z     vdW  Elec       q    Type
DOCKED: USER                           _______ _______ _______ _____ _____    ______ ____
DOCKED: ROOT
DOCKED: ATOM      1  C   UNL     1      36.745  11.760 122.779 -0.66 -0.00    +0.000 C 
DOCKED: ENDROOT
DOCKED: BRANCH   1   2
DOCKED: ATOM      2  C   UNL     1      35.805  10.623 122.370 -0.66 -0.00    +0.000 C 
DOCKED: BRANCH   2   4
DOCKED: ATOM      3  N   UNL     1      36.694   8.494 123.435 -0.65 -0.00    +0.000 N 
DOCKED: ATOM      4  C   UNL     1      36.555   9.328 122.281 -0.72 -0.00    +0.000 C 
DOCKED: ATOM      5  O   UNL     1      37.029   8.954 121.174 -2.70 -0.00    +0.000 OA
DOCKED: ATOM      6  H   UNL     1      36.301   8.777 124.291 -0.28 -0.00    +0.000 HD
DOCKED: BRANCH   3   7
DOCKED: ATOM      7  O   UNL     1      37.364   7.319 123.359 -1.97 -0.00    +0.000 OA
DOCKED: ATOM      8  H   UNL     1      37.656   7.173 122.445 -0.26 -0.00    +0.000 HD
DOCKED: ENDBRANCH   3   7
DOCKED: ENDBRANCH   2   4
DOCKED: ENDBRANCH   1   2
DOCKED: BRANCH   1   9
DOCKED: ATOM      9  C   UNL     1      37.172  12.586 121.561 -0.53 -0.00    +0.000 C 
DOCKED: BRANCH   9  10
DOCKED: ATOM     10  C   UNL     1      37.751  13.906 121.995 -0.41 -0.00    +0.000 A 
DOCKED: ATOM     11  C   UNL     1      37.160  14.629 123.045 -0.41 -0.00    +0.000 A 
DOCKED: ATOM     12  C   UNL     1      37.680  15.870 123.426 -0.27 -0.00    +0.000 A 
DOCKED: ATOM     13  C   UNL     1      38.787  16.401 122.757 -0.23 -0.00    +0.000 A 
DOCKED: ATOM     14  C   UNL     1      39.372  15.693 121.704 -0.25 -0.00    +0.000 A 
DOCKED: ATOM     15  C   UNL     1      38.856  14.452 121.319 -0.33 -0.00    +0.000 A 
DOCKED: ATOM     16  CM  UNL     1      38.268  15.158 122.374 +0.00 -0.00    +0.000 AC
DOCKED: ENDBRANCH   9  10
DOCKED: ENDBRANCH   1   9
DOCKED: TORSDOF 5DOCKED: TER
DOCKED: ENDMDL
________________________________________________________________________________


	BEGINNING GENETIC ALGORITHM DOCKING 23 of 100
Run: 23 Seed: 594380724 1231613391 [ Run 23 of 100 GA/GALS ]
Beginning LAMARCKIAN GENETIC ALGORITHM (LGA), with a maximum of 2500000 energy evaluations.

Final-Value: -11.690


	FINAL GENETIC ALGORITHM DOCKED STATE
	_______________________________________________


Detailed state:  trans 37.019 12.422 122.242 quatxyzw -0.538288 0.764078 0.314378 -0.166124 center 0.725 -0.143 0.203 ntor 5 165.4075 -180.0000 51.7461 -134.0478 64.2293
State:	 37.019  12.422 122.242  -0.546  0.775  0.319 -160.875    165.41 -180.00   51.75 -134.05   64.23

DOCKED: MODEL       23
DOCKED: USER    Run = 23
DOCKED: USER    DPF = ligand_dock.biased.dpf
DOCKED: USER  
DOCKED: USER    Estimated Free Energy of Binding    =   -9.35 kcal/mol  [=(1)+(2)+(3)-(4)]
DOCKED: USER    Estimated Inhibition Constant, Ki   =  139.08 nM (nanomolar)  [Temperature = 298.15 K]
DOCKED: USER    
DOCKED: USER    (1) Final Intermolecular Energy     =  -10.85 kcal/mol
DOCKED: USER        vdW + Hbond + desolv Energy     =  -10.85 kcal/mol
DOCKED: USER        Electrostatic Energy            =   +0.00 kcal/mol
DOCKED: USER    (2) Final Total Internal Energy     =   -0.84 kcal/mol
DOCKED: USER    (3) Torsional Free Energy           =   +1.49 kcal/mol
DOCKED: USER    (4) Unbound System's Energy  [=(2)] =   -0.84 kcal/mol
DOCKED: USER    
DOCKED: USER    
DOCKED: USER    NEWDPF move ligand.dum.pdbqt
DOCKED: USER    NEWDPF about 0.725000 -0.143000 0.203000
DOCKED: USER    NEWDPF tran0 37.018737 12.421846 122.241613
DOCKED: USER    NEWDPF quaternion0 -0.538288 0.764078 0.314378 -0.166124
DOCKED: USER    NEWDPF axisangle0 -0.545873 0.774845 0.318808 -160.874894
DOCKED: USER    NEWDPF quat0 -0.545873 0.774845 0.318808 -160.874894
DOCKED: USER    NEWDPF dihe0 165.41 -180.00 51.75 -134.05 64.23 
DOCKED: USER  keepresnum = 1 
DOCKED: USER  
DOCKED: REMARK  Name = 
DOCKED: REMARK  5 active torsions:
DOCKED: REMARK  status: ('A' for Active; 'I' for Inactive)
DOCKED: REMARK    1  A    between atoms: O_1  and  N_2
DOCKED: REMARK    2  A    between atoms: C_3  and  C_4
DOCKED: REMARK    3  A    between atoms: C_4  and  C_5
DOCKED: REMARK    4  A    between atoms: C_5  and  C_6
DOCKED: REMARK    5  A    between atoms: C_6  and  C_7
DOCKED: REMARK                            x       y       z     vdW  Elec       q    Type
DOCKED: REMARK                         _______ _______ _______ _____ _____    ______ ____
DOCKED: USER                              x       y       z     vdW  Elec       q    Type
DOCKED: USER                           _______ _______ _______ _____ _____    ______ ____
DOCKED: ROOT
DOCKED: ATOM      1  C   UNL     1      36.785  11.985 122.636 -0.64 -0.00    +0.000 C 
DOCKED: ENDROOT
DOCKED: BRANCH   1   2
DOCKED: ATOM      2  C   UNL     1      35.810  10.841 122.350 -0.64 -0.00    +0.000 C 
DOCKED: BRANCH   2   4
DOCKED: ATOM      3  N   UNL     1      36.638   8.657 123.351 -0.64 -0.00    +0.000 N 
DOCKED: ATOM      4  C   UNL     1      36.546   9.541 122.230 -0.70 -0.00    +0.000 C 
DOCKED: ATOM      5  O   UNL     1      37.052   9.208 121.124 -2.74 -0.00    +0.000 OA
DOCKED: ATOM      6  H   UNL     1      36.220   8.909 124.205 -0.30 -0.00    +0.000 HD
DOCKED: BRANCH   3   7
DOCKED: ATOM      7  O   UNL     1      37.295   7.477 123.246 -2.10 -0.00    +0.000 OA
DOCKED: ATOM      8  H   UNL     1      37.443   7.273 122.309 -0.17 -0.00    +0.000 HD
DOCKED: ENDBRANCH   3   7
DOCKED: ENDBRANCH   2   4
DOCKED: ENDBRANCH   1   2
DOCKED: BRANCH   1   9
DOCKED: ATOM      9  C   UNL     1      36.336  12.800 123.854 -0.62 -0.00    +0.000 C 
DOCKED: BRANCH   9  10
DOCKED: ATOM     10  C   UNL     1      35.994  14.209 123.450 -0.48 -0.00    +0.000 A 
DOCKED: ATOM     11  C   UNL     1      36.845  14.927 122.593 -0.35 -0.00    +0.000 A 
DOCKED: ATOM     12  C   UNL     1      36.543  16.247 122.244 -0.24 -0.00    +0.000 A 
DOCKED: ATOM     13  C   UNL     1      35.396  16.862 122.755 -0.30 -0.00    +0.000 A 
DOCKED: ATOM     14  C   UNL     1      34.552  16.157 123.618 -0.46 -0.00    +0.000 A 
DOCKED: ATOM     15  C   UNL     1      34.850  14.838 123.970 -0.49 -0.00    +0.000 A 
DOCKED: ATOM     16  CM  UNL     1      35.697  15.540 123.105 +0.00 -0.00    +0.000 AC
DOCKED: ENDBRANCH   9  10
DOCKED: ENDBRANCH   1   9
DOCKED: TORSDOF 5DOCKED: TER
DOCKED: ENDMDL
________________________________________________________________________________


	BEGINNING GENETIC ALGORITHM DOCKING 24 of 100
Run: 24 Seed: 2028787664 1118280437 [ Run 24 of 100 GA/GALS ]
Beginning LAMARCKIAN GENETIC ALGORITHM (LGA), with a maximum of 2500000 energy evaluations.

Final-Value: -11.703


	FINAL GENETIC ALGORITHM DOCKED STATE
	_______________________________________________


Detailed state:  trans 36.669 12.465 121.422 quatxyzw -0.327365 0.767808 0.516754 0.190440 center 0.725 -0.143 0.203 ntor 5 170.2820 -150.9019 71.7815 150.3566 83.6287
State:	 36.669  12.465 121.422  -0.333  0.782  0.526 158.043    170.28 -150.90   71.78  150.36   83.63

DOCKED: MODEL       24
DOCKED: USER    Run = 24
DOCKED: USER    DPF = ligand_dock.biased.dpf
DOCKED: USER  
DOCKED: USER    Estimated Free Energy of Binding    =   -9.32 kcal/mol  [=(1)+(2)+(3)-(4)]
DOCKED: USER    Estimated Inhibition Constant, Ki   =  146.26 nM (nanomolar)  [Temperature = 298.15 K]
DOCKED: USER    
DOCKED: USER    (1) Final Intermolecular Energy     =  -10.82 kcal/mol
DOCKED: USER        vdW + Hbond + desolv Energy     =  -10.82 kcal/mol
DOCKED: USER        Electrostatic Energy            =   +0.00 kcal/mol
DOCKED: USER    (2) Final Total Internal Energy     =   -0.89 kcal/mol
DOCKED: USER    (3) Torsional Free Energy           =   +1.49 kcal/mol
DOCKED: USER    (4) Unbound System's Energy  [=(2)] =   -0.89 kcal/mol
DOCKED: USER    
DOCKED: USER    
DOCKED: USER    NEWDPF move ligand.dum.pdbqt
DOCKED: USER    NEWDPF about 0.725000 -0.143000 0.203000
DOCKED: USER    NEWDPF tran0 36.669196 12.465396 121.422350
DOCKED: USER    NEWDPF quaternion0 -0.327365 0.767808 0.516754 0.190440
DOCKED: USER    NEWDPF axisangle0 -0.333468 0.782122 0.526388 158.043054
DOCKED: USER    NEWDPF quat0 -0.333468 0.782122 0.526388 158.043054
DOCKED: USER    NEWDPF dihe0 170.28 -150.90 71.78 150.36 83.63 
DOCKED: USER  keepresnum = 1 
DOCKED: USER  
DOCKED: REMARK  Name = 
DOCKED: REMARK  5 active torsions:
DOCKED: REMARK  status: ('A' for Active; 'I' for Inactive)
DOCKED: REMARK    1  A    between atoms: O_1  and  N_2
DOCKED: REMARK    2  A    between atoms: C_3  and  C_4
DOCKED: REMARK    3  A    between atoms: C_4  and  C_5
DOCKED: REMARK    4  A    between atoms: C_5  and  C_6
DOCKED: REMARK    5  A    between atoms: C_6  and  C_7
DOCKED: REMARK                            x       y       z     vdW  Elec       q    Type
DOCKED: REMARK                         _______ _______ _______ _____ _____    ______ ____
DOCKED: USER                              x       y       z     vdW  Elec       q    Type
DOCKED: USER                           _______ _______ _______ _____ _____    ______ ____
DOCKED: ROOT
DOCKED: ATOM      1  C   UNL     1      36.834  12.033 121.855 -0.58 -0.00    +0.000 C 
DOCKED: ENDROOT
DOCKED: BRANCH   1   2
DOCKED: ATOM      2  C   UNL     1      35.989  10.926 122.490 -0.67 -0.00    +0.000 C 
DOCKED: BRANCH   2   4
DOCKED: ATOM      3  N   UNL     1      36.890   8.701 123.323 -0.65 -0.00    +0.000 N 
DOCKED: ATOM      4  C   UNL     1      36.606   9.583 122.235 -0.70 -0.00    +0.000 C 
DOCKED: ATOM      5  O   UNL     1      36.836   9.217 121.050 -2.66 -0.00    +0.000 OA
DOCKED: ATOM      6  H   UNL     1      36.686   8.981 124.244 -0.43 -0.00    +0.000 HD
DOCKED: BRANCH   3   7
DOCKED: ATOM      7  O   UNL     1      37.440   7.483 123.098 -2.02 -0.00    +0.000 OA
DOCKED: ATOM      8  H   UNL     1      37.436   7.300 122.145 -0.14 -0.00    +0.000 HD
DOCKED: ENDBRANCH   3   7
DOCKED: ENDBRANCH   2   4
DOCKED: ENDBRANCH   1   2
DOCKED: BRANCH   1   9
DOCKED: ATOM      9  C   UNL     1      37.564  12.851 122.925 -0.53 -0.00    +0.000 C 
DOCKED: BRANCH   9  10
DOCKED: ATOM     10  C   UNL     1      36.788  14.096 123.260 -0.46 -0.00    +0.000 A 
DOCKED: ATOM     11  C   UNL     1      37.371  15.363 123.088 -0.34 -0.00    +0.000 A 
DOCKED: ATOM     12  C   UNL     1      36.660  16.518 123.429 -0.28 -0.00    +0.000 A 
DOCKED: ATOM     13  C   UNL     1      35.368  16.416 123.953 -0.39 -0.00    +0.000 A 
DOCKED: ATOM     14  C   UNL     1      34.786  15.158 124.138 -0.52 -0.00    +0.000 A 
DOCKED: ATOM     15  C   UNL     1      35.493  14.001 123.799 -0.45 -0.00    +0.000 A 
DOCKED: ATOM     16  CM  UNL     1      36.077  15.258 123.611 +0.00 -0.00    +0.000 AC
DOCKED: ENDBRANCH   9  10
DOCKED: ENDBRANCH   1   9
DOCKED: TORSDOF 5DOCKED: TER
DOCKED: ENDMDL
________________________________________________________________________________


	BEGINNING GENETIC ALGORITHM DOCKING 25 of 100
Run: 25 Seed: 709031625 629328845 [ Run 25 of 100 GA/GALS ]
Beginning LAMARCKIAN GENETIC ALGORITHM (LGA), with a maximum of 2500000 energy evaluations.

Final-Value: -11.886


	FINAL GENETIC ALGORITHM DOCKED STATE
	_______________________________________________


Detailed state:  trans 37.258 12.494 121.699 quatxyzw -0.470304 0.770214 0.422065 -0.086289 center 0.725 -0.143 0.203 ntor 5 -173.2998 172.8526 74.0590 -159.2525 74.2545
State:	 37.258  12.494 121.699  -0.472  0.773  0.424 -170.100   -173.30  172.85   74.06 -159.25   74.25

DOCKED: MODEL       25
DOCKED: USER    Run = 25
DOCKED: USER    DPF = ligand_dock.biased.dpf
DOCKED: USER  
DOCKED: USER    Estimated Free Energy of Binding    =   -9.49 kcal/mol  [=(1)+(2)+(3)-(4)]
DOCKED: USER    Estimated Inhibition Constant, Ki   =  111.26 nM (nanomolar)  [Temperature = 298.15 K]
DOCKED: USER    
DOCKED: USER    (1) Final Intermolecular Energy     =  -10.98 kcal/mol
DOCKED: USER        vdW + Hbond + desolv Energy     =  -10.98 kcal/mol
DOCKED: USER        Electrostatic Energy            =   +0.00 kcal/mol
DOCKED: USER    (2) Final Total Internal Energy     =   -0.91 kcal/mol
DOCKED: USER    (3) Torsional Free Energy           =   +1.49 kcal/mol
DOCKED: USER    (4) Unbound System's Energy  [=(2)] =   -0.91 kcal/mol
DOCKED: USER    
DOCKED: USER    
DOCKED: USER    NEWDPF move ligand.dum.pdbqt
DOCKED: USER    NEWDPF about 0.725000 -0.143000 0.203000
DOCKED: USER    NEWDPF tran0 37.257974 12.494316 121.698958
DOCKED: USER    NEWDPF quaternion0 -0.470304 0.770214 0.422065 -0.086289
DOCKED: USER    NEWDPF axisangle0 -0.472065 0.773098 0.423645 -170.099729
DOCKED: USER    NEWDPF quat0 -0.472065 0.773098 0.423645 -170.099729
DOCKED: USER    NEWDPF dihe0 -173.30 172.85 74.06 -159.25 74.25 
DOCKED: USER  keepresnum = 1 
DOCKED: USER  
DOCKED: REMARK  Name = 
DOCKED: REMARK  5 active torsions:
DOCKED: REMARK  status: ('A' for Active; 'I' for Inactive)
DOCKED: REMARK    1  A    between atoms: O_1  and  N_2
DOCKED: REMARK    2  A    between atoms: C_3  and  C_4
DOCKED: REMARK    3  A    between atoms: C_4  and  C_5
DOCKED: REMARK    4  A    between atoms: C_5  and  C_6
DOCKED: REMARK    5  A    between atoms: C_6  and  C_7
DOCKED: REMARK                            x       y       z     vdW  Elec       q    Type
DOCKED: REMARK                         _______ _______ _______ _____ _____    ______ ____
DOCKED: USER                              x       y       z     vdW  Elec       q    Type
DOCKED: USER                           _______ _______ _______ _____ _____    ______ ____
DOCKED: ROOT
DOCKED: ATOM      1  C   UNL     1      37.127  12.023 122.101 -0.56 -0.00    +0.000 C 
DOCKED: ENDROOT
DOCKED: BRANCH   1   2
DOCKED: ATOM      2  C   UNL     1      36.068  10.923 121.995 -0.57 -0.00    +0.000 C 
DOCKED: BRANCH   2   4
DOCKED: ATOM      3  N   UNL     1      36.871   8.941 123.366 -0.60 -0.00    +0.000 N 
DOCKED: ATOM      4  C   UNL     1      36.705   9.570 122.093 -0.69 -0.00    +0.000 C 
DOCKED: ATOM      5  O   UNL     1      37.057   8.968 121.042 -2.71 -0.00    +0.000 OA
DOCKED: ATOM      6  H   UNL     1      36.571   9.403 124.181 -0.44 -0.00    +0.000 HD
DOCKED: BRANCH   3   7
DOCKED: ATOM      7  O   UNL     1      37.438   7.714 123.460 -2.18 -0.00    +0.000 OA
DOCKED: ATOM      8  H   UNL     1      37.771   7.445 122.588 -0.24 -0.00    +0.000 HD
DOCKED: ENDBRANCH   3   7
DOCKED: ENDBRANCH   2   4
DOCKED: ENDBRANCH   1   2
DOCKED: BRANCH   1   9
DOCKED: ATOM      9  C   UNL     1      37.066  12.716 123.466 -0.63 -0.00    +0.000 C 
DOCKED: BRANCH   9  10
DOCKED: ATOM     10  C   UNL     1      36.448  14.083 123.337 -0.47 -0.00    +0.000 A 
DOCKED: ATOM     11  C   UNL     1      37.147  15.120 122.697 -0.35 -0.00    +0.000 A 
DOCKED: ATOM     12  C   UNL     1      36.585  16.397 122.606 -0.25 -0.00    +0.000 A 
DOCKED: ATOM     13  C   UNL     1      35.327  16.650 123.160 -0.34 -0.00    +0.000 A 
DOCKED: ATOM     14  C   UNL     1      34.631  15.626 123.809 -0.51 -0.00    +0.000 A 
DOCKED: ATOM     15  C   UNL     1      35.189  14.348 123.903 -0.43 -0.00    +0.000 A 
DOCKED: ATOM     16  CM  UNL     1      35.888  15.370 123.252 +0.00 -0.00    +0.000 AC
DOCKED: ENDBRANCH   9  10
DOCKED: ENDBRANCH   1   9
DOCKED: TORSDOF 5DOCKED: TER
DOCKED: ENDMDL
________________________________________________________________________________


	BEGINNING GENETIC ALGORITHM DOCKING 26 of 100
Run: 26 Seed: 730204424 1360238975 [ Run 26 of 100 GA/GALS ]
Beginning LAMARCKIAN GENETIC ALGORITHM (LGA), with a maximum of 2500000 energy evaluations.

Final-Value: -11.829


	FINAL GENETIC ALGORITHM DOCKED STATE
	_______________________________________________


Detailed state:  trans 36.889 12.214 122.113 quatxyzw 0.536835 -0.747992 -0.371726 0.118899 center 0.725 -0.143 0.203 ntor 5 -178.8159 176.9855 62.2956 49.1296 51.1429
State:	 36.889  12.214 122.113   0.541 -0.753 -0.374 166.343   -178.82  176.99   62.30   49.13   51.14

DOCKED: MODEL       26
DOCKED: USER    Run = 26
DOCKED: USER    DPF = ligand_dock.biased.dpf
DOCKED: USER  
DOCKED: USER    Estimated Free Energy of Binding    =   -9.46 kcal/mol  [=(1)+(2)+(3)-(4)]
DOCKED: USER    Estimated Inhibition Constant, Ki   =  117.04 nM (nanomolar)  [Temperature = 298.15 K]
DOCKED: USER    
DOCKED: USER    (1) Final Intermolecular Energy     =  -10.95 kcal/mol
DOCKED: USER        vdW + Hbond + desolv Energy     =  -10.95 kcal/mol
DOCKED: USER        Electrostatic Energy            =   +0.00 kcal/mol
DOCKED: USER    (2) Final Total Internal Energy     =   -0.88 kcal/mol
DOCKED: USER    (3) Torsional Free Energy           =   +1.49 kcal/mol
DOCKED: USER    (4) Unbound System's Energy  [=(2)] =   -0.88 kcal/mol
DOCKED: USER    
DOCKED: USER    
DOCKED: USER    NEWDPF move ligand.dum.pdbqt
DOCKED: USER    NEWDPF about 0.725000 -0.143000 0.203000
DOCKED: USER    NEWDPF tran0 36.888628 12.214374 122.112717
DOCKED: USER    NEWDPF quaternion0 0.536835 -0.747992 -0.371726 0.118899
DOCKED: USER    NEWDPF axisangle0 0.540670 -0.753335 -0.374382 166.342856
DOCKED: USER    NEWDPF quat0 0.540670 -0.753335 -0.374382 166.342856
DOCKED: USER    NEWDPF dihe0 -178.82 176.99 62.30 49.13 51.14 
DOCKED: USER  keepresnum = 1 
DOCKED: USER  
DOCKED: REMARK  Name = 
DOCKED: REMARK  5 active torsions:
DOCKED: REMARK  status: ('A' for Active; 'I' for Inactive)
DOCKED: REMARK    1  A    between atoms: O_1  and  N_2
DOCKED: REMARK    2  A    between atoms: C_3  and  C_4
DOCKED: REMARK    3  A    between atoms: C_4  and  C_5
DOCKED: REMARK    4  A    between atoms: C_5  and  C_6
DOCKED: REMARK    5  A    between atoms: C_6  and  C_7
DOCKED: REMARK                            x       y       z     vdW  Elec       q    Type
DOCKED: REMARK                         _______ _______ _______ _____ _____    ______ ____
DOCKED: USER                              x       y       z     vdW  Elec       q    Type
DOCKED: USER                           _______ _______ _______ _____ _____    ______ ____
DOCKED: ROOT
DOCKED: ATOM      1  C   UNL     1      36.736  11.747 122.511 -0.64 -0.00    +0.000 C 
DOCKED: ENDROOT
DOCKED: BRANCH   1   2
DOCKED: ATOM      2  C   UNL     1      35.802  10.553 122.293 -0.63 -0.00    +0.000 C 
DOCKED: BRANCH   2   4
DOCKED: ATOM      3  N   UNL     1      36.744   8.504 123.463 -0.64 -0.00    +0.000 N 
DOCKED: ATOM      4  C   UNL     1      36.583   9.273 122.269 -0.72 -0.00    +0.000 C 
DOCKED: ATOM      5  O   UNL     1      37.064   8.856 121.181 -2.69 -0.00    +0.000 OA
DOCKED: ATOM      6  H   UNL     1      36.345   8.820 124.305 -0.29 -0.00    +0.000 HD
DOCKED: BRANCH   3   7
DOCKED: ATOM      7  O   UNL     1      37.441   7.342 123.445 -1.97 -0.00    +0.000 OA
DOCKED: ATOM      8  H   UNL     1      37.781   7.184 122.550 -0.34 -0.00    +0.000 HD
DOCKED: ENDBRANCH   3   7
DOCKED: ENDBRANCH   2   4
DOCKED: ENDBRANCH   1   2
DOCKED: BRANCH   1   9
DOCKED: ATOM      9  C   UNL     1      36.401  12.476 123.816 -0.66 -0.00    +0.000 C 
DOCKED: BRANCH   9  10
DOCKED: ATOM     10  C   UNL     1      36.234  13.951 123.569 -0.49 -0.00    +0.000 A 
DOCKED: ATOM     11  C   UNL     1      35.189  14.660 124.184 -0.46 -0.00    +0.000 A 
DOCKED: ATOM     12  C   UNL     1      35.016  16.024 123.928 -0.46 -0.00    +0.000 A 
DOCKED: ATOM     13  C   UNL     1      35.878  16.687 123.050 -0.30 -0.00    +0.000 A 
DOCKED: ATOM     14  C   UNL     1      36.913  15.985 122.425 -0.26 -0.00    +0.000 A 
DOCKED: ATOM     15  C   UNL     1      37.090  14.622 122.677 -0.39 -0.00    +0.000 A 
DOCKED: ATOM     16  CM  UNL     1      36.053  15.321 123.305 +0.00 -0.00    +0.000 AC
DOCKED: ENDBRANCH   9  10
DOCKED: ENDBRANCH   1   9
DOCKED: TORSDOF 5DOCKED: TER
DOCKED: ENDMDL
________________________________________________________________________________


	BEGINNING GENETIC ALGORITHM DOCKING 27 of 100
Run: 27 Seed: 1588756372 1928029868 [ Run 27 of 100 GA/GALS ]
Beginning LAMARCKIAN GENETIC ALGORITHM (LGA), with a maximum of 2500000 energy evaluations.

Final-Value: -11.369


	FINAL GENETIC ALGORITHM DOCKED STATE
	_______________________________________________


Detailed state:  trans 36.482 12.081 121.709 quatxyzw -0.562029 0.774579 0.287785 -0.036492 center 0.725 -0.143 0.203 ntor 5 -164.0113 -167.2681 50.5820 -124.8865 1.2026
State:	 36.482  12.081 121.709  -0.562  0.775  0.288 -175.817   -164.01 -167.27   50.58 -124.89    1.20

DOCKED: MODEL       27
DOCKED: USER    Run = 27
DOCKED: USER    DPF = ligand_dock.biased.dpf
DOCKED: USER  
DOCKED: USER    Estimated Free Energy of Binding    =   -9.06 kcal/mol  [=(1)+(2)+(3)-(4)]
DOCKED: USER    Estimated Inhibition Constant, Ki   =  228.50 nM (nanomolar)  [Temperature = 298.15 K]
DOCKED: USER    
DOCKED: USER    (1) Final Intermolecular Energy     =  -10.55 kcal/mol
DOCKED: USER        vdW + Hbond + desolv Energy     =  -10.55 kcal/mol
DOCKED: USER        Electrostatic Energy            =   +0.00 kcal/mol
DOCKED: USER    (2) Final Total Internal Energy     =   -0.82 kcal/mol
DOCKED: USER    (3) Torsional Free Energy           =   +1.49 kcal/mol
DOCKED: USER    (4) Unbound System's Energy  [=(2)] =   -0.82 kcal/mol
DOCKED: USER    
DOCKED: USER    
DOCKED: USER    NEWDPF move ligand.dum.pdbqt
DOCKED: USER    NEWDPF about 0.725000 -0.143000 0.203000
DOCKED: USER    NEWDPF tran0 36.481534 12.081198 121.708737
DOCKED: USER    NEWDPF quaternion0 -0.562029 0.774579 0.287785 -0.036492
DOCKED: USER    NEWDPF axisangle0 -0.562403 0.775095 0.287977 -175.817378
DOCKED: USER    NEWDPF quat0 -0.562403 0.775095 0.287977 -175.817378
DOCKED: USER    NEWDPF dihe0 -164.01 -167.27 50.58 -124.89 1.20 
DOCKED: USER  keepresnum = 1 
DOCKED: USER  
DOCKED: REMARK  Name = 
DOCKED: REMARK  5 active torsions:
DOCKED: REMARK  status: ('A' for Active; 'I' for Inactive)
DOCKED: REMARK    1  A    between atoms: O_1  and  N_2
DOCKED: REMARK    2  A    between atoms: C_3  and  C_4
DOCKED: REMARK    3  A    between atoms: C_4  and  C_5
DOCKED: REMARK    4  A    between atoms: C_5  and  C_6
DOCKED: REMARK    5  A    between atoms: C_6  and  C_7
DOCKED: REMARK                            x       y       z     vdW  Elec       q    Type
DOCKED: REMARK                         _______ _______ _______ _____ _____    ______ ____
DOCKED: USER                              x       y       z     vdW  Elec       q    Type
DOCKED: USER                           _______ _______ _______ _____ _____    ______ ____
DOCKED: ROOT
DOCKED: ATOM      1  C   UNL     1      36.359  11.715 122.211 -0.62 -0.00    +0.000 C 
DOCKED: ENDROOT
DOCKED: BRANCH   1   2
DOCKED: ATOM      2  C   UNL     1      35.487  10.461 122.307 -0.62 -0.00    +0.000 C 
DOCKED: BRANCH   2   4
DOCKED: ATOM      3  N   UNL     1      36.487   8.429 123.458 -0.64 -0.00    +0.000 N 
DOCKED: ATOM      4  C   UNL     1      36.337   9.227 122.281 -0.72 -0.00    +0.000 C 
DOCKED: ATOM      5  O   UNL     1      36.888   8.870 121.205 -2.66 -0.00    +0.000 OA
DOCKED: ATOM      6  H   UNL     1      36.035   8.697 124.290 -0.17 -0.00    +0.000 HD
DOCKED: BRANCH   3   7
DOCKED: ATOM      7  O   UNL     1      37.248   7.308 123.439 -2.00 -0.00    +0.000 OA
DOCKED: ATOM      8  H   UNL     1      37.814   7.317 122.651 -0.36 -0.00    +0.000 HD
DOCKED: ENDBRANCH   3   7
DOCKED: ENDBRANCH   2   4
DOCKED: ENDBRANCH   1   2
DOCKED: BRANCH   1   9
DOCKED: ATOM      9  C   UNL     1      36.006  12.718 123.314 -0.62 -0.00    +0.000 C 
DOCKED: BRANCH   9  10
DOCKED: ATOM     10  C   UNL     1      36.849  13.959 123.189 -0.47 -0.00    +0.000 A 
DOCKED: ATOM     11  C   UNL     1      38.188  13.868 122.774 -0.43 -0.00    +0.000 A 
DOCKED: ATOM     12  C   UNL     1      38.979  15.018 122.689 -0.35 -0.00    +0.000 A 
DOCKED: ATOM     13  C   UNL     1      38.443  16.264 123.027 -0.25 -0.00    +0.000 A 
DOCKED: ATOM     14  C   UNL     1      37.114  16.360 123.453 -0.27 -0.00    +0.000 A 
DOCKED: ATOM     15  C   UNL     1      36.320  15.213 123.540 -0.40 -0.00    +0.000 A 
DOCKED: ATOM     16  CM  UNL     1      37.648  15.114 123.112 +0.00 -0.00    +0.000 AC
DOCKED: ENDBRANCH   9  10
DOCKED: ENDBRANCH   1   9
DOCKED: TORSDOF 5DOCKED: TER
DOCKED: ENDMDL
________________________________________________________________________________


	BEGINNING GENETIC ALGORITHM DOCKING 28 of 100
Run: 28 Seed: 964590685 1964731055 [ Run 28 of 100 GA/GALS ]
Beginning LAMARCKIAN GENETIC ALGORITHM (LGA), with a maximum of 2500000 energy evaluations.

Final-Value: -11.723


	FINAL GENETIC ALGORITHM DOCKED STATE
	_______________________________________________


Detailed state:  trans 37.954 11.799 123.118 quatxyzw 0.342242 -0.685591 0.518096 0.380016 center 0.725 -0.143 0.203 ntor 5 -173.9010 153.0355 -41.3824 -102.6316 -87.9206
State:	 37.954  11.799 123.118   0.370 -0.741  0.560 135.331   -173.90  153.04  -41.38 -102.63  -87.92

DOCKED: MODEL       28
DOCKED: USER    Run = 28
DOCKED: USER    DPF = ligand_dock.biased.dpf
DOCKED: USER  
DOCKED: USER    Estimated Free Energy of Binding    =   -9.35 kcal/mol  [=(1)+(2)+(3)-(4)]
DOCKED: USER    Estimated Inhibition Constant, Ki   =  139.75 nM (nanomolar)  [Temperature = 298.15 K]
DOCKED: USER    
DOCKED: USER    (1) Final Intermolecular Energy     =  -10.84 kcal/mol
DOCKED: USER        vdW + Hbond + desolv Energy     =  -10.84 kcal/mol
DOCKED: USER        Electrostatic Energy            =   +0.00 kcal/mol
DOCKED: USER    (2) Final Total Internal Energy     =   -0.88 kcal/mol
DOCKED: USER    (3) Torsional Free Energy           =   +1.49 kcal/mol
DOCKED: USER    (4) Unbound System's Energy  [=(2)] =   -0.88 kcal/mol
DOCKED: USER    
DOCKED: USER    
DOCKED: USER    NEWDPF move ligand.dum.pdbqt
DOCKED: USER    NEWDPF about 0.725000 -0.143000 0.203000
DOCKED: USER    NEWDPF tran0 37.954497 11.799304 123.117579
DOCKED: USER    NEWDPF quaternion0 0.342242 -0.685591 0.518096 0.380016
DOCKED: USER    NEWDPF axisangle0 0.369999 -0.741195 0.560116 135.330660
DOCKED: USER    NEWDPF quat0 0.369999 -0.741195 0.560116 135.330660
DOCKED: USER    NEWDPF dihe0 -173.90 153.04 -41.38 -102.63 -87.92 
DOCKED: USER  keepresnum = 1 
DOCKED: USER  
DOCKED: REMARK  Name = 
DOCKED: REMARK  5 active torsions:
DOCKED: REMARK  status: ('A' for Active; 'I' for Inactive)
DOCKED: REMARK    1  A    between atoms: O_1  and  N_2
DOCKED: REMARK    2  A    between atoms: C_3  and  C_4
DOCKED: REMARK    3  A    between atoms: C_4  and  C_5
DOCKED: REMARK    4  A    between atoms: C_5  and  C_6
DOCKED: REMARK    5  A    between atoms: C_6  and  C_7
DOCKED: REMARK                            x       y       z     vdW  Elec       q    Type
DOCKED: REMARK                         _______ _______ _______ _____ _____    ______ ____
DOCKED: USER                              x       y       z     vdW  Elec       q    Type
DOCKED: USER                           _______ _______ _______ _____ _____    ______ ____
DOCKED: ROOT
DOCKED: ATOM      1  C   UNL     1      37.365  11.965 122.957 -0.52 -0.00    +0.000 C 
DOCKED: ENDROOT
DOCKED: BRANCH   1   2
DOCKED: ATOM      2  C   UNL     1      36.278  11.137 122.266 -0.65 -0.00    +0.000 C 
DOCKED: BRANCH   2   4
DOCKED: ATOM      3  N   UNL     1      36.787   8.882 123.322 -0.62 -0.00    +0.000 N 
DOCKED: ATOM      4  C   UNL     1      36.703   9.703 122.154 -0.69 -0.00    +0.000 C 
DOCKED: ATOM      5  O   UNL     1      36.946   9.211 121.020 -2.70 -0.00    +0.000 OA
DOCKED: ATOM      6  H   UNL     1      36.572   9.264 124.203 -0.44 -0.00    +0.000 HD
DOCKED: BRANCH   3   7
DOCKED: ATOM      7  O   UNL     1      37.162   7.584 123.226 -2.22 -0.00    +0.000 OA
DOCKED: ATOM      8  H   UNL     1      37.430   7.393 122.313 -0.14 -0.00    +0.000 HD
DOCKED: ENDBRANCH   3   7
DOCKED: ENDBRANCH   2   4
DOCKED: ENDBRANCH   1   2
DOCKED: BRANCH   1   9
DOCKED: ATOM      9  C   UNL     1      37.543  13.322 122.269 -0.51 -0.00    +0.000 C 
DOCKED: BRANCH   9  10
DOCKED: ATOM     10  C   UNL     1      36.672  14.363 122.921 -0.42 -0.00    +0.000 A 
DOCKED: ATOM     11  C   UNL     1      35.644  13.979 123.797 -0.48 -0.00    +0.000 A 
DOCKED: ATOM     12  C   UNL     1      34.815  14.945 124.377 -0.43 -0.00    +0.000 A 
DOCKED: ATOM     13  C   UNL     1      35.001  16.298 124.079 -0.44 -0.00    +0.000 A 
DOCKED: ATOM     14  C   UNL     1      36.014  16.686 123.198 -0.30 -0.00    +0.000 A 
DOCKED: ATOM     15  C   UNL     1      36.845  15.724 122.616 -0.29 -0.00    +0.000 A 
DOCKED: ATOM     16  CM  UNL     1      35.832  15.332 123.498 +0.00 -0.00    +0.000 AC
DOCKED: ENDBRANCH   9  10
DOCKED: ENDBRANCH   1   9
DOCKED: TORSDOF 5DOCKED: TER
DOCKED: ENDMDL
________________________________________________________________________________


	BEGINNING GENETIC ALGORITHM DOCKING 29 of 100
Run: 29 Seed: 1349825329 1131495403 [ Run 29 of 100 GA/GALS ]
Beginning LAMARCKIAN GENETIC ALGORITHM (LGA), with a maximum of 2500000 energy evaluations.

Final-Value: -11.977


	FINAL GENETIC ALGORITHM DOCKED STATE
	_______________________________________________


Detailed state:  trans 36.157 11.152 124.113 quatxyzw 0.050570 0.401136 -0.739190 -0.538638 center 0.725 -0.143 0.203 ntor 5 180.0000 119.3296 -87.1492 -79.6775 -66.7271
State:	 36.157  11.152 124.113   0.060  0.476 -0.877 -114.818    180.00  119.33  -87.15  -79.68  -66.73

DOCKED: MODEL       29
DOCKED: USER    Run = 29
DOCKED: USER    DPF = ligand_dock.biased.dpf
DOCKED: USER  
DOCKED: USER    Estimated Free Energy of Binding    =   -9.56 kcal/mol  [=(1)+(2)+(3)-(4)]
DOCKED: USER    Estimated Inhibition Constant, Ki   =   98.75 nM (nanomolar)  [Temperature = 298.15 K]
DOCKED: USER    
DOCKED: USER    (1) Final Intermolecular Energy     =  -11.05 kcal/mol
DOCKED: USER        vdW + Hbond + desolv Energy     =  -11.05 kcal/mol
DOCKED: USER        Electrostatic Energy            =   +0.00 kcal/mol
DOCKED: USER    (2) Final Total Internal Energy     =   -0.93 kcal/mol
DOCKED: USER    (3) Torsional Free Energy           =   +1.49 kcal/mol
DOCKED: USER    (4) Unbound System's Energy  [=(2)] =   -0.93 kcal/mol
DOCKED: USER    
DOCKED: USER    
DOCKED: USER    NEWDPF move ligand.dum.pdbqt
DOCKED: USER    NEWDPF about 0.725000 -0.143000 0.203000
DOCKED: USER    NEWDPF tran0 36.157072 11.151647 124.112979
DOCKED: USER    NEWDPF quaternion0 0.050570 0.401136 -0.739190 -0.538638
DOCKED: USER    NEWDPF axisangle0 0.060021 0.476104 -0.877338 -114.818077
DOCKED: USER    NEWDPF quat0 0.060021 0.476104 -0.877338 -114.818077
DOCKED: USER    NEWDPF dihe0 180.00 119.33 -87.15 -79.68 -66.73 
DOCKED: USER  keepresnum = 1 
DOCKED: USER  
DOCKED: REMARK  Name = 
DOCKED: REMARK  5 active torsions:
DOCKED: REMARK  status: ('A' for Active; 'I' for Inactive)
DOCKED: REMARK    1  A    between atoms: O_1  and  N_2
DOCKED: REMARK    2  A    between atoms: C_3  and  C_4
DOCKED: REMARK    3  A    between atoms: C_4  and  C_5
DOCKED: REMARK    4  A    between atoms: C_5  and  C_6
DOCKED: REMARK    5  A    between atoms: C_6  and  C_7
DOCKED: REMARK                            x       y       z     vdW  Elec       q    Type
DOCKED: REMARK                         _______ _______ _______ _____ _____    ______ ____
DOCKED: USER                              x       y       z     vdW  Elec       q    Type
DOCKED: USER                           _______ _______ _______ _____ _____    ______ ____
DOCKED: ROOT
DOCKED: ATOM      1  C   UNL     1      36.087  11.368 123.522 -0.69 -0.00    +0.000 C 
DOCKED: ENDROOT
DOCKED: BRANCH   1   2
DOCKED: ATOM      2  C   UNL     1      35.835  10.591 122.227 -0.61 -0.00    +0.000 C 
DOCKED: BRANCH   2   4
DOCKED: ATOM      3  N   UNL     1      36.762   8.564 123.447 -0.64 -0.00    +0.000 N 
DOCKED: ATOM      4  C   UNL     1      36.599   9.301 122.233 -0.72 -0.00    +0.000 C 
DOCKED: ATOM      5  O   UNL     1      37.064   8.846 121.153 -2.69 -0.00    +0.000 OA
DOCKED: ATOM      6  H   UNL     1      36.376   8.910 124.283 -0.31 -0.00    +0.000 HD
DOCKED: BRANCH   3   7
DOCKED: ATOM      7  O   UNL     1      37.444   7.393 123.456 -2.00 -0.00    +0.000 OA
DOCKED: ATOM      8  H   UNL     1      37.757   7.196 122.559 -0.33 -0.00    +0.000 HD
DOCKED: ENDBRANCH   3   7
DOCKED: ENDBRANCH   2   4
DOCKED: ENDBRANCH   1   2
DOCKED: BRANCH   1   9
DOCKED: ATOM      9  C   UNL     1      37.248  12.354 123.356 -0.62 -0.00    +0.000 C 
DOCKED: BRANCH   9  10
DOCKED: ATOM     10  C   UNL     1      36.753  13.773 123.441 -0.49 -0.00    +0.000 A 
DOCKED: ATOM     11  C   UNL     1      35.430  14.039 123.832 -0.44 -0.00    +0.000 A 
DOCKED: ATOM     12  C   UNL     1      34.961  15.356 123.880 -0.51 -0.00    +0.000 A 
DOCKED: ATOM     13  C   UNL     1      35.805  16.414 123.529 -0.34 -0.00    +0.000 A 
DOCKED: ATOM     14  C   UNL     1      37.119  16.154 123.127 -0.28 -0.00    +0.000 A 
DOCKED: ATOM     15  C   UNL     1      37.592  14.840 123.077 -0.38 -0.00    +0.000 A 
DOCKED: ATOM     16  CM  UNL     1      36.277  15.096 123.481 +0.00 -0.00    +0.000 AC
DOCKED: ENDBRANCH   9  10
DOCKED: ENDBRANCH   1   9
DOCKED: TORSDOF 5DOCKED: TER
DOCKED: ENDMDL
________________________________________________________________________________


	BEGINNING GENETIC ALGORITHM DOCKING 30 of 100
Run: 30 Seed: 1708038427 1186903958 [ Run 30 of 100 GA/GALS ]
Beginning LAMARCKIAN GENETIC ALGORITHM (LGA), with a maximum of 2500000 energy evaluations.

Final-Value: -10.877


	FINAL GENETIC ALGORITHM DOCKED STATE
	_______________________________________________


Detailed state:  trans 35.997 12.342 121.898 quatxyzw 0.371920 0.407061 0.538575 0.637114 center 0.725 -0.143 0.203 ntor 5 -170.5389 -65.7896 102.5692 132.9408 79.7342
State:	 35.997  12.342 121.898   0.483  0.528  0.699 100.846   -170.54  -65.79  102.57  132.94   79.73

DOCKED: MODEL       30
DOCKED: USER    Run = 30
DOCKED: USER    DPF = ligand_dock.biased.dpf
DOCKED: USER  
DOCKED: USER    Estimated Free Energy of Binding    =   -8.51 kcal/mol  [=(1)+(2)+(3)-(4)]
DOCKED: USER    Estimated Inhibition Constant, Ki   =  581.02 nM (nanomolar)  [Temperature = 298.15 K]
DOCKED: USER    
DOCKED: USER    (1) Final Intermolecular Energy     =  -10.00 kcal/mol
DOCKED: USER        vdW + Hbond + desolv Energy     =  -10.00 kcal/mol
DOCKED: USER        Electrostatic Energy            =   +0.00 kcal/mol
DOCKED: USER    (2) Final Total Internal Energy     =   -0.88 kcal/mol
DOCKED: USER    (3) Torsional Free Energy           =   +1.49 kcal/mol
DOCKED: USER    (4) Unbound System's Energy  [=(2)] =   -0.88 kcal/mol
DOCKED: USER    
DOCKED: USER    
DOCKED: USER    NEWDPF move ligand.dum.pdbqt
DOCKED: USER    NEWDPF about 0.725000 -0.143000 0.203000
DOCKED: USER    NEWDPF tran0 35.996713 12.342121 121.898393
DOCKED: USER    NEWDPF quaternion0 0.371920 0.407061 0.538575 0.637114
DOCKED: USER    NEWDPF axisangle0 0.482530 0.528123 0.698749 100.846144
DOCKED: USER    NEWDPF quat0 0.482530 0.528123 0.698749 100.846144
DOCKED: USER    NEWDPF dihe0 -170.54 -65.79 102.57 132.94 79.73 
DOCKED: USER  keepresnum = 1 
DOCKED: USER  
DOCKED: REMARK  Name = 
DOCKED: REMARK  5 active torsions:
DOCKED: REMARK  status: ('A' for Active; 'I' for Inactive)
DOCKED: REMARK    1  A    between atoms: O_1  and  N_2
DOCKED: REMARK    2  A    between atoms: C_3  and  C_4
DOCKED: REMARK    3  A    between atoms: C_4  and  C_5
DOCKED: REMARK    4  A    between atoms: C_5  and  C_6
DOCKED: REMARK    5  A    between atoms: C_6  and  C_7
DOCKED: REMARK                            x       y       z     vdW  Elec       q    Type
DOCKED: REMARK                         _______ _______ _______ _____ _____    ______ ____
DOCKED: USER                              x       y       z     vdW  Elec       q    Type
DOCKED: USER                           _______ _______ _______ _____ _____    ______ ____
DOCKED: ROOT
DOCKED: ATOM      1  C   UNL     1      36.313  11.799 121.821 -0.55 -0.00    +0.000 C 
DOCKED: ENDROOT
DOCKED: BRANCH   1   2
DOCKED: ATOM      2  C   UNL     1      37.043  10.945 122.861 -0.62 -0.00    +0.000 C 
DOCKED: BRANCH   2   4
DOCKED: ATOM      3  N   UNL     1      37.055   8.466 123.418 -0.69 -0.00    +0.000 N 
DOCKED: ATOM      4  C   UNL     1      37.065   9.507 122.438 -0.61 -0.00    +0.000 C 
DOCKED: ATOM      5  O   UNL     1      37.049   9.217 121.211 -2.73 -0.00    +0.000 OA
DOCKED: ATOM      6  H   UNL     1      37.042   8.697 124.374 -0.49 -0.00    +0.000 HD
DOCKED: BRANCH   3   7
DOCKED: ATOM      7  O   UNL     1      37.066   7.165 123.041 -1.97 -0.00    +0.000 OA
DOCKED: ATOM      8  H   UNL     1      37.229   7.107 122.086 -0.15 -0.00    +0.000 HD
DOCKED: ENDBRANCH   3   7
DOCKED: ENDBRANCH   2   4
DOCKED: ENDBRANCH   1   2
DOCKED: BRANCH   1   9
DOCKED: ATOM      9  C   UNL     1      37.206  12.070 120.606 -0.50 -0.00    +0.000 C 
DOCKED: BRANCH   9  10
DOCKED: ATOM     10  C   UNL     1      37.810  13.446 120.690 -0.39 -0.00    +0.000 A 
DOCKED: ATOM     11  C   UNL     1      37.891  14.256 119.546 -0.27 -0.00    +0.000 A 
DOCKED: ATOM     12  C   UNL     1      38.482  15.522 119.619 -0.17 -0.00    +0.000 A 
DOCKED: ATOM     13  C   UNL     1      39.003  15.983 120.830 -0.17 -0.00    +0.000 A 
DOCKED: ATOM     14  C   UNL     1      38.937  15.177 121.971 -0.31 -0.00    +0.000 A 
DOCKED: ATOM     15  C   UNL     1      38.349  13.911 121.903 -0.37 -0.00    +0.000 A 
DOCKED: ATOM     16  CM  UNL     1      38.412  14.715 120.760 +0.00 -0.00    +0.000 AC
DOCKED: ENDBRANCH   9  10
DOCKED: ENDBRANCH   1   9
DOCKED: TORSDOF 5DOCKED: TER
DOCKED: ENDMDL
________________________________________________________________________________


	BEGINNING GENETIC ALGORITHM DOCKING 31 of 100
Run: 31 Seed: 1611165728 1890160195 [ Run 31 of 100 GA/GALS ]
Beginning LAMARCKIAN GENETIC ALGORITHM (LGA), with a maximum of 2500000 energy evaluations.

Final-Value: -11.296


	FINAL GENETIC ALGORITHM DOCKED STATE
	_______________________________________________


Detailed state:  trans 37.414 11.650 123.320 quatxyzw -0.452206 0.739320 -0.305805 -0.394207 center 0.725 -0.143 0.203 ntor 5 -177.5767 171.6859 -28.2229 -3.4554 61.7138
State:	 37.414  11.650 123.320  -0.492  0.804 -0.333 -133.567   -177.58  171.69  -28.22   -3.46   61.71

DOCKED: MODEL       31
DOCKED: USER    Run = 31
DOCKED: USER    DPF = ligand_dock.biased.dpf
DOCKED: USER  
DOCKED: USER    Estimated Free Energy of Binding    =   -8.86 kcal/mol  [=(1)+(2)+(3)-(4)]
DOCKED: USER    Estimated Inhibition Constant, Ki   =  319.24 nM (nanomolar)  [Temperature = 298.15 K]
DOCKED: USER    
DOCKED: USER    (1) Final Intermolecular Energy     =  -10.35 kcal/mol
DOCKED: USER        vdW + Hbond + desolv Energy     =  -10.35 kcal/mol
DOCKED: USER        Electrostatic Energy            =   +0.00 kcal/mol
DOCKED: USER    (2) Final Total Internal Energy     =   -0.94 kcal/mol
DOCKED: USER    (3) Torsional Free Energy           =   +1.49 kcal/mol
DOCKED: USER    (4) Unbound System's Energy  [=(2)] =   -0.94 kcal/mol
DOCKED: USER    
DOCKED: USER    
DOCKED: USER    NEWDPF move ligand.dum.pdbqt
DOCKED: USER    NEWDPF about 0.725000 -0.143000 0.203000
DOCKED: USER    NEWDPF tran0 37.414150 11.650318 123.319610
DOCKED: USER    NEWDPF quaternion0 -0.452206 0.739320 -0.305805 -0.394207
DOCKED: USER    NEWDPF axisangle0 -0.492051 0.804464 -0.332751 -133.566959
DOCKED: USER    NEWDPF quat0 -0.492051 0.804464 -0.332751 -133.566959
DOCKED: USER    NEWDPF dihe0 -177.58 171.69 -28.22 -3.46 61.71 
DOCKED: USER  keepresnum = 1 
DOCKED: USER  
DOCKED: REMARK  Name = 
DOCKED: REMARK  5 active torsions:
DOCKED: REMARK  status: ('A' for Active; 'I' for Inactive)
DOCKED: REMARK    1  A    between atoms: O_1  and  N_2
DOCKED: REMARK    2  A    between atoms: C_3  and  C_4
DOCKED: REMARK    3  A    between atoms: C_4  and  C_5
DOCKED: REMARK    4  A    between atoms: C_5  and  C_6
DOCKED: REMARK    5  A    between atoms: C_6  and  C_7
DOCKED: REMARK                            x       y       z     vdW  Elec       q    Type
DOCKED: REMARK                         _______ _______ _______ _____ _____    ______ ____
DOCKED: USER                              x       y       z     vdW  Elec       q    Type
DOCKED: USER                           _______ _______ _______ _____ _____    ______ ____
DOCKED: ROOT
DOCKED: ATOM      1  C   UNL     1      36.782  11.650 123.359 -0.69 -0.00    +0.000 C 
DOCKED: ENDROOT
DOCKED: BRANCH   1   2
DOCKED: ATOM      2  C   UNL     1      35.770  10.695 122.721 -0.67 -0.00    +0.000 C 
DOCKED: BRANCH   2   4
DOCKED: ATOM      3  N   UNL     1      36.486   8.333 123.322 -0.67 -0.00    +0.000 N 
DOCKED: ATOM      4  C   UNL     1      36.427   9.395 122.367 -0.72 -0.00    +0.000 C 
DOCKED: ATOM      5  O   UNL     1      36.891   9.225 121.207 -2.68 -0.00    +0.000 OA
DOCKED: ATOM      6  H   UNL     1      36.100   8.460 124.218 -0.23 -0.00    +0.000 HD
DOCKED: BRANCH   3   7
DOCKED: ATOM      7  O   UNL     1      37.071   7.152 123.004 -1.93 -0.00    +0.000 OA
DOCKED: ATOM      8  H   UNL     1      37.432   7.203 122.105 -0.17 -0.00    +0.000 HD
DOCKED: ENDBRANCH   3   7
DOCKED: ENDBRANCH   2   4
DOCKED: ENDBRANCH   1   2
DOCKED: BRANCH   1   9
DOCKED: ATOM      9  C   UNL     1      36.402  13.111 123.097 -0.60 -0.00    +0.000 C 
DOCKED: BRANCH   9  10
DOCKED: ATOM     10  C   UNL     1      37.478  13.802 122.303 -0.43 -0.00    +0.000 A 
DOCKED: ATOM     11  C   UNL     1      37.491  13.715 120.901 -0.38 -0.00    +0.000 A 
DOCKED: ATOM     12  C   UNL     1      38.509  14.331 120.166 -0.25 -0.00    +0.000 A 
DOCKED: ATOM     13  C   UNL     1      39.525  15.029 120.825 -0.23 -0.00    +0.000 A 
DOCKED: ATOM     14  C   UNL     1      39.525  15.109 122.221 -0.35 -0.00    +0.000 A 
DOCKED: ATOM     15  C   UNL     1      38.510  14.495 122.959 -0.35 -0.00    +0.000 A 
DOCKED: ATOM     16  CM  UNL     1      38.506  14.413 121.563 +0.00 -0.00    +0.000 AC
DOCKED: ENDBRANCH   9  10
DOCKED: ENDBRANCH   1   9
DOCKED: TORSDOF 5DOCKED: TER
DOCKED: ENDMDL
________________________________________________________________________________


	BEGINNING GENETIC ALGORITHM DOCKING 32 of 100
Run: 32 Seed: 1717820321 430883353 [ Run 32 of 100 GA/GALS ]
Beginning LAMARCKIAN GENETIC ALGORITHM (LGA), with a maximum of 2500000 energy evaluations.

Final-Value: -11.436


	FINAL GENETIC ALGORITHM DOCKED STATE
	_______________________________________________


Detailed state:  trans 36.092 12.088 121.456 quatxyzw -0.185534 0.665994 0.473170 0.546021 center 0.725 -0.143 0.203 ntor 5 -173.2055 -96.4313 47.4714 115.6041 89.4811
State:	 36.092  12.088 121.456  -0.221  0.795  0.565 113.811   -173.21  -96.43   47.47  115.60   89.48

DOCKED: MODEL       32
DOCKED: USER    Run = 32
DOCKED: USER    DPF = ligand_dock.biased.dpf
DOCKED: USER  
DOCKED: USER    Estimated Free Energy of Binding    =   -9.10 kcal/mol  [=(1)+(2)+(3)-(4)]
DOCKED: USER    Estimated Inhibition Constant, Ki   =  213.83 nM (nanomolar)  [Temperature = 298.15 K]
DOCKED: USER    
DOCKED: USER    (1) Final Intermolecular Energy     =  -10.59 kcal/mol
DOCKED: USER        vdW + Hbond + desolv Energy     =  -10.59 kcal/mol
DOCKED: USER        Electrostatic Energy            =   +0.00 kcal/mol
DOCKED: USER    (2) Final Total Internal Energy     =   -0.85 kcal/mol
DOCKED: USER    (3) Torsional Free Energy           =   +1.49 kcal/mol
DOCKED: USER    (4) Unbound System's Energy  [=(2)] =   -0.85 kcal/mol
DOCKED: USER    
DOCKED: USER    
DOCKED: USER    NEWDPF move ligand.dum.pdbqt
DOCKED: USER    NEWDPF about 0.725000 -0.143000 0.203000
DOCKED: USER    NEWDPF tran0 36.091533 12.088103 121.456078
DOCKED: USER    NEWDPF quaternion0 -0.185534 0.665994 0.473170 0.546021
DOCKED: USER    NEWDPF axisangle0 -0.221461 0.794959 0.564796 113.811052
DOCKED: USER    NEWDPF quat0 -0.221461 0.794959 0.564796 113.811052
DOCKED: USER    NEWDPF dihe0 -173.21 -96.43 47.47 115.60 89.48 
DOCKED: USER  keepresnum = 1 
DOCKED: USER  
DOCKED: REMARK  Name = 
DOCKED: REMARK  5 active torsions:
DOCKED: REMARK  status: ('A' for Active; 'I' for Inactive)
DOCKED: REMARK    1  A    between atoms: O_1  and  N_2
DOCKED: REMARK    2  A    between atoms: C_3  and  C_4
DOCKED: REMARK    3  A    between atoms: C_4  and  C_5
DOCKED: REMARK    4  A    between atoms: C_5  and  C_6
DOCKED: REMARK    5  A    between atoms: C_6  and  C_7
DOCKED: REMARK                            x       y       z     vdW  Elec       q    Type
DOCKED: REMARK                         _______ _______ _______ _____ _____    ______ ____
DOCKED: USER                              x       y       z     vdW  Elec       q    Type
DOCKED: USER                           _______ _______ _______ _____ _____    ______ ____
DOCKED: ROOT
DOCKED: ATOM      1  C   UNL     1      36.609  11.836 121.721 -0.57 -0.00    +0.000 C 
DOCKED: ENDROOT
DOCKED: BRANCH   1   2
DOCKED: ATOM      2  C   UNL     1      36.723  10.883 122.913 -0.68 -0.00    +0.000 C 
DOCKED: BRANCH   2   4
DOCKED: ATOM      3  N   UNL     1      36.959   8.398 123.386 -0.69 -0.00    +0.000 N 
DOCKED: ATOM      4  C   UNL     1      36.850   9.466 122.442 -0.68 -0.00    +0.000 C 
DOCKED: ATOM      5  O   UNL     1      36.819   9.213 121.207 -2.67 -0.00    +0.000 OA
DOCKED: ATOM      6  H   UNL     1      36.957   8.598 124.350 -0.45 -0.00    +0.000 HD
DOCKED: BRANCH   3   7
DOCKED: ATOM      7  O   UNL     1      37.066   7.114 122.966 -1.88 -0.00    +0.000 OA
DOCKED: ATOM      8  H   UNL     1      37.161   7.098 122.001 -0.14 -0.00    +0.000 HD
DOCKED: ENDBRANCH   3   7
DOCKED: ENDBRANCH   2   4
DOCKED: ENDBRANCH   1   2
DOCKED: BRANCH   1   9
DOCKED: ATOM      9  C   UNL     1      37.554  13.032 121.879 -0.50 -0.00    +0.000 C 
DOCKED: BRANCH   9  10
DOCKED: ATOM     10  C   UNL     1      36.860  14.162 122.593 -0.41 -0.00    +0.000 A 
DOCKED: ATOM     11  C   UNL     1      37.298  15.485 122.418 -0.29 -0.00    +0.000 A 
DOCKED: ATOM     12  C   UNL     1      36.673  16.531 123.106 -0.27 -0.00    +0.000 A 
DOCKED: ATOM     13  C   UNL     1      35.616  16.261 123.979 -0.38 -0.00    +0.000 A 
DOCKED: ATOM     14  C   UNL     1      35.184  14.945 124.168 -0.50 -0.00    +0.000 A 
DOCKED: ATOM     15  C   UNL     1      35.805  13.897 123.483 -0.47 -0.00    +0.000 A 
DOCKED: ATOM     16  CM  UNL     1      36.239  15.213 123.291 +0.00 -0.00    +0.000 AC
DOCKED: ENDBRANCH   9  10
DOCKED: ENDBRANCH   1   9
DOCKED: TORSDOF 5DOCKED: TER
DOCKED: ENDMDL
________________________________________________________________________________


	BEGINNING GENETIC ALGORITHM DOCKING 33 of 100
Run: 33 Seed: 273872255 946319406 [ Run 33 of 100 GA/GALS ]
Beginning LAMARCKIAN GENETIC ALGORITHM (LGA), with a maximum of 2500000 energy evaluations.

Final-Value: -11.828


	FINAL GENETIC ALGORITHM DOCKED STATE
	_______________________________________________


Detailed state:  trans 36.977 12.254 122.207 quatxyzw -0.558983 0.736514 0.326394 -0.196348 center 0.725 -0.143 0.203 ntor 5 -179.8305 166.1191 59.8778 -138.0907 52.4302
State:	 36.977  12.254 122.207  -0.570  0.751  0.333 -157.353   -179.83  166.12   59.88 -138.09   52.43

DOCKED: MODEL       33
DOCKED: USER    Run = 33
DOCKED: USER    DPF = ligand_dock.biased.dpf
DOCKED: USER  
DOCKED: USER    Estimated Free Energy of Binding    =   -9.46 kcal/mol  [=(1)+(2)+(3)-(4)]
DOCKED: USER    Estimated Inhibition Constant, Ki   =  117.20 nM (nanomolar)  [Temperature = 298.15 K]
DOCKED: USER    
DOCKED: USER    (1) Final Intermolecular Energy     =  -10.95 kcal/mol
DOCKED: USER        vdW + Hbond + desolv Energy     =  -10.95 kcal/mol
DOCKED: USER        Electrostatic Energy            =   +0.00 kcal/mol
DOCKED: USER    (2) Final Total Internal Energy     =   -0.88 kcal/mol
DOCKED: USER    (3) Torsional Free Energy           =   +1.49 kcal/mol
DOCKED: USER    (4) Unbound System's Energy  [=(2)] =   -0.88 kcal/mol
DOCKED: USER    
DOCKED: USER    
DOCKED: USER    NEWDPF move ligand.dum.pdbqt
DOCKED: USER    NEWDPF about 0.725000 -0.143000 0.203000
DOCKED: USER    NEWDPF tran0 36.976645 12.253919 122.206593
DOCKED: USER    NEWDPF quaternion0 -0.558983 0.736514 0.326394 -0.196348
DOCKED: USER    NEWDPF axisangle0 -0.570080 0.751136 0.332873 -157.353072
DOCKED: USER    NEWDPF quat0 -0.570080 0.751136 0.332873 -157.353072
DOCKED: USER    NEWDPF dihe0 -179.83 166.12 59.88 -138.09 52.43 
DOCKED: USER  keepresnum = 1 
DOCKED: USER  
DOCKED: REMARK  Name = 
DOCKED: REMARK  5 active torsions:
DOCKED: REMARK  status: ('A' for Active; 'I' for Inactive)
DOCKED: REMARK    1  A    between atoms: O_1  and  N_2
DOCKED: REMARK    2  A    between atoms: C_3  and  C_4
DOCKED: REMARK    3  A    between atoms: C_4  and  C_5
DOCKED: REMARK    4  A    between atoms: C_5  and  C_6
DOCKED: REMARK    5  A    between atoms: C_6  and  C_7
DOCKED: REMARK                            x       y       z     vdW  Elec       q    Type
DOCKED: REMARK                         _______ _______ _______ _____ _____    ______ ____
DOCKED: USER                              x       y       z     vdW  Elec       q    Type
DOCKED: USER                           _______ _______ _______ _____ _____    ______ ____
DOCKED: ROOT
DOCKED: ATOM      1  C   UNL     1      36.744  11.783 122.560 -0.64 -0.00    +0.000 C 
DOCKED: ENDROOT
DOCKED: BRANCH   1   2
DOCKED: ATOM      2  C   UNL     1      35.841  10.617 122.151 -0.57 -0.00    +0.000 C 
DOCKED: BRANCH   2   4
DOCKED: ATOM      3  N   UNL     1      36.766   8.619 123.419 -0.64 -0.00    +0.000 N 
DOCKED: ATOM      4  C   UNL     1      36.602   9.326 122.187 -0.71 -0.00    +0.000 C 
DOCKED: ATOM      5  O   UNL     1      37.065   8.843 121.118 -2.70 -0.00    +0.000 OA
DOCKED: ATOM      6  H   UNL     1      36.381   8.986 124.247 -0.33 -0.00    +0.000 HD
DOCKED: BRANCH   3   7
DOCKED: ATOM      7  O   UNL     1      37.446   7.447 123.456 -2.03 -0.00    +0.000 OA
DOCKED: ATOM      8  H   UNL     1      37.759   7.229 122.564 -0.32 -0.00    +0.000 HD
DOCKED: ENDBRANCH   3   7
DOCKED: ENDBRANCH   2   4
DOCKED: ENDBRANCH   1   2
DOCKED: BRANCH   1   9
DOCKED: ATOM      9  C   UNL     1      36.191  12.499 123.797 -0.65 -0.00    +0.000 C 
DOCKED: BRANCH   9  10
DOCKED: ATOM     10  C   UNL     1      36.074  13.979 123.543 -0.49 -0.00    +0.000 A 
DOCKED: ATOM     11  C   UNL     1      37.158  14.693 123.007 -0.40 -0.00    +0.000 A 
DOCKED: ATOM     12  C   UNL     1      37.059  16.073 122.802 -0.27 -0.00    +0.000 A 
DOCKED: ATOM     13  C   UNL     1      35.883  16.749 123.138 -0.30 -0.00    +0.000 A 
DOCKED: ATOM     14  C   UNL     1      34.805  16.046 123.684 -0.46 -0.00    +0.000 A 
DOCKED: ATOM     15  C   UNL     1      34.899  14.667 123.892 -0.44 -0.00    +0.000 A 
DOCKED: ATOM     16  CM  UNL     1      35.980  15.368 123.345 +0.00 -0.00    +0.000 AC
DOCKED: ENDBRANCH   9  10
DOCKED: ENDBRANCH   1   9
DOCKED: TORSDOF 5DOCKED: TER
DOCKED: ENDMDL
________________________________________________________________________________


	BEGINNING GENETIC ALGORITHM DOCKING 34 of 100
Run: 34 Seed: 1337503188 2090678713 [ Run 34 of 100 GA/GALS ]
Beginning LAMARCKIAN GENETIC ALGORITHM (LGA), with a maximum of 2500000 energy evaluations.

Final-Value: -11.987


	FINAL GENETIC ALGORITHM DOCKED STATE
	_______________________________________________


Detailed state:  trans 36.672 11.552 123.702 quatxyzw 0.062991 0.389303 -0.636904 -0.662442 center 0.725 -0.143 0.203 ntor 5 -169.1882 80.5309 -43.7230 -80.2069 -57.4611
State:	 36.672  11.552 123.702   0.084  0.520 -0.850 -97.027   -169.19   80.53  -43.72  -80.21  -57.46

DOCKED: MODEL       34
DOCKED: USER    Run = 34
DOCKED: USER    DPF = ligand_dock.biased.dpf
DOCKED: USER  
DOCKED: USER    Estimated Free Energy of Binding    =   -9.64 kcal/mol  [=(1)+(2)+(3)-(4)]
DOCKED: USER    Estimated Inhibition Constant, Ki   =   85.53 nM (nanomolar)  [Temperature = 298.15 K]
DOCKED: USER    
DOCKED: USER    (1) Final Intermolecular Energy     =  -11.13 kcal/mol
DOCKED: USER        vdW + Hbond + desolv Energy     =  -11.13 kcal/mol
DOCKED: USER        Electrostatic Energy            =   +0.00 kcal/mol
DOCKED: USER    (2) Final Total Internal Energy     =   -0.85 kcal/mol
DOCKED: USER    (3) Torsional Free Energy           =   +1.49 kcal/mol
DOCKED: USER    (4) Unbound System's Energy  [=(2)] =   -0.85 kcal/mol
DOCKED: USER    
DOCKED: USER    
DOCKED: USER    NEWDPF move ligand.dum.pdbqt
DOCKED: USER    NEWDPF about 0.725000 -0.143000 0.203000
DOCKED: USER    NEWDPF tran0 36.671798 11.552126 123.701704
DOCKED: USER    NEWDPF quaternion0 0.062991 0.389303 -0.636904 -0.662442
DOCKED: USER    NEWDPF axisangle0 0.084088 0.519685 -0.850210 -97.027292
DOCKED: USER    NEWDPF quat0 0.084088 0.519685 -0.850210 -97.027292
DOCKED: USER    NEWDPF dihe0 -169.19 80.53 -43.72 -80.21 -57.46 
DOCKED: USER  keepresnum = 1 
DOCKED: USER  
DOCKED: REMARK  Name = 
DOCKED: REMARK  5 active torsions:
DOCKED: REMARK  status: ('A' for Active; 'I' for Inactive)
DOCKED: REMARK    1  A    between atoms: O_1  and  N_2
DOCKED: REMARK    2  A    between atoms: C_3  and  C_4
DOCKED: REMARK    3  A    between atoms: C_4  and  C_5
DOCKED: REMARK    4  A    between atoms: C_5  and  C_6
DOCKED: REMARK    5  A    between atoms: C_6  and  C_7
DOCKED: REMARK                            x       y       z     vdW  Elec       q    Type
DOCKED: REMARK                         _______ _______ _______ _____ _____    ______ ____
DOCKED: USER                              x       y       z     vdW  Elec       q    Type
DOCKED: USER                           _______ _______ _______ _____ _____    ______ ____
DOCKED: ROOT
DOCKED: ATOM      1  C   UNL     1      36.620  11.790 123.117 -0.69 -0.00    +0.000 C 
DOCKED: ENDROOT
DOCKED: BRANCH   1   2
DOCKED: ATOM      2  C   UNL     1      36.769  11.086 121.766 -0.57 -0.00    +0.000 C 
DOCKED: BRANCH   2   4
DOCKED: ATOM      3  N   UNL     1      36.987   9.055 123.276 -0.62 -0.00    +0.000 N 
DOCKED: ATOM      4  C   UNL     1      36.933   9.609 121.959 -0.63 -0.00    +0.000 C 
DOCKED: ATOM      5  O   UNL     1      36.981   8.848 120.954 -2.69 -0.00    +0.000 OA
DOCKED: ATOM      6  H   UNL     1      36.924   9.649 124.058 -0.50 -0.00    +0.000 HD
DOCKED: BRANCH   3   7
DOCKED: ATOM      7  O   UNL     1      37.126   7.719 123.457 -2.27 -0.00    +0.000 OA
DOCKED: ATOM      8  H   UNL     1      37.345   7.300 122.609 -0.16 -0.00    +0.000 HD
DOCKED: ENDBRANCH   3   7
DOCKED: ENDBRANCH   2   4
DOCKED: ENDBRANCH   1   2
DOCKED: BRANCH   1   9
DOCKED: ATOM      9  C   UNL     1      37.467  13.066 123.169 -0.57 -0.00    +0.000 C 
DOCKED: BRANCH   9  10
DOCKED: ATOM     10  C   UNL     1      36.602  14.262 123.469 -0.45 -0.00    +0.000 A 
DOCKED: ATOM     11  C   UNL     1      35.255  14.089 123.831 -0.40 -0.00    +0.000 A 
DOCKED: ATOM     12  C   UNL     1      34.444  15.202 124.079 -0.52 -0.00    +0.000 A 
DOCKED: ATOM     13  C   UNL     1      34.969  16.492 123.957 -0.42 -0.00    +0.000 A 
DOCKED: ATOM     14  C   UNL     1      36.304  16.671 123.585 -0.29 -0.00    +0.000 A 
DOCKED: ATOM     15  C   UNL     1      37.119  15.562 123.337 -0.33 -0.00    +0.000 A 
DOCKED: ATOM     16  CM  UNL     1      35.783  15.379 123.709 +0.00 -0.00    +0.000 AC
DOCKED: ENDBRANCH   9  10
DOCKED: ENDBRANCH   1   9
DOCKED: TORSDOF 5DOCKED: TER
DOCKED: ENDMDL
________________________________________________________________________________


	BEGINNING GENETIC ALGORITHM DOCKING 35 of 100
Run: 35 Seed: 1943825280 579150620 [ Run 35 of 100 GA/GALS ]
Beginning LAMARCKIAN GENETIC ALGORITHM (LGA), with a maximum of 2500000 energy evaluations.

Final-Value: -11.588


	FINAL GENETIC ALGORITHM DOCKED STATE
	_______________________________________________


Detailed state:  trans 37.498 11.856 123.217 quatxyzw -0.353014 0.633962 -0.537985 -0.429004 center 0.725 -0.143 0.203 ntor 5 163.6952 159.2539 -45.6551 -127.2207 -63.6964
State:	 37.498  11.856 123.217  -0.391  0.702 -0.596 -129.191    163.70  159.25  -45.66 -127.22  -63.70

DOCKED: MODEL       35
DOCKED: USER    Run = 35
DOCKED: USER    DPF = ligand_dock.biased.dpf
DOCKED: USER  
DOCKED: USER    Estimated Free Energy of Binding    =   -9.26 kcal/mol  [=(1)+(2)+(3)-(4)]
DOCKED: USER    Estimated Inhibition Constant, Ki   =  161.99 nM (nanomolar)  [Temperature = 298.15 K]
DOCKED: USER    
DOCKED: USER    (1) Final Intermolecular Energy     =  -10.76 kcal/mol
DOCKED: USER        vdW + Hbond + desolv Energy     =  -10.76 kcal/mol
DOCKED: USER        Electrostatic Energy            =   +0.00 kcal/mol
DOCKED: USER    (2) Final Total Internal Energy     =   -0.83 kcal/mol
DOCKED: USER    (3) Torsional Free Energy           =   +1.49 kcal/mol
DOCKED: USER    (4) Unbound System's Energy  [=(2)] =   -0.83 kcal/mol
DOCKED: USER    
DOCKED: USER    
DOCKED: USER    NEWDPF move ligand.dum.pdbqt
DOCKED: USER    NEWDPF about 0.725000 -0.143000 0.203000
DOCKED: USER    NEWDPF tran0 37.498295 11.856438 123.217053
DOCKED: USER    NEWDPF quaternion0 -0.353014 0.633962 -0.537985 -0.429004
DOCKED: USER    NEWDPF axisangle0 -0.390804 0.701827 -0.595576 -129.191204
DOCKED: USER    NEWDPF quat0 -0.390804 0.701827 -0.595576 -129.191204
DOCKED: USER    NEWDPF dihe0 163.70 159.25 -45.66 -127.22 -63.70 
DOCKED: USER  keepresnum = 1 
DOCKED: USER  
DOCKED: REMARK  Name = 
DOCKED: REMARK  5 active torsions:
DOCKED: REMARK  status: ('A' for Active; 'I' for Inactive)
DOCKED: REMARK    1  A    between atoms: O_1  and  N_2
DOCKED: REMARK    2  A    between atoms: C_3  and  C_4
DOCKED: REMARK    3  A    between atoms: C_4  and  C_5
DOCKED: REMARK    4  A    between atoms: C_5  and  C_6
DOCKED: REMARK    5  A    between atoms: C_6  and  C_7
DOCKED: REMARK                            x       y       z     vdW  Elec       q    Type
DOCKED: REMARK                         _______ _______ _______ _____ _____    ______ ____
DOCKED: USER                              x       y       z     vdW  Elec       q    Type
DOCKED: USER                           _______ _______ _______ _____ _____    ______ ____
DOCKED: ROOT
DOCKED: ATOM      1  C   UNL     1      36.918  11.961 122.985 -0.66 -0.00    +0.000 C 
DOCKED: ENDROOT
DOCKED: BRANCH   1   2
DOCKED: ATOM      2  C   UNL     1      35.987  11.006 122.234 -0.63 -0.00    +0.000 C 
DOCKED: BRANCH   2   4
DOCKED: ATOM      3  N   UNL     1      36.574   8.781 123.312 -0.62 -0.00    +0.000 N 
DOCKED: ATOM      4  C   UNL     1      36.588   9.634 122.164 -0.69 -0.00    +0.000 C 
DOCKED: ATOM      5  O   UNL     1      37.069   9.217 121.076 -2.74 -0.00    +0.000 OA
DOCKED: ATOM      6  H   UNL     1      36.174   9.101 124.152 -0.28 -0.00    +0.000 HD
DOCKED: BRANCH   3   7
DOCKED: ATOM      7  O   UNL     1      37.108   7.537 123.252 -2.22 -0.00    +0.000 OA
DOCKED: ATOM      8  H   UNL     1      37.220   7.279 122.323 -0.12 -0.00    +0.000 HD
DOCKED: ENDBRANCH   3   7
DOCKED: ENDBRANCH   2   4
DOCKED: ENDBRANCH   1   2
DOCKED: BRANCH   1   9
DOCKED: ATOM      9  C   UNL     1      37.059  13.292 122.240 -0.51 -0.00    +0.000 C 
DOCKED: BRANCH   9  10
DOCKED: ATOM     10  C   UNL     1      36.506  14.422 123.068 -0.43 -0.00    +0.000 A 
DOCKED: ATOM     11  C   UNL     1      35.342  14.237 123.831 -0.45 -0.00    +0.000 A 
DOCKED: ATOM     12  C   UNL     1      34.811  15.296 124.574 -0.48 -0.00    +0.000 A 
DOCKED: ATOM     13  C   UNL     1      35.432  16.548 124.552 -0.34 -0.00    +0.000 A 
DOCKED: ATOM     14  C   UNL     1      36.584  16.742 123.784 -0.27 -0.00    +0.000 A 
DOCKED: ATOM     15  C   UNL     1      37.118  15.687 123.040 -0.32 -0.00    +0.000 A 
DOCKED: ATOM     16  CM  UNL     1      35.966  15.489 123.808 +0.00 -0.00    +0.000 AC
DOCKED: ENDBRANCH   9  10
DOCKED: ENDBRANCH   1   9
DOCKED: TORSDOF 5DOCKED: TER
DOCKED: ENDMDL
________________________________________________________________________________


	BEGINNING GENETIC ALGORITHM DOCKING 36 of 100
Run: 36 Seed: 1622558337 1113716025 [ Run 36 of 100 GA/GALS ]
Beginning LAMARCKIAN GENETIC ALGORITHM (LGA), with a maximum of 2500000 energy evaluations.

Final-Value: -11.183


	FINAL GENETIC ALGORITHM DOCKED STATE
	_______________________________________________


Detailed state:  trans 37.619 11.410 120.328 quatxyzw 0.554969 -0.781455 0.171309 -0.228013 center 0.725 -0.143 0.203 ntor 5 -153.3709 -139.7158 -13.9763 160.0025 -93.9573
State:	 37.619  11.410 120.328   0.570 -0.803  0.176 -153.640   -153.37 -139.72  -13.98  160.00  -93.96

DOCKED: MODEL       36
DOCKED: USER    Run = 36
DOCKED: USER    DPF = ligand_dock.biased.dpf
DOCKED: USER  
DOCKED: USER    Estimated Free Energy of Binding    =   -8.90 kcal/mol  [=(1)+(2)+(3)-(4)]
DOCKED: USER    Estimated Inhibition Constant, Ki   =  297.35 nM (nanomolar)  [Temperature = 298.15 K]
DOCKED: USER    
DOCKED: USER    (1) Final Intermolecular Energy     =  -10.40 kcal/mol
DOCKED: USER        vdW + Hbond + desolv Energy     =  -10.40 kcal/mol
DOCKED: USER        Electrostatic Energy            =   +0.00 kcal/mol
DOCKED: USER    (2) Final Total Internal Energy     =   -0.79 kcal/mol
DOCKED: USER    (3) Torsional Free Energy           =   +1.49 kcal/mol
DOCKED: USER    (4) Unbound System's Energy  [=(2)] =   -0.79 kcal/mol
DOCKED: USER    
DOCKED: USER    
DOCKED: USER    NEWDPF move ligand.dum.pdbqt
DOCKED: USER    NEWDPF about 0.725000 -0.143000 0.203000
DOCKED: USER    NEWDPF tran0 37.618769 11.409741 120.327713
DOCKED: USER    NEWDPF quaternion0 0.554969 -0.781455 0.171309 -0.228013
DOCKED: USER    NEWDPF axisangle0 0.569984 -0.802597 0.175944 -153.639717
DOCKED: USER    NEWDPF quat0 0.569984 -0.802597 0.175944 -153.639717
DOCKED: USER    NEWDPF dihe0 -153.37 -139.72 -13.98 160.00 -93.96 
DOCKED: USER  keepresnum = 1 
DOCKED: USER  
DOCKED: REMARK  Name = 
DOCKED: REMARK  5 active torsions:
DOCKED: REMARK  status: ('A' for Active; 'I' for Inactive)
DOCKED: REMARK    1  A    between atoms: O_1  and  N_2
DOCKED: REMARK    2  A    between atoms: C_3  and  C_4
DOCKED: REMARK    3  A    between atoms: C_4  and  C_5
DOCKED: REMARK    4  A    between atoms: C_5  and  C_6
DOCKED: REMARK    5  A    between atoms: C_6  and  C_7
DOCKED: REMARK                            x       y       z     vdW  Elec       q    Type
DOCKED: REMARK                         _______ _______ _______ _____ _____    ______ ____
DOCKED: USER                              x       y       z     vdW  Elec       q    Type
DOCKED: USER                           _______ _______ _______ _____ _____    ______ ____
DOCKED: ROOT
DOCKED: ATOM      1  C   UNL     1      37.441  11.650 120.886 -0.49 -0.00    +0.000 C 
DOCKED: ENDROOT
DOCKED: BRANCH   1   2
DOCKED: ATOM      2  C   UNL     1      36.607  11.008 121.998 -0.62 -0.00    +0.000 C 
DOCKED: BRANCH   2   4
DOCKED: ATOM      3  N   UNL     1      37.072   8.932 123.386 -0.61 -0.00    +0.000 N 
DOCKED: ATOM      4  C   UNL     1      36.913   9.544 122.104 -0.65 -0.00    +0.000 C 
DOCKED: ATOM      5  O   UNL     1      36.989   8.844 121.058 -2.68 -0.00    +0.000 OA
DOCKED: ATOM      6  H   UNL     1      36.987   9.477 124.201 -0.56 -0.00    +0.000 HD
DOCKED: BRANCH   3   7
DOCKED: ATOM      7  O   UNL     1      37.340   7.608 123.489 -2.13 -0.00    +0.000 OA
DOCKED: ATOM      8  H   UNL     1      37.795   7.308 122.686 -0.38 -0.00    +0.000 HD
DOCKED: ENDBRANCH   3   7
DOCKED: ENDBRANCH   2   4
DOCKED: ENDBRANCH   1   2
DOCKED: BRANCH   1   9
DOCKED: ATOM      9  C   UNL     1      36.904  13.040 120.528 -0.40 -0.00    +0.000 C 
DOCKED: BRANCH   9  10
DOCKED: ATOM     10  C   UNL     1      37.496  14.084 121.436 -0.35 -0.00    +0.000 A 
DOCKED: ATOM     11  C   UNL     1      36.689  14.745 122.377 -0.32 -0.00    +0.000 A 
DOCKED: ATOM     12  C   UNL     1      37.233  15.738 123.199 -0.31 -0.00    +0.000 A 
DOCKED: ATOM     13  C   UNL     1      38.582  16.085 123.080 -0.25 -0.00    +0.000 A 
DOCKED: ATOM     14  C   UNL     1      39.388  15.440 122.136 -0.31 -0.00    +0.000 A 
DOCKED: ATOM     15  C   UNL     1      38.848  14.447 121.313 -0.32 -0.00    +0.000 A 
DOCKED: ATOM     16  CM  UNL     1      38.039  15.090 122.257 +0.00 -0.00    +0.000 AC
DOCKED: ENDBRANCH   9  10
DOCKED: ENDBRANCH   1   9
DOCKED: TORSDOF 5DOCKED: TER
DOCKED: ENDMDL
________________________________________________________________________________


	BEGINNING GENETIC ALGORITHM DOCKING 37 of 100
Run: 37 Seed: 50823029 1170504258 [ Run 37 of 100 GA/GALS ]
Beginning LAMARCKIAN GENETIC ALGORITHM (LGA), with a maximum of 2500000 energy evaluations.

Final-Value: -11.650


	FINAL GENETIC ALGORITHM DOCKED STATE
	_______________________________________________


Detailed state:  trans 37.329 11.929 123.307 quatxyzw 0.330291 -0.601938 0.558568 0.465382 center 0.725 -0.143 0.203 ntor 5 179.6510 152.3725 -45.8769 -127.4113 -57.0667
State:	 37.329  11.929 123.307   0.373 -0.680  0.631 124.530    179.65  152.37  -45.88 -127.41  -57.07

DOCKED: MODEL       37
DOCKED: USER    Run = 37
DOCKED: USER    DPF = ligand_dock.biased.dpf
DOCKED: USER  
DOCKED: USER    Estimated Free Energy of Binding    =   -9.29 kcal/mol  [=(1)+(2)+(3)-(4)]
DOCKED: USER    Estimated Inhibition Constant, Ki   =  155.57 nM (nanomolar)  [Temperature = 298.15 K]
DOCKED: USER    
DOCKED: USER    (1) Final Intermolecular Energy     =  -10.78 kcal/mol
DOCKED: USER        vdW + Hbond + desolv Energy     =  -10.78 kcal/mol
DOCKED: USER        Electrostatic Energy            =   +0.00 kcal/mol
DOCKED: USER    (2) Final Total Internal Energy     =   -0.87 kcal/mol
DOCKED: USER    (3) Torsional Free Energy           =   +1.49 kcal/mol
DOCKED: USER    (4) Unbound System's Energy  [=(2)] =   -0.87 kcal/mol
DOCKED: USER    
DOCKED: USER    
DOCKED: USER    NEWDPF move ligand.dum.pdbqt
DOCKED: USER    NEWDPF about 0.725000 -0.143000 0.203000
DOCKED: USER    NEWDPF tran0 37.329492 11.928849 123.306975
DOCKED: USER    NEWDPF quaternion0 0.330291 -0.601938 0.558568 0.465382
DOCKED: USER    NEWDPF axisangle0 0.373164 -0.680072 0.631072 124.530156
DOCKED: USER    NEWDPF quat0 0.373164 -0.680072 0.631072 124.530156
DOCKED: USER    NEWDPF dihe0 179.65 152.37 -45.88 -127.41 -57.07 
DOCKED: USER  keepresnum = 1 
DOCKED: USER  
DOCKED: REMARK  Name = 
DOCKED: REMARK  5 active torsions:
DOCKED: REMARK  status: ('A' for Active; 'I' for Inactive)
DOCKED: REMARK    1  A    between atoms: O_1  and  N_2
DOCKED: REMARK    2  A    between atoms: C_3  and  C_4
DOCKED: REMARK    3  A    between atoms: C_4  and  C_5
DOCKED: REMARK    4  A    between atoms: C_5  and  C_6
DOCKED: REMARK    5  A    between atoms: C_6  and  C_7
DOCKED: REMARK                            x       y       z     vdW  Elec       q    Type
DOCKED: REMARK                         _______ _______ _______ _____ _____    ______ ____
DOCKED: USER                              x       y       z     vdW  Elec       q    Type
DOCKED: USER                           _______ _______ _______ _____ _____    ______ ____
DOCKED: ROOT
DOCKED: ATOM      1  C   UNL     1      36.778  12.021 123.010 -0.67 -0.00    +0.000 C 
DOCKED: ENDROOT
DOCKED: BRANCH   1   2
DOCKED: ATOM      2  C   UNL     1      35.951  11.040 122.174 -0.61 -0.00    +0.000 C 
DOCKED: BRANCH   2   4
DOCKED: ATOM      3  N   UNL     1      36.580   8.899 123.389 -0.58 -0.00    +0.000 N 
DOCKED: ATOM      4  C   UNL     1      36.578   9.678 122.190 -0.69 -0.00    +0.000 C 
DOCKED: ATOM      5  O   UNL     1      37.069   9.204 121.130 -2.74 -0.00    +0.000 OA
DOCKED: ATOM      6  H   UNL     1      36.173   9.262 124.208 -0.29 -0.00    +0.000 HD
DOCKED: BRANCH   3   7
DOCKED: ATOM      7  O   UNL     1      37.137   7.664 123.407 -2.25 -0.00    +0.000 OA
DOCKED: ATOM      8  H   UNL     1      37.486   7.455 122.526 -0.16 -0.00    +0.000 HD
DOCKED: ENDBRANCH   3   7
DOCKED: ENDBRANCH   2   4
DOCKED: ENDBRANCH   1   2
DOCKED: BRANCH   1   9
DOCKED: ATOM      9  C   UNL     1      36.983  13.343 122.264 -0.51 -0.00    +0.000 C 
DOCKED: BRANCH   9  10
DOCKED: ATOM     10  C   UNL     1      36.466  14.496 123.082 -0.43 -0.00    +0.000 A 
DOCKED: ATOM     11  C   UNL     1      35.284  14.363 123.828 -0.47 -0.00    +0.000 A 
DOCKED: ATOM     12  C   UNL     1      34.787  15.445 124.562 -0.49 -0.00    +0.000 A 
DOCKED: ATOM     13  C   UNL     1      35.462  16.669 124.548 -0.33 -0.00    +0.000 A 
DOCKED: ATOM     14  C   UNL     1      36.633  16.813 123.798 -0.27 -0.00    +0.000 A 
DOCKED: ATOM     15  C   UNL     1      37.132  15.734 123.062 -0.31 -0.00    +0.000 A 
DOCKED: ATOM     16  CM  UNL     1      35.961  15.587 123.813 +0.00 -0.00    +0.000 AC
DOCKED: ENDBRANCH   9  10
DOCKED: ENDBRANCH   1   9
DOCKED: TORSDOF 5DOCKED: TER
DOCKED: ENDMDL
________________________________________________________________________________


	BEGINNING GENETIC ALGORITHM DOCKING 38 of 100
Run: 38 Seed: 1265562519 2061668950 [ Run 38 of 100 GA/GALS ]
Beginning LAMARCKIAN GENETIC ALGORITHM (LGA), with a maximum of 2500000 energy evaluations.

Final-Value: -11.823


	FINAL GENETIC ALGORITHM DOCKED STATE
	_______________________________________________


Detailed state:  trans 37.185 11.582 123.947 quatxyzw -0.314426 0.566818 -0.182855 -0.739201 center 0.725 -0.143 0.203 ntor 5 -140.7753 97.5826 19.6616 -96.2964 97.9903
State:	 37.185  11.582 123.947  -0.467  0.842 -0.272 -84.673   -140.78   97.58   19.66  -96.30   97.99

DOCKED: MODEL       38
DOCKED: USER    Run = 38
DOCKED: USER    DPF = ligand_dock.biased.dpf
DOCKED: USER  
DOCKED: USER    Estimated Free Energy of Binding    =   -9.64 kcal/mol  [=(1)+(2)+(3)-(4)]
DOCKED: USER    Estimated Inhibition Constant, Ki   =   85.17 nM (nanomolar)  [Temperature = 298.15 K]
DOCKED: USER    
DOCKED: USER    (1) Final Intermolecular Energy     =  -11.14 kcal/mol
DOCKED: USER        vdW + Hbond + desolv Energy     =  -11.14 kcal/mol
DOCKED: USER        Electrostatic Energy            =   +0.00 kcal/mol
DOCKED: USER    (2) Final Total Internal Energy     =   -0.69 kcal/mol
DOCKED: USER    (3) Torsional Free Energy           =   +1.49 kcal/mol
DOCKED: USER    (4) Unbound System's Energy  [=(2)] =   -0.69 kcal/mol
DOCKED: USER    
DOCKED: USER    
DOCKED: USER    NEWDPF move ligand.dum.pdbqt
DOCKED: USER    NEWDPF about 0.725000 -0.143000 0.203000
DOCKED: USER    NEWDPF tran0 37.184558 11.581803 123.947037
DOCKED: USER    NEWDPF quaternion0 -0.314426 0.566818 -0.182855 -0.739201
DOCKED: USER    NEWDPF axisangle0 -0.466864 0.841619 -0.271506 -84.673215
DOCKED: USER    NEWDPF quat0 -0.466864 0.841619 -0.271506 -84.673215
DOCKED: USER    NEWDPF dihe0 -140.78 97.58 19.66 -96.30 97.99 
DOCKED: USER  keepresnum = 1 
DOCKED: USER  
DOCKED: REMARK  Name = 
DOCKED: REMARK  5 active torsions:
DOCKED: REMARK  status: ('A' for Active; 'I' for Inactive)
DOCKED: REMARK    1  A    between atoms: O_1  and  N_2
DOCKED: REMARK    2  A    between atoms: C_3  and  C_4
DOCKED: REMARK    3  A    between atoms: C_4  and  C_5
DOCKED: REMARK    4  A    between atoms: C_5  and  C_6
DOCKED: REMARK    5  A    between atoms: C_6  and  C_7
DOCKED: REMARK                            x       y       z     vdW  Elec       q    Type
DOCKED: REMARK                         _______ _______ _______ _____ _____    ______ ____
DOCKED: USER                              x       y       z     vdW  Elec       q    Type
DOCKED: USER                           _______ _______ _______ _____ _____    ______ ____
DOCKED: ROOT
DOCKED: ATOM      1  C   UNL     1      36.675  11.508 123.578 -0.70 -0.00    +0.000 C 
DOCKED: ENDROOT
DOCKED: BRANCH   1   2
DOCKED: ATOM      2  C   UNL     1      36.582  10.960 122.152 -0.64 -0.00    +0.000 C 
DOCKED: BRANCH   2   4
DOCKED: ATOM      3  N   UNL     1      36.862   8.739 123.354 -0.64 -0.00    +0.000 N 
DOCKED: ATOM      4  C   UNL     1      36.865   9.488 122.136 -0.66 -0.00    +0.000 C 
DOCKED: ATOM      5  O   UNL     1      37.066   8.902 121.038 -2.71 -0.00    +0.000 OA
DOCKED: ATOM      6  H   UNL     1      36.680   9.196 124.207 -0.47 -0.00    +0.000 HD
DOCKED: BRANCH   3   7
DOCKED: ATOM      7  O   UNL     1      37.109   7.407 123.345 -2.13 -0.00    +0.000 OA
DOCKED: ATOM      8  H   UNL     1      37.811   7.214 122.704 -0.43 -0.00    +0.000 HD
DOCKED: ENDBRANCH   3   7
DOCKED: ENDBRANCH   2   4
DOCKED: ENDBRANCH   1   2
DOCKED: BRANCH   1   9
DOCKED: ATOM      9  C   UNL     1      35.941  12.848 123.701 -0.61 -0.00    +0.000 C 
DOCKED: BRANCH   9  10
DOCKED: ATOM     10  C   UNL     1      36.814  13.975 123.216 -0.47 -0.00    +0.000 A 
DOCKED: ATOM     11  C   UNL     1      38.159  13.739 122.888 -0.43 -0.00    +0.000 A 
DOCKED: ATOM     12  C   UNL     1      38.977  14.793 122.468 -0.37 -0.00    +0.000 A 
DOCKED: ATOM     13  C   UNL     1      38.461  16.089 122.382 -0.24 -0.00    +0.000 A 
DOCKED: ATOM     14  C   UNL     1      37.126  16.333 122.718 -0.25 -0.00    +0.000 A 
DOCKED: ATOM     15  C   UNL     1      36.305  15.283 123.139 -0.38 -0.00    +0.000 A 
DOCKED: ATOM     16  CM  UNL     1      37.640  15.035 122.802 +0.00 -0.00    +0.000 AC
DOCKED: ENDBRANCH   9  10
DOCKED: ENDBRANCH   1   9
DOCKED: TORSDOF 5DOCKED: TER
DOCKED: ENDMDL
________________________________________________________________________________


	BEGINNING GENETIC ALGORITHM DOCKING 39 of 100
Run: 39 Seed: 1715651283 839656232 [ Run 39 of 100 GA/GALS ]
Beginning LAMARCKIAN GENETIC ALGORITHM (LGA), with a maximum of 2500000 energy evaluations.

Final-Value: -11.117


	FINAL GENETIC ALGORITHM DOCKED STATE
	_______________________________________________


Detailed state:  trans 36.224 11.546 124.221 quatxyzw 0.128990 -0.167413 0.352492 0.911638 center 0.725 -0.143 0.203 ntor 5 -174.3145 13.5399 39.9996 3.4373 158.3387
State:	 36.224  11.546 124.221   0.314 -0.407  0.858 48.535   -174.31   13.54   40.00    3.44  158.34

DOCKED: MODEL       39
DOCKED: USER    Run = 39
DOCKED: USER    DPF = ligand_dock.biased.dpf
DOCKED: USER  
DOCKED: USER    Estimated Free Energy of Binding    =   -8.68 kcal/mol  [=(1)+(2)+(3)-(4)]
DOCKED: USER    Estimated Inhibition Constant, Ki   =  437.40 nM (nanomolar)  [Temperature = 298.15 K]
DOCKED: USER    
DOCKED: USER    (1) Final Intermolecular Energy     =  -10.17 kcal/mol
DOCKED: USER        vdW + Hbond + desolv Energy     =  -10.17 kcal/mol
DOCKED: USER        Electrostatic Energy            =   +0.00 kcal/mol
DOCKED: USER    (2) Final Total Internal Energy     =   -0.95 kcal/mol
DOCKED: USER    (3) Torsional Free Energy           =   +1.49 kcal/mol
DOCKED: USER    (4) Unbound System's Energy  [=(2)] =   -0.95 kcal/mol
DOCKED: USER    
DOCKED: USER    
DOCKED: USER    NEWDPF move ligand.dum.pdbqt
DOCKED: USER    NEWDPF about 0.725000 -0.143000 0.203000
DOCKED: USER    NEWDPF tran0 36.224037 11.546183 124.220910
DOCKED: USER    NEWDPF quaternion0 0.128990 -0.167413 0.352492 0.911638
DOCKED: USER    NEWDPF axisangle0 0.313850 -0.407337 0.857657 48.534642
DOCKED: USER    NEWDPF quat0 0.313850 -0.407337 0.857657 48.534642
DOCKED: USER    NEWDPF dihe0 -174.31 13.54 40.00 3.44 158.34 
DOCKED: USER  keepresnum = 1 
DOCKED: USER  
DOCKED: REMARK  Name = 
DOCKED: REMARK  5 active torsions:
DOCKED: REMARK  status: ('A' for Active; 'I' for Inactive)
DOCKED: REMARK    1  A    between atoms: O_1  and  N_2
DOCKED: REMARK    2  A    between atoms: C_3  and  C_4
DOCKED: REMARK    3  A    between atoms: C_4  and  C_5
DOCKED: REMARK    4  A    between atoms: C_5  and  C_6
DOCKED: REMARK    5  A    between atoms: C_6  and  C_7
DOCKED: REMARK                            x       y       z     vdW  Elec       q    Type
DOCKED: REMARK                         _______ _______ _______ _____ _____    ______ ____
DOCKED: USER                              x       y       z     vdW  Elec       q    Type
DOCKED: USER                           _______ _______ _______ _____ _____    ______ ____
DOCKED: ROOT
DOCKED: ATOM      1  C   UNL     1      36.258  11.538 123.589 -0.70 -0.00    +0.000 C 
DOCKED: ENDROOT
DOCKED: BRANCH   1   2
DOCKED: ATOM      2  C   UNL     1      37.352  10.964 122.684 -0.23 -0.00    +0.000 C 
DOCKED: BRANCH   2   4
DOCKED: ATOM      3  N   UNL     1      37.161   8.525 123.369 -0.66 -0.00    +0.000 N 
DOCKED: ATOM      4  C   UNL     1      37.064   9.530 122.357 -0.61 -0.00    +0.000 C 
DOCKED: ATOM      5  O   UNL     1      36.694   9.217 121.193 -2.63 -0.00    +0.000 OA
DOCKED: ATOM      6  H   UNL     1      37.426   8.778 124.283 -0.57 -0.00    +0.000 HD
DOCKED: BRANCH   3   7
DOCKED: ATOM      7  O   UNL     1      36.894   7.228 123.082 -1.99 -0.00    +0.000 OA
DOCKED: ATOM      8  H   UNL     1      36.738   7.136 122.128 -0.07 -0.00    +0.000 HD
DOCKED: ENDBRANCH   3   7
DOCKED: ENDBRANCH   2   4
DOCKED: ENDBRANCH   1   2
DOCKED: BRANCH   1   9
DOCKED: ATOM      9  C   UNL     1      35.910  12.975 123.188 -0.53 -0.00    +0.000 C 
DOCKED: BRANCH   9  10
DOCKED: ATOM     10  C   UNL     1      37.041  13.596 122.412 -0.45 -0.00    +0.000 A 
DOCKED: ATOM     11  C   UNL     1      37.065  13.519 121.009 -0.35 -0.00    +0.000 A 
DOCKED: ATOM     12  C   UNL     1      38.133  14.068 120.292 -0.31 -0.00    +0.000 A 
DOCKED: ATOM     13  C   UNL     1      39.187  14.687 120.968 -0.27 -0.00    +0.000 A 
DOCKED: ATOM     14  C   UNL     1      39.176  14.756 122.365 -0.37 -0.00    +0.000 A 
DOCKED: ATOM     15  C   UNL     1      38.111  14.209 123.086 -0.41 -0.00    +0.000 A 
DOCKED: ATOM     16  CM  UNL     1      38.119  14.139 121.689 +0.00 -0.00    +0.000 AC
DOCKED: ENDBRANCH   9  10
DOCKED: ENDBRANCH   1   9
DOCKED: TORSDOF 5DOCKED: TER
DOCKED: ENDMDL
________________________________________________________________________________


	BEGINNING GENETIC ALGORITHM DOCKING 40 of 100
Run: 40 Seed: 1191190997 783743828 [ Run 40 of 100 GA/GALS ]
Beginning LAMARCKIAN GENETIC ALGORITHM (LGA), with a maximum of 2500000 energy evaluations.

Final-Value: -11.693


	FINAL GENETIC ALGORITHM DOCKED STATE
	_______________________________________________


Detailed state:  trans 37.232 11.677 123.475 quatxyzw 0.441812 -0.682555 0.189930 0.550315 center 0.725 -0.143 0.203 ntor 5 -178.8199 136.3905 -0.6122 106.8663 57.5063
State:	 37.232  11.677 123.475   0.529 -0.817  0.227 113.223   -178.82  136.39   -0.61  106.87   57.51

DOCKED: MODEL       40
DOCKED: USER    Run = 40
DOCKED: USER    DPF = ligand_dock.biased.dpf
DOCKED: USER  
DOCKED: USER    Estimated Free Energy of Binding    =   -9.30 kcal/mol  [=(1)+(2)+(3)-(4)]
DOCKED: USER    Estimated Inhibition Constant, Ki   =  151.72 nM (nanomolar)  [Temperature = 298.15 K]
DOCKED: USER    
DOCKED: USER    (1) Final Intermolecular Energy     =  -10.79 kcal/mol
DOCKED: USER        vdW + Hbond + desolv Energy     =  -10.79 kcal/mol
DOCKED: USER        Electrostatic Energy            =   +0.00 kcal/mol
DOCKED: USER    (2) Final Total Internal Energy     =   -0.90 kcal/mol
DOCKED: USER    (3) Torsional Free Energy           =   +1.49 kcal/mol
DOCKED: USER    (4) Unbound System's Energy  [=(2)] =   -0.90 kcal/mol
DOCKED: USER    
DOCKED: USER    
DOCKED: USER    NEWDPF move ligand.dum.pdbqt
DOCKED: USER    NEWDPF about 0.725000 -0.143000 0.203000
DOCKED: USER    NEWDPF tran0 37.232057 11.676894 123.474812
DOCKED: USER    NEWDPF quaternion0 0.441812 -0.682555 0.189930 0.550315
DOCKED: USER    NEWDPF axisangle0 0.529144 -0.817474 0.227473 113.222715
DOCKED: USER    NEWDPF quat0 0.529144 -0.817474 0.227473 113.222715
DOCKED: USER    NEWDPF dihe0 -178.82 136.39 -0.61 106.87 57.51 
DOCKED: USER  keepresnum = 1 
DOCKED: USER  
DOCKED: REMARK  Name = 
DOCKED: REMARK  5 active torsions:
DOCKED: REMARK  status: ('A' for Active; 'I' for Inactive)
DOCKED: REMARK    1  A    between atoms: O_1  and  N_2
DOCKED: REMARK    2  A    between atoms: C_3  and  C_4
DOCKED: REMARK    3  A    between atoms: C_4  and  C_5
DOCKED: REMARK    4  A    between atoms: C_5  and  C_6
DOCKED: REMARK    5  A    between atoms: C_6  and  C_7
DOCKED: REMARK                            x       y       z     vdW  Elec       q    Type
DOCKED: REMARK                         _______ _______ _______ _____ _____    ______ ____
DOCKED: USER                              x       y       z     vdW  Elec       q    Type
DOCKED: USER                           _______ _______ _______ _____ _____    ______ ____
DOCKED: ROOT
DOCKED: ATOM      1  C   UNL     1      36.620  11.543 123.382 -0.70 -0.00    +0.000 C 
DOCKED: ENDROOT
DOCKED: BRANCH   1   2
DOCKED: ATOM      2  C   UNL     1      35.972  10.647 122.324 -0.66 -0.00    +0.000 C 
DOCKED: BRANCH   2   4
DOCKED: ATOM      3  N   UNL     1      36.827   8.540 123.457 -0.65 -0.00    +0.000 N 
DOCKED: ATOM      4  C   UNL     1      36.661   9.317 122.269 -0.72 -0.00    +0.000 C 
DOCKED: ATOM      5  O   UNL     1      37.059   8.865 121.161 -2.69 -0.00    +0.000 OA
DOCKED: ATOM      6  H   UNL     1      36.492   8.885 124.316 -0.34 -0.00    +0.000 HD
DOCKED: BRANCH   3   7
DOCKED: ATOM      7  O   UNL     1      37.442   7.333 123.412 -1.96 -0.00    +0.000 OA
DOCKED: ATOM      8  H   UNL     1      37.726   7.151 122.503 -0.32 -0.00    +0.000 HD
DOCKED: ENDBRANCH   3   7
DOCKED: ENDBRANCH   2   4
DOCKED: ENDBRANCH   1   2
DOCKED: BRANCH   1   9
DOCKED: ATOM      9  C   UNL     1      35.936  12.913 123.437 -0.62 -0.00    +0.000 C 
DOCKED: BRANCH   9  10
DOCKED: ATOM     10  C   UNL     1      36.935  14.012 123.190 -0.46 -0.00    +0.000 A 
DOCKED: ATOM     11  C   UNL     1      36.618  15.343 123.508 -0.37 -0.00    +0.000 A 
DOCKED: ATOM     12  C   UNL     1      37.535  16.367 123.248 -0.26 -0.00    +0.000 A 
DOCKED: ATOM     13  C   UNL     1      38.768  16.071 122.660 -0.26 -0.00    +0.000 A 
DOCKED: ATOM     14  C   UNL     1      39.085  14.750 122.330 -0.38 -0.00    +0.000 A 
DOCKED: ATOM     15  C   UNL     1      38.172  13.723 122.587 -0.42 -0.00    +0.000 A 
DOCKED: ATOM     16  CM  UNL     1      37.852  15.044 122.920 +0.00 -0.00    +0.000 AC
DOCKED: ENDBRANCH   9  10
DOCKED: ENDBRANCH   1   9
DOCKED: TORSDOF 5DOCKED: TER
DOCKED: ENDMDL
________________________________________________________________________________


	BEGINNING GENETIC ALGORITHM DOCKING 41 of 100
Run: 41 Seed: 1853704885 192415972 [ Run 41 of 100 GA/GALS ]
Beginning LAMARCKIAN GENETIC ALGORITHM (LGA), with a maximum of 2500000 energy evaluations.

Final-Value: -11.195


	FINAL GENETIC ALGORITHM DOCKED STATE
	_______________________________________________


Detailed state:  trans 37.595 11.325 120.039 quatxyzw 0.518688 -0.796221 0.143448 -0.276436 center 0.725 -0.143 0.203 ntor 5 -150.8725 -134.3683 -9.6494 -177.0640 -112.7454
State:	 37.595  11.325 120.039   0.540 -0.829  0.149 -147.905   -150.87 -134.37   -9.65 -177.06 -112.75

DOCKED: MODEL       41
DOCKED: USER    Run = 41
DOCKED: USER    DPF = ligand_dock.biased.dpf
DOCKED: USER  
DOCKED: USER    Estimated Free Energy of Binding    =   -8.93 kcal/mol  [=(1)+(2)+(3)-(4)]
DOCKED: USER    Estimated Inhibition Constant, Ki   =  284.87 nM (nanomolar)  [Temperature = 298.15 K]
DOCKED: USER    
DOCKED: USER    (1) Final Intermolecular Energy     =  -10.42 kcal/mol
DOCKED: USER        vdW + Hbond + desolv Energy     =  -10.42 kcal/mol
DOCKED: USER        Electrostatic Energy            =   +0.00 kcal/mol
DOCKED: USER    (2) Final Total Internal Energy     =   -0.77 kcal/mol
DOCKED: USER    (3) Torsional Free Energy           =   +1.49 kcal/mol
DOCKED: USER    (4) Unbound System's Energy  [=(2)] =   -0.77 kcal/mol
DOCKED: USER    
DOCKED: USER    
DOCKED: USER    NEWDPF move ligand.dum.pdbqt
DOCKED: USER    NEWDPF about 0.725000 -0.143000 0.203000
DOCKED: USER    NEWDPF tran0 37.594726 11.325497 120.039222
DOCKED: USER    NEWDPF quaternion0 0.518688 -0.796221 0.143448 -0.276436
DOCKED: USER    NEWDPF axisangle0 0.539720 -0.828506 0.149265 -147.904803
DOCKED: USER    NEWDPF quat0 0.539720 -0.828506 0.149265 -147.904803
DOCKED: USER    NEWDPF dihe0 -150.87 -134.37 -9.65 -177.06 -112.75 
DOCKED: USER  keepresnum = 1 
DOCKED: USER  
DOCKED: REMARK  Name = 
DOCKED: REMARK  5 active torsions:
DOCKED: REMARK  status: ('A' for Active; 'I' for Inactive)
DOCKED: REMARK    1  A    between atoms: O_1  and  N_2
DOCKED: REMARK    2  A    between atoms: C_3  and  C_4
DOCKED: REMARK    3  A    between atoms: C_4  and  C_5
DOCKED: REMARK    4  A    between atoms: C_5  and  C_6
DOCKED: REMARK    5  A    between atoms: C_6  and  C_7
DOCKED: REMARK                            x       y       z     vdW  Elec       q    Type
DOCKED: REMARK                         _______ _______ _______ _____ _____    ______ ____
DOCKED: USER                              x       y       z     vdW  Elec       q    Type
DOCKED: USER                           _______ _______ _______ _____ _____    ______ ____
DOCKED: ROOT
DOCKED: ATOM      1  C   UNL     1      37.492  11.592 120.604 -0.45 -0.00    +0.000 C 
DOCKED: ENDROOT
DOCKED: BRANCH   1   2
DOCKED: ATOM      2  C   UNL     1      36.699  11.059 121.800 -0.58 -0.00    +0.000 C 
DOCKED: BRANCH   2   4
DOCKED: ATOM      3  N   UNL     1      37.042   9.032 123.294 -0.62 -0.00    +0.000 N 
DOCKED: ATOM      4  C   UNL     1      36.947   9.592 121.981 -0.63 -0.00    +0.000 C 
DOCKED: ATOM      5  O   UNL     1      37.030   8.842 120.971 -2.70 -0.00    +0.000 OA
DOCKED: ATOM      6  H   UNL     1      36.951   9.617 124.080 -0.52 -0.00    +0.000 HD
DOCKED: BRANCH   3   7
DOCKED: ATOM      7  O   UNL     1      37.257   7.706 123.464 -2.22 -0.00    +0.000 OA
DOCKED: ATOM      8  H   UNL     1      37.761   7.362 122.709 -0.36 -0.00    +0.000 HD
DOCKED: ENDBRANCH   3   7
DOCKED: ENDBRANCH   2   4
DOCKED: ENDBRANCH   1   2
DOCKED: BRANCH   1   9
DOCKED: ATOM      9  C   UNL     1      37.069  13.024 120.258 -0.46 -0.00    +0.000 C 
DOCKED: BRANCH   9  10
DOCKED: ATOM     10  C   UNL     1      37.472  13.973 121.355 -0.36 -0.00    +0.000 A 
DOCKED: ATOM     11  C   UNL     1      36.609  14.213 122.437 -0.32 -0.00    +0.000 A 
DOCKED: ATOM     12  C   UNL     1      36.970  15.120 123.439 -0.37 -0.00    +0.000 A 
DOCKED: ATOM     13  C   UNL     1      38.189  15.799 123.362 -0.21 -0.00    +0.000 A 
DOCKED: ATOM     14  C   UNL     1      39.047  15.575 122.281 -0.29 -0.00    +0.000 A 
DOCKED: ATOM     15  C   UNL     1      38.690  14.670 121.277 -0.31 -0.00    +0.000 A 
DOCKED: ATOM     16  CM  UNL     1      37.830  14.892 122.358 +0.00 -0.00    +0.000 AC
DOCKED: ENDBRANCH   9  10
DOCKED: ENDBRANCH   1   9
DOCKED: TORSDOF 5DOCKED: TER
DOCKED: ENDMDL
________________________________________________________________________________


	BEGINNING GENETIC ALGORITHM DOCKING 42 of 100
Run: 42 Seed: 2022004879 1324997510 [ Run 42 of 100 GA/GALS ]
Beginning LAMARCKIAN GENETIC ALGORITHM (LGA), with a maximum of 2500000 energy evaluations.

Final-Value: -11.932


	FINAL GENETIC ALGORITHM DOCKED STATE
	_______________________________________________


Detailed state:  trans 37.398 11.924 123.549 quatxyzw -0.458981 0.522767 0.017226 -0.718160 center 0.725 -0.143 0.203 ntor 5 -159.7045 87.5933 57.6410 -81.5092 73.6937
State:	 37.398  11.924 123.549  -0.660  0.751  0.025 -88.194   -159.70   87.59   57.64  -81.51   73.69

DOCKED: MODEL       42
DOCKED: USER    Run = 42
DOCKED: USER    DPF = ligand_dock.biased.dpf
DOCKED: USER  
DOCKED: USER    Estimated Free Energy of Binding    =   -9.61 kcal/mol  [=(1)+(2)+(3)-(4)]
DOCKED: USER    Estimated Inhibition Constant, Ki   =   90.03 nM (nanomolar)  [Temperature = 298.15 K]
DOCKED: USER    
DOCKED: USER    (1) Final Intermolecular Energy     =  -11.10 kcal/mol
DOCKED: USER        vdW + Hbond + desolv Energy     =  -11.10 kcal/mol
DOCKED: USER        Electrostatic Energy            =   +0.00 kcal/mol
DOCKED: USER    (2) Final Total Internal Energy     =   -0.83 kcal/mol
DOCKED: USER    (3) Torsional Free Energy           =   +1.49 kcal/mol
DOCKED: USER    (4) Unbound System's Energy  [=(2)] =   -0.83 kcal/mol
DOCKED: USER    
DOCKED: USER    
DOCKED: USER    NEWDPF move ligand.dum.pdbqt
DOCKED: USER    NEWDPF about 0.725000 -0.143000 0.203000
DOCKED: USER    NEWDPF tran0 37.398326 11.924462 123.549278
DOCKED: USER    NEWDPF quaternion0 -0.458981 0.522767 0.017226 -0.718160
DOCKED: USER    NEWDPF axisangle0 -0.659572 0.751234 0.024754 -88.194371
DOCKED: USER    NEWDPF quat0 -0.659572 0.751234 0.024754 -88.194371
DOCKED: USER    NEWDPF dihe0 -159.70 87.59 57.64 -81.51 73.69 
DOCKED: USER  keepresnum = 1 
DOCKED: USER  
DOCKED: REMARK  Name = 
DOCKED: REMARK  5 active torsions:
DOCKED: REMARK  status: ('A' for Active; 'I' for Inactive)
DOCKED: REMARK    1  A    between atoms: O_1  and  N_2
DOCKED: REMARK    2  A    between atoms: C_3  and  C_4
DOCKED: REMARK    3  A    between atoms: C_4  and  C_5
DOCKED: REMARK    4  A    between atoms: C_5  and  C_6
DOCKED: REMARK    5  A    between atoms: C_6  and  C_7
DOCKED: REMARK                            x       y       z     vdW  Elec       q    Type
DOCKED: REMARK                         _______ _______ _______ _____ _____    ______ ____
DOCKED: USER                              x       y       z     vdW  Elec       q    Type
DOCKED: USER                           _______ _______ _______ _____ _____    ______ ____
DOCKED: ROOT
DOCKED: ATOM      1  C   UNL     1      36.939  11.606 123.252 -0.68 -0.00    +0.000 C 
DOCKED: ENDROOT
DOCKED: BRANCH   1   2
DOCKED: ATOM      2  C   UNL     1      36.929  11.007 121.843 -0.56 -0.00    +0.000 C 
DOCKED: BRANCH   2   4
DOCKED: ATOM      3  N   UNL     1      36.998   8.842 123.169 -0.67 -0.00    +0.000 N 
DOCKED: ATOM      4  C   UNL     1      37.017   9.512 121.907 -0.62 -0.00    +0.000 C 
DOCKED: ATOM      5  O   UNL     1      37.067   8.843 120.839 -2.72 -0.00    +0.000 OA
DOCKED: ATOM      6  H   UNL     1      36.934   9.366 123.999 -0.50 -0.00    +0.000 HD
DOCKED: BRANCH   3   7
DOCKED: ATOM      7  O   UNL     1      37.069   7.490 123.232 -2.21 -0.00    +0.000 OA
DOCKED: ATOM      8  H   UNL     1      37.443   7.148 122.404 -0.20 -0.00    +0.000 HD
DOCKED: ENDBRANCH   3   7
DOCKED: ENDBRANCH   2   4
DOCKED: ENDBRANCH   1   2
DOCKED: BRANCH   1   9
DOCKED: ATOM      9  C   UNL     1      35.689  12.456 123.498 -0.53 -0.00    +0.000 C 
DOCKED: BRANCH   9  10
DOCKED: ATOM     10  C   UNL     1      36.035  13.921 123.479 -0.49 -0.00    +0.000 A 
DOCKED: ATOM     11  C   UNL     1      37.324  14.341 123.110 -0.43 -0.00    +0.000 A 
DOCKED: ATOM     12  C   UNL     1      37.654  15.700 123.123 -0.30 -0.00    +0.000 A 
DOCKED: ATOM     13  C   UNL     1      36.704  16.647 123.515 -0.27 -0.00    +0.000 A 
DOCKED: ATOM     14  C   UNL     1      35.423  16.236 123.895 -0.40 -0.00    +0.000 A 
DOCKED: ATOM     15  C   UNL     1      35.089  14.879 123.884 -0.50 -0.00    +0.000 A 
DOCKED: ATOM     16  CM  UNL     1      36.371  15.287 123.501 +0.00 -0.00    +0.000 AC
DOCKED: ENDBRANCH   9  10
DOCKED: ENDBRANCH   1   9
DOCKED: TORSDOF 5DOCKED: TER
DOCKED: ENDMDL
________________________________________________________________________________


	BEGINNING GENETIC ALGORITHM DOCKING 43 of 100
Run: 43 Seed: 1660479697 554316887 [ Run 43 of 100 GA/GALS ]
Beginning LAMARCKIAN GENETIC ALGORITHM (LGA), with a maximum of 2500000 energy evaluations.

Final-Value: -11.465


	FINAL GENETIC ALGORITHM DOCKED STATE
	_______________________________________________


Detailed state:  trans 36.595 12.202 121.707 quatxyzw -0.457142 0.755855 0.466739 0.043126 center 0.725 -0.143 0.203 ntor 5 -170.6580 -166.8329 73.2150 18.5741 23.3851
State:	 36.595  12.202 121.707  -0.458  0.757  0.467 175.057   -170.66 -166.83   73.21   18.57   23.39

DOCKED: MODEL       43
DOCKED: USER    Run = 43
DOCKED: USER    DPF = ligand_dock.biased.dpf
DOCKED: USER  
DOCKED: USER    Estimated Free Energy of Binding    =   -9.11 kcal/mol  [=(1)+(2)+(3)-(4)]
DOCKED: USER    Estimated Inhibition Constant, Ki   =  209.83 nM (nanomolar)  [Temperature = 298.15 K]
DOCKED: USER    
DOCKED: USER    (1) Final Intermolecular Energy     =  -10.60 kcal/mol
DOCKED: USER        vdW + Hbond + desolv Energy     =  -10.60 kcal/mol
DOCKED: USER        Electrostatic Energy            =   +0.00 kcal/mol
DOCKED: USER    (2) Final Total Internal Energy     =   -0.86 kcal/mol
DOCKED: USER    (3) Torsional Free Energy           =   +1.49 kcal/mol
DOCKED: USER    (4) Unbound System's Energy  [=(2)] =   -0.86 kcal/mol
DOCKED: USER    
DOCKED: USER    
DOCKED: USER    NEWDPF move ligand.dum.pdbqt
DOCKED: USER    NEWDPF about 0.725000 -0.143000 0.203000
DOCKED: USER    NEWDPF tran0 36.594988 12.201842 121.706611
DOCKED: USER    NEWDPF quaternion0 -0.457142 0.755855 0.466739 0.043126
DOCKED: USER    NEWDPF axisangle0 -0.457567 0.756559 0.467174 175.056584
DOCKED: USER    NEWDPF quat0 -0.457567 0.756559 0.467174 175.056584
DOCKED: USER    NEWDPF dihe0 -170.66 -166.83 73.21 18.57 23.39 
DOCKED: USER  keepresnum = 1 
DOCKED: USER  
DOCKED: REMARK  Name = 
DOCKED: REMARK  5 active torsions:
DOCKED: REMARK  status: ('A' for Active; 'I' for Inactive)
DOCKED: REMARK    1  A    between atoms: O_1  and  N_2
DOCKED: REMARK    2  A    between atoms: C_3  and  C_4
DOCKED: REMARK    3  A    between atoms: C_4  and  C_5
DOCKED: REMARK    4  A    between atoms: C_5  and  C_6
DOCKED: REMARK    5  A    between atoms: C_6  and  C_7
DOCKED: REMARK                            x       y       z     vdW  Elec       q    Type
DOCKED: REMARK                         _______ _______ _______ _____ _____    ______ ____
DOCKED: USER                              x       y       z     vdW  Elec       q    Type
DOCKED: USER                           _______ _______ _______ _____ _____    ______ ____
DOCKED: ROOT
DOCKED: ATOM      1  C   UNL     1      36.622  11.741 122.140 -0.61 -0.00    +0.000 C 
DOCKED: ENDROOT
DOCKED: BRANCH   1   2
DOCKED: ATOM      2  C   UNL     1      35.701  10.532 122.329 -0.65 -0.00    +0.000 C 
DOCKED: BRANCH   2   4
DOCKED: ATOM      3  N   UNL     1      36.676   8.477 123.459 -0.65 -0.00    +0.000 N 
DOCKED: ATOM      4  C   UNL     1      36.489   9.259 122.277 -0.72 -0.00    +0.000 C 
DOCKED: ATOM      5  O   UNL     1      36.954   8.856 121.176 -2.67 -0.00    +0.000 OA
DOCKED: ATOM      6  H   UNL     1      36.291   8.782 124.312 -0.26 -0.00    +0.000 HD
DOCKED: BRANCH   3   7
DOCKED: ATOM      7  O   UNL     1      37.381   7.320 123.417 -1.97 -0.00    +0.000 OA
DOCKED: ATOM      8  H   UNL     1      37.813   7.238 122.552 -0.32 -0.00    +0.000 HD
DOCKED: ENDBRANCH   3   7
DOCKED: ENDBRANCH   2   4
DOCKED: ENDBRANCH   1   2
DOCKED: BRANCH   1   9
DOCKED: ATOM      9  C   UNL     1      36.819  12.494 123.459 -0.67 -0.00    +0.000 C 
DOCKED: BRANCH   9  10
DOCKED: ATOM     10  C   UNL     1      37.211  13.924 123.198 -0.46 -0.00    +0.000 A 
DOCKED: ATOM     11  C   UNL     1      36.292  14.963 123.421 -0.42 -0.00    +0.000 A 
DOCKED: ATOM     12  C   UNL     1      36.646  16.288 123.147 -0.29 -0.00    +0.000 A 
DOCKED: ATOM     13  C   UNL     1      37.915  16.583 122.640 -0.21 -0.00    +0.000 A 
DOCKED: ATOM     14  C   UNL     1      38.830  15.553 122.404 -0.30 -0.00    +0.000 A 
DOCKED: ATOM     15  C   UNL     1      38.480  14.227 122.675 -0.41 -0.00    +0.000 A 
DOCKED: ATOM     16  CM  UNL     1      37.562  15.256 122.914 +0.00 -0.00    +0.000 AC
DOCKED: ENDBRANCH   9  10
DOCKED: ENDBRANCH   1   9
DOCKED: TORSDOF 5DOCKED: TER
DOCKED: ENDMDL
________________________________________________________________________________


	BEGINNING GENETIC ALGORITHM DOCKING 44 of 100
Run: 44 Seed: 148626271 542610733 [ Run 44 of 100 GA/GALS ]
Beginning LAMARCKIAN GENETIC ALGORITHM (LGA), with a maximum of 2500000 energy evaluations.

Final-Value: -11.782


	FINAL GENETIC ALGORITHM DOCKED STATE
	_______________________________________________


Detailed state:  trans 36.966 12.282 122.137 quatxyzw -0.525131 0.755136 0.361633 -0.152410 center 0.725 -0.143 0.203 ntor 5 -157.4648 -180.0000 62.5903 31.4528 58.9871
State:	 36.966  12.282 122.137  -0.531  0.764  0.366 -162.467   -157.46 -180.00   62.59   31.45   58.99

DOCKED: MODEL       44
DOCKED: USER    Run = 44
DOCKED: USER    DPF = ligand_dock.biased.dpf
DOCKED: USER  
DOCKED: USER    Estimated Free Energy of Binding    =   -9.49 kcal/mol  [=(1)+(2)+(3)-(4)]
DOCKED: USER    Estimated Inhibition Constant, Ki   =  110.76 nM (nanomolar)  [Temperature = 298.15 K]
DOCKED: USER    
DOCKED: USER    (1) Final Intermolecular Energy     =  -10.98 kcal/mol
DOCKED: USER        vdW + Hbond + desolv Energy     =  -10.98 kcal/mol
DOCKED: USER        Electrostatic Energy            =   +0.00 kcal/mol
DOCKED: USER    (2) Final Total Internal Energy     =   -0.80 kcal/mol
DOCKED: USER    (3) Torsional Free Energy           =   +1.49 kcal/mol
DOCKED: USER    (4) Unbound System's Energy  [=(2)] =   -0.80 kcal/mol
DOCKED: USER    
DOCKED: USER    
DOCKED: USER    NEWDPF move ligand.dum.pdbqt
DOCKED: USER    NEWDPF about 0.725000 -0.143000 0.203000
DOCKED: USER    NEWDPF tran0 36.966009 12.282335 122.136517
DOCKED: USER    NEWDPF quaternion0 -0.525131 0.755136 0.361633 -0.152410
DOCKED: USER    NEWDPF axisangle0 -0.531338 0.764062 0.365908 -162.466729
DOCKED: USER    NEWDPF quat0 -0.531338 0.764062 0.365908 -162.466729
DOCKED: USER    NEWDPF dihe0 -157.46 -180.00 62.59 31.45 58.99 
DOCKED: USER  keepresnum = 1 
DOCKED: USER  
DOCKED: REMARK  Name = 
DOCKED: REMARK  5 active torsions:
DOCKED: REMARK  status: ('A' for Active; 'I' for Inactive)
DOCKED: REMARK    1  A    between atoms: O_1  and  N_2
DOCKED: REMARK    2  A    between atoms: C_3  and  C_4
DOCKED: REMARK    3  A    between atoms: C_4  and  C_5
DOCKED: REMARK    4  A    between atoms: C_5  and  C_6
DOCKED: REMARK    5  A    between atoms: C_6  and  C_7
DOCKED: REMARK                            x       y       z     vdW  Elec       q    Type
DOCKED: REMARK                         _______ _______ _______ _____ _____    ______ ____
DOCKED: USER                              x       y       z     vdW  Elec       q    Type
DOCKED: USER                           _______ _______ _______ _____ _____    ______ ____
DOCKED: ROOT
DOCKED: ATOM      1  C   UNL     1      36.769  11.817 122.517 -0.64 -0.00    +0.000 C 
DOCKED: ENDROOT
DOCKED: BRANCH   1   2
DOCKED: ATOM      2  C   UNL     1      35.787  10.678 122.229 -0.60 -0.00    +0.000 C 
DOCKED: BRANCH   2   4
DOCKED: ATOM      3  N   UNL     1      36.499   8.536 123.395 -0.63 -0.00    +0.000 N 
DOCKED: ATOM      4  C   UNL     1      36.499   9.359 122.226 -0.71 -0.00    +0.000 C 
DOCKED: ATOM      5  O   UNL     1      37.065   8.957 121.174 -2.71 -0.00    +0.000 OA
DOCKED: ATOM      6  H   UNL     1      36.034   8.842 124.207 -0.23 -0.00    +0.000 HD
DOCKED: BRANCH   3   7
DOCKED: ATOM      7  O   UNL     1      37.133   7.339 123.396 -2.08 -0.00    +0.000 OA
DOCKED: ATOM      8  H   UNL     1      37.813   7.334 122.703 -0.40 -0.00    +0.000 HD
DOCKED: ENDBRANCH   3   7
DOCKED: ENDBRANCH   2   4
DOCKED: ENDBRANCH   1   2
DOCKED: BRANCH   1   9
DOCKED: ATOM      9  C   UNL     1      36.406  12.540 123.818 -0.65 -0.00    +0.000 C 
DOCKED: BRANCH   9  10
DOCKED: ATOM     10  C   UNL     1      36.142  13.999 123.555 -0.49 -0.00    +0.000 A 
DOCKED: ATOM     11  C   UNL     1      34.890  14.558 123.859 -0.41 -0.00    +0.000 A 
DOCKED: ATOM     12  C   UNL     1      34.635  15.906 123.584 -0.46 -0.00    +0.000 A 
DOCKED: ATOM     13  C   UNL     1      35.624  16.700 122.997 -0.31 -0.00    +0.000 A 
DOCKED: ATOM     14  C   UNL     1      36.868  16.147 122.681 -0.27 -0.00    +0.000 A 
DOCKED: ATOM     15  C   UNL     1      37.127  14.800 122.953 -0.39 -0.00    +0.000 A 
DOCKED: ATOM     16  CM  UNL     1      35.881  15.351 123.271 +0.00 -0.00    +0.000 AC
DOCKED: ENDBRANCH   9  10
DOCKED: ENDBRANCH   1   9
DOCKED: TORSDOF 5DOCKED: TER
DOCKED: ENDMDL
________________________________________________________________________________


	BEGINNING GENETIC ALGORITHM DOCKING 45 of 100
Run: 45 Seed: 505966706 496963626 [ Run 45 of 100 GA/GALS ]
Beginning LAMARCKIAN GENETIC ALGORITHM (LGA), with a maximum of 2500000 energy evaluations.

Final-Value: -12.008


	FINAL GENETIC ALGORITHM DOCKED STATE
	_______________________________________________


Detailed state:  trans 35.531 11.316 123.326 quatxyzw 0.393990 0.198847 -0.613895 -0.654495 center 0.725 -0.143 0.203 ntor 5 -165.1709 50.1467 -67.9496 164.3795 -74.7471
State:	 35.531  11.316 123.326   0.521  0.263 -0.812 -98.237   -165.17   50.15  -67.95  164.38  -74.75

DOCKED: MODEL       45
DOCKED: USER    Run = 45
DOCKED: USER    DPF = ligand_dock.biased.dpf
DOCKED: USER  
DOCKED: USER    Estimated Free Energy of Binding    =   -9.64 kcal/mol  [=(1)+(2)+(3)-(4)]
DOCKED: USER    Estimated Inhibition Constant, Ki   =   85.98 nM (nanomolar)  [Temperature = 298.15 K]
DOCKED: USER    
DOCKED: USER    (1) Final Intermolecular Energy     =  -11.13 kcal/mol
DOCKED: USER        vdW + Hbond + desolv Energy     =  -11.13 kcal/mol
DOCKED: USER        Electrostatic Energy            =   +0.00 kcal/mol
DOCKED: USER    (2) Final Total Internal Energy     =   -0.88 kcal/mol
DOCKED: USER    (3) Torsional Free Energy           =   +1.49 kcal/mol
DOCKED: USER    (4) Unbound System's Energy  [=(2)] =   -0.88 kcal/mol
DOCKED: USER    
DOCKED: USER    
DOCKED: USER    NEWDPF move ligand.dum.pdbqt
DOCKED: USER    NEWDPF about 0.725000 -0.143000 0.203000
DOCKED: USER    NEWDPF tran0 35.531188 11.315656 123.325630
DOCKED: USER    NEWDPF quaternion0 0.393990 0.198847 -0.613895 -0.654495
DOCKED: USER    NEWDPF axisangle0 0.521106 0.263002 -0.811960 -98.237231
DOCKED: USER    NEWDPF quat0 0.521106 0.263002 -0.811960 -98.237231
DOCKED: USER    NEWDPF dihe0 -165.17 50.15 -67.95 164.38 -74.75 
DOCKED: USER  keepresnum = 1 
DOCKED: USER  
DOCKED: REMARK  Name = 
DOCKED: REMARK  5 active torsions:
DOCKED: REMARK  status: ('A' for Active; 'I' for Inactive)
DOCKED: REMARK    1  A    between atoms: O_1  and  N_2
DOCKED: REMARK    2  A    between atoms: C_3  and  C_4
DOCKED: REMARK    3  A    between atoms: C_4  and  C_5
DOCKED: REMARK    4  A    between atoms: C_5  and  C_6
DOCKED: REMARK    5  A    between atoms: C_6  and  C_7
DOCKED: REMARK                            x       y       z     vdW  Elec       q    Type
DOCKED: REMARK                         _______ _______ _______ _____ _____    ______ ____
DOCKED: USER                              x       y       z     vdW  Elec       q    Type
DOCKED: USER                           _______ _______ _______ _____ _____    ______ ____
DOCKED: ROOT
DOCKED: ATOM      1  C   UNL     1      35.913  11.621 122.924 -0.65 -0.00    +0.000 C 
DOCKED: ENDROOT
DOCKED: BRANCH   1   2
DOCKED: ATOM      2  C   UNL     1      36.781  11.061 121.794 -0.57 -0.00    +0.000 C 
DOCKED: BRANCH   2   4
DOCKED: ATOM      3  N   UNL     1      37.069   9.025 123.286 -0.62 -0.00    +0.000 N 
DOCKED: ATOM      4  C   UNL     1      36.991   9.588 121.974 -0.62 -0.00    +0.000 C 
DOCKED: ATOM      5  O   UNL     1      37.057   8.838 120.963 -2.70 -0.00    +0.000 OA
DOCKED: ATOM      6  H   UNL     1      36.991   9.611 124.073 -0.53 -0.00    +0.000 HD
DOCKED: BRANCH   3   7
DOCKED: ATOM      7  O   UNL     1      37.250   7.693 123.455 -2.23 -0.00    +0.000 OA
DOCKED: ATOM      8  H   UNL     1      37.538   7.298 122.617 -0.23 -0.00    +0.000 HD
DOCKED: ENDBRANCH   3   7
DOCKED: ENDBRANCH   2   4
DOCKED: ENDBRANCH   1   2
DOCKED: BRANCH   1   9
DOCKED: ATOM      9  C   UNL     1      36.724  12.553 123.831 -0.62 -0.00    +0.000 C 
DOCKED: BRANCH   9  10
DOCKED: ATOM     10  C   UNL     1      36.363  13.991 123.569 -0.48 -0.00    +0.000 A 
DOCKED: ATOM     11  C   UNL     1      37.256  14.833 122.886 -0.38 -0.00    +0.000 A 
DOCKED: ATOM     12  C   UNL     1      36.933  16.177 122.672 -0.26 -0.00    +0.000 A 
DOCKED: ATOM     13  C   UNL     1      35.723  16.691 123.145 -0.31 -0.00    +0.000 A 
DOCKED: ATOM     14  C   UNL     1      34.834  15.861 123.836 -0.49 -0.00    +0.000 A 
DOCKED: ATOM     15  C   UNL     1      35.153  14.518 124.054 -0.43 -0.00    +0.000 A 
DOCKED: ATOM     16  CM  UNL     1      36.044  15.345 123.361 +0.00 -0.00    +0.000 AC
DOCKED: ENDBRANCH   9  10
DOCKED: ENDBRANCH   1   9
DOCKED: TORSDOF 5DOCKED: TER
DOCKED: ENDMDL
________________________________________________________________________________


	BEGINNING GENETIC ALGORITHM DOCKING 46 of 100
Run: 46 Seed: 1582453577 435932850 [ Run 46 of 100 GA/GALS ]
Beginning LAMARCKIAN GENETIC ALGORITHM (LGA), with a maximum of 2500000 energy evaluations.

Final-Value: -11.013


	FINAL GENETIC ALGORITHM DOCKED STATE
	_______________________________________________


Detailed state:  trans 37.926 11.990 122.079 quatxyzw -0.528697 0.764090 -0.313411 -0.196009 center 0.725 -0.143 0.203 ntor 5 -179.8937 -173.7889 -23.8437 151.3279 -16.8125
State:	 37.926  11.990 122.079  -0.539  0.779 -0.320 -157.393   -179.89 -173.79  -23.84  151.33  -16.81

DOCKED: MODEL       46
DOCKED: USER    Run = 46
DOCKED: USER    DPF = ligand_dock.biased.dpf
DOCKED: USER  
DOCKED: USER    Estimated Free Energy of Binding    =   -8.68 kcal/mol  [=(1)+(2)+(3)-(4)]
DOCKED: USER    Estimated Inhibition Constant, Ki   =  432.41 nM (nanomolar)  [Temperature = 298.15 K]
DOCKED: USER    
DOCKED: USER    (1) Final Intermolecular Energy     =  -10.17 kcal/mol
DOCKED: USER        vdW + Hbond + desolv Energy     =  -10.17 kcal/mol
DOCKED: USER        Electrostatic Energy            =   +0.00 kcal/mol
DOCKED: USER    (2) Final Total Internal Energy     =   -0.84 kcal/mol
DOCKED: USER    (3) Torsional Free Energy           =   +1.49 kcal/mol
DOCKED: USER    (4) Unbound System's Energy  [=(2)] =   -0.84 kcal/mol
DOCKED: USER    
DOCKED: USER    
DOCKED: USER    NEWDPF move ligand.dum.pdbqt
DOCKED: USER    NEWDPF about 0.725000 -0.143000 0.203000
DOCKED: USER    NEWDPF tran0 37.926119 11.990473 122.078687
DOCKED: USER    NEWDPF quaternion0 -0.528697 0.764090 -0.313411 -0.196009
DOCKED: USER    NEWDPF axisangle0 -0.539155 0.779205 -0.319610 -157.392687
DOCKED: USER    NEWDPF quat0 -0.539155 0.779205 -0.319610 -157.392687
DOCKED: USER    NEWDPF dihe0 -179.89 -173.79 -23.84 151.33 -16.81 
DOCKED: USER  keepresnum = 1 
DOCKED: USER  
DOCKED: REMARK  Name = 
DOCKED: REMARK  5 active torsions:
DOCKED: REMARK  status: ('A' for Active; 'I' for Inactive)
DOCKED: REMARK    1  A    between atoms: O_1  and  N_2
DOCKED: REMARK    2  A    between atoms: C_3  and  C_4
DOCKED: REMARK    3  A    between atoms: C_4  and  C_5
DOCKED: REMARK    4  A    between atoms: C_5  and  C_6
DOCKED: REMARK    5  A    between atoms: C_6  and  C_7
DOCKED: REMARK                            x       y       z     vdW  Elec       q    Type
DOCKED: REMARK                         _______ _______ _______ _____ _____    ______ ____
DOCKED: USER                              x       y       z     vdW  Elec       q    Type
DOCKED: USER                           _______ _______ _______ _____ _____    ______ ____
DOCKED: ROOT
DOCKED: ATOM      1  C   UNL     1      37.348  12.048 122.330 -0.49 -0.00    +0.000 C 
DOCKED: ENDROOT
DOCKED: BRANCH   1   2
DOCKED: ATOM      2  C   UNL     1      36.182  11.055 122.319 -0.66 -0.00    +0.000 C 
DOCKED: BRANCH   2   4
DOCKED: ATOM      3  N   UNL     1      36.735   8.790 123.328 -0.63 -0.00    +0.000 N 
DOCKED: ATOM      4  C   UNL     1      36.690   9.651 122.187 -0.70 -0.00    +0.000 C 
DOCKED: ATOM      5  O   UNL     1      37.039   9.217 121.057 -2.73 -0.00    +0.000 OA
DOCKED: ATOM      6  H   UNL     1      36.437   9.125 124.204 -0.38 -0.00    +0.000 HD
DOCKED: BRANCH   3   7
DOCKED: ATOM      7  O   UNL     1      37.185   7.517 123.213 -2.17 -0.00    +0.000 OA
DOCKED: ATOM      8  H   UNL     1      37.439   7.347 122.292 -0.15 -0.00    +0.000 HD
DOCKED: ENDBRANCH   3   7
DOCKED: ENDBRANCH   2   4
DOCKED: ENDBRANCH   1   2
DOCKED: BRANCH   1   9
DOCKED: ATOM      9  C   UNL     1      36.891  13.438 121.875 -0.43 -0.00    +0.000 C 
DOCKED: BRANCH   9  10
DOCKED: ATOM     10  C   UNL     1      37.904  14.481 122.267 -0.38 -0.00    +0.000 A 
DOCKED: ATOM     11  C   UNL     1      37.539  15.540 123.115 -0.32 -0.00    +0.000 A 
DOCKED: ATOM     12  C   UNL     1      38.472  16.525 123.452 -0.22 -0.00    +0.000 A 
DOCKED: ATOM     13  C   UNL     1      39.770  16.467 122.938 -0.24 -0.00    +0.000 A 
DOCKED: ATOM     14  C   UNL     1      40.136  15.423 122.084 -0.34 -0.00    +0.000 A 
DOCKED: ATOM     15  C   UNL     1      39.207  14.436 121.743 -0.34 -0.00    +0.000 A 
DOCKED: ATOM     16  CM  UNL     1      38.838  15.478 122.599 +0.00 -0.00    +0.000 AC
DOCKED: ENDBRANCH   9  10
DOCKED: ENDBRANCH   1   9
DOCKED: TORSDOF 5DOCKED: TER
DOCKED: ENDMDL
________________________________________________________________________________


	BEGINNING GENETIC ALGORITHM DOCKING 47 of 100
Run: 47 Seed: 613269790 1187203661 [ Run 47 of 100 GA/GALS ]
Beginning LAMARCKIAN GENETIC ALGORITHM (LGA), with a maximum of 2500000 energy evaluations.

Final-Value: -11.808


	FINAL GENETIC ALGORITHM DOCKED STATE
	_______________________________________________


Detailed state:  trans 36.544 12.223 121.593 quatxyzw 0.386591 -0.736799 -0.543651 -0.110083 center 0.725 -0.143 0.203 ntor 5 179.4622 -162.2224 85.1145 -3.1551 58.3046
State:	 36.544  12.223 121.593   0.389 -0.741 -0.547 -167.360    179.46 -162.22   85.11   -3.16   58.30

DOCKED: MODEL       47
DOCKED: USER    Run = 47
DOCKED: USER    DPF = ligand_dock.biased.dpf
DOCKED: USER  
DOCKED: USER    Estimated Free Energy of Binding    =   -9.41 kcal/mol  [=(1)+(2)+(3)-(4)]
DOCKED: USER    Estimated Inhibition Constant, Ki   =  126.18 nM (nanomolar)  [Temperature = 298.15 K]
DOCKED: USER    
DOCKED: USER    (1) Final Intermolecular Energy     =  -10.90 kcal/mol
DOCKED: USER        vdW + Hbond + desolv Energy     =  -10.90 kcal/mol
DOCKED: USER        Electrostatic Energy            =   +0.00 kcal/mol
DOCKED: USER    (2) Final Total Internal Energy     =   -0.90 kcal/mol
DOCKED: USER    (3) Torsional Free Energy           =   +1.49 kcal/mol
DOCKED: USER    (4) Unbound System's Energy  [=(2)] =   -0.90 kcal/mol
DOCKED: USER    
DOCKED: USER    
DOCKED: USER    NEWDPF move ligand.dum.pdbqt
DOCKED: USER    NEWDPF about 0.725000 -0.143000 0.203000
DOCKED: USER    NEWDPF tran0 36.544391 12.222801 121.593189
DOCKED: USER    NEWDPF quaternion0 0.386591 -0.736799 -0.543651 -0.110083
DOCKED: USER    NEWDPF axisangle0 0.388955 -0.741304 -0.546975 -167.359764
DOCKED: USER    NEWDPF quat0 0.388955 -0.741304 -0.546975 -167.359764
DOCKED: USER    NEWDPF dihe0 179.46 -162.22 85.11 -3.16 58.30 
DOCKED: USER  keepresnum = 1 
DOCKED: USER  
DOCKED: REMARK  Name = 
DOCKED: REMARK  5 active torsions:
DOCKED: REMARK  status: ('A' for Active; 'I' for Inactive)
DOCKED: REMARK    1  A    between atoms: O_1  and  N_2
DOCKED: REMARK    2  A    between atoms: C_3  and  C_4
DOCKED: REMARK    3  A    between atoms: C_4  and  C_5
DOCKED: REMARK    4  A    between atoms: C_5  and  C_6
DOCKED: REMARK    5  A    between atoms: C_6  and  C_7
DOCKED: REMARK                            x       y       z     vdW  Elec       q    Type
DOCKED: REMARK                         _______ _______ _______ _____ _____    ______ ____
DOCKED: USER                              x       y       z     vdW  Elec       q    Type
DOCKED: USER                           _______ _______ _______ _____ _____    ______ ____
DOCKED: ROOT
DOCKED: ATOM      1  C   UNL     1      36.654  11.732 121.978 -0.60 -0.00    +0.000 C 
DOCKED: ENDROOT
DOCKED: BRANCH   1   2
DOCKED: ATOM      2  C   UNL     1      35.755  10.537 122.305 -0.64 -0.00    +0.000 C 
DOCKED: BRANCH   2   4
DOCKED: ATOM      3  N   UNL     1      36.738   8.497 123.458 -0.65 -0.00    +0.000 N 
DOCKED: ATOM      4  C   UNL     1      36.542   9.262 122.266 -0.72 -0.00    +0.000 C 
DOCKED: ATOM      5  O   UNL     1      36.997   8.842 121.167 -2.68 -0.00    +0.000 OA
DOCKED: ATOM      6  H   UNL     1      36.359   8.815 124.309 -0.29 -0.00    +0.000 HD
DOCKED: BRANCH   3   7
DOCKED: ATOM      7  O   UNL     1      37.441   7.340 123.427 -1.97 -0.00    +0.000 OA
DOCKED: ATOM      8  H   UNL     1      37.736   7.166 122.518 -0.32 -0.00    +0.000 HD
DOCKED: ENDBRANCH   3   7
DOCKED: ENDBRANCH   2   4
DOCKED: ENDBRANCH   1   2
DOCKED: BRANCH   1   9
DOCKED: ATOM      9  C   UNL     1      37.187  12.386 123.257 -0.63 -0.00    +0.000 C 
DOCKED: BRANCH   9  10
DOCKED: ATOM     10  C   UNL     1      36.782  13.834 123.319 -0.48 -0.00    +0.000 A 
DOCKED: ATOM     11  C   UNL     1      35.531  14.198 123.845 -0.48 -0.00    +0.000 A 
DOCKED: ATOM     12  C   UNL     1      35.142  15.541 123.873 -0.48 -0.00    +0.000 A 
DOCKED: ATOM     13  C   UNL     1      35.993  16.528 123.366 -0.32 -0.00    +0.000 A 
DOCKED: ATOM     14  C   UNL     1      37.234  16.171 122.829 -0.26 -0.00    +0.000 A 
DOCKED: ATOM     15  C   UNL     1      37.627  14.830 122.799 -0.37 -0.00    +0.000 A 
DOCKED: ATOM     16  CM  UNL     1      36.385  15.183 123.338 +0.00 -0.00    +0.000 AC
DOCKED: ENDBRANCH   9  10
DOCKED: ENDBRANCH   1   9
DOCKED: TORSDOF 5DOCKED: TER
DOCKED: ENDMDL
________________________________________________________________________________


	BEGINNING GENETIC ALGORITHM DOCKING 48 of 100
Run: 48 Seed: 1555506039 2067060711 [ Run 48 of 100 GA/GALS ]
Beginning LAMARCKIAN GENETIC ALGORITHM (LGA), with a maximum of 2500000 energy evaluations.

Final-Value: -11.830


	FINAL GENETIC ALGORITHM DOCKED STATE
	_______________________________________________


Detailed state:  trans 37.017 12.540 121.250 quatxyzw 0.352910 -0.806168 -0.462860 -0.106344 center 0.725 -0.143 0.203 ntor 5 176.0565 -164.3152 69.9545 169.9699 91.2248
State:	 37.017  12.540 121.250   0.355 -0.811 -0.465 -167.791    176.06 -164.32   69.95  169.97   91.22

DOCKED: MODEL       48
DOCKED: USER    Run = 48
DOCKED: USER    DPF = ligand_dock.biased.dpf
DOCKED: USER  
DOCKED: USER    Estimated Free Energy of Binding    =   -9.41 kcal/mol  [=(1)+(2)+(3)-(4)]
DOCKED: USER    Estimated Inhibition Constant, Ki   =  126.38 nM (nanomolar)  [Temperature = 298.15 K]
DOCKED: USER    
DOCKED: USER    (1) Final Intermolecular Energy     =  -10.90 kcal/mol
DOCKED: USER        vdW + Hbond + desolv Energy     =  -10.90 kcal/mol
DOCKED: USER        Electrostatic Energy            =   +0.00 kcal/mol
DOCKED: USER    (2) Final Total Internal Energy     =   -0.93 kcal/mol
DOCKED: USER    (3) Torsional Free Energy           =   +1.49 kcal/mol
DOCKED: USER    (4) Unbound System's Energy  [=(2)] =   -0.93 kcal/mol
DOCKED: USER    
DOCKED: USER    
DOCKED: USER    NEWDPF move ligand.dum.pdbqt
DOCKED: USER    NEWDPF about 0.725000 -0.143000 0.203000
DOCKED: USER    NEWDPF tran0 37.017289 12.540430 121.250378
DOCKED: USER    NEWDPF quaternion0 0.352910 -0.806168 -0.462860 -0.106344
DOCKED: USER    NEWDPF axisangle0 0.354922 -0.810765 -0.465500 -167.790833
DOCKED: USER    NEWDPF quat0 0.354922 -0.810765 -0.465500 -167.790833
DOCKED: USER    NEWDPF dihe0 176.06 -164.32 69.95 169.97 91.22 
DOCKED: USER  keepresnum = 1 
DOCKED: USER  
DOCKED: REMARK  Name = 
DOCKED: REMARK  5 active torsions:
DOCKED: REMARK  status: ('A' for Active; 'I' for Inactive)
DOCKED: REMARK    1  A    between atoms: O_1  and  N_2
DOCKED: REMARK    2  A    between atoms: C_3  and  C_4
DOCKED: REMARK    3  A    between atoms: C_4  and  C_5
DOCKED: REMARK    4  A    between atoms: C_5  and  C_6
DOCKED: REMARK    5  A    between atoms: C_6  and  C_7
DOCKED: REMARK                            x       y       z     vdW  Elec       q    Type
DOCKED: REMARK                         _______ _______ _______ _____ _____    ______ ____
DOCKED: USER                              x       y       z     vdW  Elec       q    Type
DOCKED: USER                           _______ _______ _______ _____ _____    ______ ____
DOCKED: ROOT
DOCKED: ATOM      1  C   UNL     1      37.066  12.129 121.729 -0.56 -0.00    +0.000 C 
DOCKED: ENDROOT
DOCKED: BRANCH   1   2
DOCKED: ATOM      2  C   UNL     1      36.047  11.104 122.234 -0.63 -0.00    +0.000 C 
DOCKED: BRANCH   2   4
DOCKED: ATOM      3  N   UNL     1      36.896   8.972 123.325 -0.61 -0.00    +0.000 N 
DOCKED: ATOM      4  C   UNL     1      36.608   9.717 122.139 -0.68 -0.00    +0.000 C 
DOCKED: ATOM      5  O   UNL     1      36.786   9.191 121.007 -2.64 -0.00    +0.000 OA
DOCKED: ATOM      6  H   UNL     1      36.731   9.377 124.207 -0.49 -0.00    +0.000 HD
DOCKED: BRANCH   3   7
DOCKED: ATOM      7  O   UNL     1      37.395   7.715 123.246 -2.19 -0.00    +0.000 OA
DOCKED: ATOM      8  H   UNL     1      37.440   7.444 122.315 -0.14 -0.00    +0.000 HD
DOCKED: ENDBRANCH   3   7
DOCKED: ENDBRANCH   2   4
DOCKED: ENDBRANCH   1   2
DOCKED: BRANCH   1   9
DOCKED: ATOM      9  C   UNL     1      37.610  12.978 122.883 -0.53 -0.00    +0.000 C 
DOCKED: BRANCH   9  10
DOCKED: ATOM     10  C   UNL     1      36.742  14.187 123.104 -0.45 -0.00    +0.000 A 
DOCKED: ATOM     11  C   UNL     1      37.140  15.444 122.620 -0.31 -0.00    +0.000 A 
DOCKED: ATOM     12  C   UNL     1      36.348  16.573 122.854 -0.27 -0.00    +0.000 A 
DOCKED: ATOM     13  C   UNL     1      35.160  16.457 123.581 -0.40 -0.00    +0.000 A 
DOCKED: ATOM     14  C   UNL     1      34.763  15.211 124.076 -0.53 -0.00    +0.000 A 
DOCKED: ATOM     15  C   UNL     1      35.552  14.080 123.845 -0.48 -0.00    +0.000 A 
DOCKED: ATOM     16  CM  UNL     1      35.951  15.325 123.347 +0.00 -0.00    +0.000 AC
DOCKED: ENDBRANCH   9  10
DOCKED: ENDBRANCH   1   9
DOCKED: TORSDOF 5DOCKED: TER
DOCKED: ENDMDL
________________________________________________________________________________


	BEGINNING GENETIC ALGORITHM DOCKING 49 of 100
Run: 49 Seed: 1014013521 1308947399 [ Run 49 of 100 GA/GALS ]
Beginning LAMARCKIAN GENETIC ALGORITHM (LGA), with a maximum of 2500000 energy evaluations.

Final-Value: -10.876


	FINAL GENETIC ALGORITHM DOCKED STATE
	_______________________________________________


Detailed state:  trans 35.569 11.547 122.991 quatxyzw -0.265420 -0.264499 -0.479562 -0.793482 center 0.725 -0.143 0.203 ntor 5 -152.6057 -39.0408 86.7399 -135.0403 92.4240
State:	 35.569  11.547 122.991  -0.436 -0.435 -0.788 -74.976   -152.61  -39.04   86.74 -135.04   92.42

DOCKED: MODEL       49
DOCKED: USER    Run = 49
DOCKED: USER    DPF = ligand_dock.biased.dpf
DOCKED: USER  
DOCKED: USER    Estimated Free Energy of Binding    =   -8.56 kcal/mol  [=(1)+(2)+(3)-(4)]
DOCKED: USER    Estimated Inhibition Constant, Ki   =  531.19 nM (nanomolar)  [Temperature = 298.15 K]
DOCKED: USER    
DOCKED: USER    (1) Final Intermolecular Energy     =  -10.05 kcal/mol
DOCKED: USER        vdW + Hbond + desolv Energy     =  -10.05 kcal/mol
DOCKED: USER        Electrostatic Energy            =   +0.00 kcal/mol
DOCKED: USER    (2) Final Total Internal Energy     =   -0.82 kcal/mol
DOCKED: USER    (3) Torsional Free Energy           =   +1.49 kcal/mol
DOCKED: USER    (4) Unbound System's Energy  [=(2)] =   -0.82 kcal/mol
DOCKED: USER    
DOCKED: USER    
DOCKED: USER    NEWDPF move ligand.dum.pdbqt
DOCKED: USER    NEWDPF about 0.725000 -0.143000 0.203000
DOCKED: USER    NEWDPF tran0 35.568750 11.547416 122.991287
DOCKED: USER    NEWDPF quaternion0 -0.265420 -0.264499 -0.479562 -0.793482
DOCKED: USER    NEWDPF axisangle0 -0.436120 -0.434607 -0.787982 -74.975865
DOCKED: USER    NEWDPF quat0 -0.436120 -0.434607 -0.787982 -74.975865
DOCKED: USER    NEWDPF dihe0 -152.61 -39.04 86.74 -135.04 92.42 
DOCKED: USER  keepresnum = 1 
DOCKED: USER  
DOCKED: REMARK  Name = 
DOCKED: REMARK  5 active torsions:
DOCKED: REMARK  status: ('A' for Active; 'I' for Inactive)
DOCKED: REMARK    1  A    between atoms: O_1  and  N_2
DOCKED: REMARK    2  A    between atoms: C_3  and  C_4
DOCKED: REMARK    3  A    between atoms: C_4  and  C_5
DOCKED: REMARK    4  A    between atoms: C_5  and  C_6
DOCKED: REMARK    5  A    between atoms: C_6  and  C_7
DOCKED: REMARK                            x       y       z     vdW  Elec       q    Type
DOCKED: REMARK                         _______ _______ _______ _____ _____    ______ ____
DOCKED: USER                              x       y       z     vdW  Elec       q    Type
DOCKED: USER                           _______ _______ _______ _____ _____    ______ ____
DOCKED: ROOT
DOCKED: ATOM      1  C   UNL     1      35.942  11.160 122.658 -0.67 -0.00    +0.000 C 
DOCKED: ENDROOT
DOCKED: BRANCH   1   2
DOCKED: ATOM      2  C   UNL     1      37.065  10.239 123.143 -0.57 -0.00    +0.000 C 
DOCKED: BRANCH   2   4
DOCKED: ATOM      3  N   UNL     1      36.845   7.710 123.243 -0.76 -0.00    +0.000 N 
DOCKED: ATOM      4  C   UNL     1      36.978   8.904 122.467 -0.69 -0.00    +0.000 C 
DOCKED: ATOM      5  O   UNL     1      36.980   8.840 121.208 -2.67 -0.00    +0.000 OA
DOCKED: ATOM      6  H   UNL     1      36.818   7.767 124.224 -0.32 -0.00    +0.000 HD
DOCKED: BRANCH   3   7
DOCKED: ATOM      7  O   UNL     1      36.757   6.501 122.637 -1.27 -0.00    +0.000 OA
DOCKED: ATOM      8  H   UNL     1      37.212   6.536 121.780 -0.42 -0.00    +0.000 HD
DOCKED: ENDBRANCH   3   7
DOCKED: ENDBRANCH   2   4
DOCKED: ENDBRANCH   1   2
DOCKED: BRANCH   1   9
DOCKED: ATOM      9  C   UNL     1      36.411  12.028 121.485 -0.47 -0.00    +0.000 C 
DOCKED: BRANCH   9  10
DOCKED: ATOM     10  C   UNL     1      37.052  13.294 121.988 -0.43 -0.00    +0.000 A 
DOCKED: ATOM     11  C   UNL     1      36.433  14.049 122.998 -0.44 -0.00    +0.000 A 
DOCKED: ATOM     12  C   UNL     1      37.013  15.241 123.442 -0.36 -0.00    +0.000 A 
DOCKED: ATOM     13  C   UNL     1      38.208  15.693 122.875 -0.29 -0.00    +0.000 A 
DOCKED: ATOM     14  C   UNL     1      38.823  14.953 121.861 -0.33 -0.00    +0.000 A 
DOCKED: ATOM     15  C   UNL     1      38.246  13.761 121.413 -0.37 -0.00    +0.000 A 
DOCKED: ATOM     16  CM  UNL     1      37.629  14.498 122.429 +0.00 -0.00    +0.000 AC
DOCKED: ENDBRANCH   9  10
DOCKED: ENDBRANCH   1   9
DOCKED: TORSDOF 5DOCKED: TER
DOCKED: ENDMDL
________________________________________________________________________________


	BEGINNING GENETIC ALGORITHM DOCKING 50 of 100
Run: 50 Seed: 246912395 179386459 [ Run 50 of 100 GA/GALS ]
Beginning LAMARCKIAN GENETIC ALGORITHM (LGA), with a maximum of 2500000 energy evaluations.

Final-Value: -11.879


	FINAL GENETIC ALGORITHM DOCKED STATE
	_______________________________________________


Detailed state:  trans 37.092 12.337 121.707 quatxyzw 0.460549 -0.761890 -0.453144 0.045590 center 0.725 -0.143 0.203 ntor 5 -174.3443 178.7908 76.2160 -167.4245 64.6227
State:	 37.092  12.337 121.707   0.461 -0.763 -0.454 174.774   -174.34  178.79   76.22 -167.42   64.62

DOCKED: MODEL       50
DOCKED: USER    Run = 50
DOCKED: USER    DPF = ligand_dock.biased.dpf
DOCKED: USER  
DOCKED: USER    Estimated Free Energy of Binding    =   -9.49 kcal/mol  [=(1)+(2)+(3)-(4)]
DOCKED: USER    Estimated Inhibition Constant, Ki   =  110.17 nM (nanomolar)  [Temperature = 298.15 K]
DOCKED: USER    
DOCKED: USER    (1) Final Intermolecular Energy     =  -10.98 kcal/mol
DOCKED: USER        vdW + Hbond + desolv Energy     =  -10.98 kcal/mol
DOCKED: USER        Electrostatic Energy            =   +0.00 kcal/mol
DOCKED: USER    (2) Final Total Internal Energy     =   -0.90 kcal/mol
DOCKED: USER    (3) Torsional Free Energy           =   +1.49 kcal/mol
DOCKED: USER    (4) Unbound System's Energy  [=(2)] =   -0.90 kcal/mol
DOCKED: USER    
DOCKED: USER    
DOCKED: USER    NEWDPF move ligand.dum.pdbqt
DOCKED: USER    NEWDPF about 0.725000 -0.143000 0.203000
DOCKED: USER    NEWDPF tran0 37.092098 12.337357 121.706658
DOCKED: USER    NEWDPF quaternion0 0.460549 -0.761890 -0.453144 0.045590
DOCKED: USER    NEWDPF axisangle0 0.461029 -0.762683 -0.453615 174.773948
DOCKED: USER    NEWDPF quat0 0.461029 -0.762683 -0.453615 174.773948
DOCKED: USER    NEWDPF dihe0 -174.34 178.79 76.22 -167.42 64.62 
DOCKED: USER  keepresnum = 1 
DOCKED: USER  
DOCKED: REMARK  Name = 
DOCKED: REMARK  5 active torsions:
DOCKED: REMARK  status: ('A' for Active; 'I' for Inactive)
DOCKED: REMARK    1  A    between atoms: O_1  and  N_2
DOCKED: REMARK    2  A    between atoms: C_3  and  C_4
DOCKED: REMARK    3  A    between atoms: C_4  and  C_5
DOCKED: REMARK    4  A    between atoms: C_5  and  C_6
DOCKED: REMARK    5  A    between atoms: C_6  and  C_7
DOCKED: REMARK                            x       y       z     vdW  Elec       q    Type
DOCKED: REMARK                         _______ _______ _______ _____ _____    ______ ____
DOCKED: USER                              x       y       z     vdW  Elec       q    Type
DOCKED: USER                           _______ _______ _______ _____ _____    ______ ____
DOCKED: ROOT
DOCKED: ATOM      1  C   UNL     1      37.017  11.855 122.110 -0.59 -0.00    +0.000 C 
DOCKED: ENDROOT
DOCKED: BRANCH   1   2
DOCKED: ATOM      2  C   UNL     1      35.987  10.722 122.087 -0.57 -0.00    +0.000 C 
DOCKED: BRANCH   2   4
DOCKED: ATOM      3  N   UNL     1      36.834   8.719 123.399 -0.63 -0.00    +0.000 N 
DOCKED: ATOM      4  C   UNL     1      36.671   9.390 122.148 -0.71 -0.00    +0.000 C 
DOCKED: ATOM      5  O   UNL     1      37.067   8.842 121.083 -2.70 -0.00    +0.000 OA
DOCKED: ATOM      6  H   UNL     1      36.501   9.138 124.225 -0.39 -0.00    +0.000 HD
DOCKED: BRANCH   3   7
DOCKED: ATOM      7  O   UNL     1      37.444   7.510 123.459 -2.06 -0.00    +0.000 OA
DOCKED: ATOM      8  H   UNL     1      37.790   7.281 122.582 -0.31 -0.00    +0.000 HD
DOCKED: ENDBRANCH   3   7
DOCKED: ENDBRANCH   2   4
DOCKED: ENDBRANCH   1   2
DOCKED: BRANCH   1   9
DOCKED: ATOM      9  C   UNL     1      37.069  12.523 123.488 -0.64 -0.00    +0.000 C 
DOCKED: BRANCH   9  10
DOCKED: ATOM     10  C   UNL     1      36.613  13.956 123.398 -0.48 -0.00    +0.000 A 
DOCKED: ATOM     11  C   UNL     1      37.483  14.947 122.915 -0.37 -0.00    +0.000 A 
DOCKED: ATOM     12  C   UNL     1      37.070  16.282 122.862 -0.26 -0.00    +0.000 A 
DOCKED: ATOM     13  C   UNL     1      35.791  16.637 123.299 -0.32 -0.00    +0.000 A 
DOCKED: ATOM     14  C   UNL     1      34.924  15.657 123.792 -0.49 -0.00    +0.000 A 
DOCKED: ATOM     15  C   UNL     1      35.333  14.322 123.848 -0.46 -0.00    +0.000 A 
DOCKED: ATOM     16  CM  UNL     1      36.202  15.300 123.353 +0.00 -0.00    +0.000 AC
DOCKED: ENDBRANCH   9  10
DOCKED: ENDBRANCH   1   9
DOCKED: TORSDOF 5DOCKED: TER
DOCKED: ENDMDL
________________________________________________________________________________


	BEGINNING GENETIC ALGORITHM DOCKING 51 of 100
Run: 51 Seed: 638510953 154357719 [ Run 51 of 100 GA/GALS ]
Beginning LAMARCKIAN GENETIC ALGORITHM (LGA), with a maximum of 2500000 energy evaluations.

Final-Value: -11.866


	FINAL GENETIC ALGORITHM DOCKED STATE
	_______________________________________________


Detailed state:  trans 37.082 11.471 123.829 quatxyzw -0.214378 0.540145 -0.650973 -0.488385 center 0.725 -0.143 0.203 ntor 5 -179.9265 144.1709 -65.4151 -111.1382 -61.6112
State:	 37.082  11.471 123.829  -0.246  0.619 -0.746 -121.531   -179.93  144.17  -65.42 -111.14  -61.61

DOCKED: MODEL       51
DOCKED: USER    Run = 51
DOCKED: USER    DPF = ligand_dock.biased.dpf
DOCKED: USER  
DOCKED: USER    Estimated Free Energy of Binding    =   -9.49 kcal/mol  [=(1)+(2)+(3)-(4)]
DOCKED: USER    Estimated Inhibition Constant, Ki   =  111.32 nM (nanomolar)  [Temperature = 298.15 K]
DOCKED: USER    
DOCKED: USER    (1) Final Intermolecular Energy     =  -10.98 kcal/mol
DOCKED: USER        vdW + Hbond + desolv Energy     =  -10.98 kcal/mol
DOCKED: USER        Electrostatic Energy            =   +0.00 kcal/mol
DOCKED: USER    (2) Final Total Internal Energy     =   -0.89 kcal/mol
DOCKED: USER    (3) Torsional Free Energy           =   +1.49 kcal/mol
DOCKED: USER    (4) Unbound System's Energy  [=(2)] =   -0.89 kcal/mol
DOCKED: USER    
DOCKED: USER    
DOCKED: USER    NEWDPF move ligand.dum.pdbqt
DOCKED: USER    NEWDPF about 0.725000 -0.143000 0.203000
DOCKED: USER    NEWDPF tran0 37.081600 11.470965 123.829234
DOCKED: USER    NEWDPF quaternion0 -0.214378 0.540145 -0.650973 -0.488385
DOCKED: USER    NEWDPF axisangle0 -0.245669 0.618986 -0.745991 -121.531005
DOCKED: USER    NEWDPF quat0 -0.245669 0.618986 -0.745991 -121.531005
DOCKED: USER    NEWDPF dihe0 -179.93 144.17 -65.42 -111.14 -61.61 
DOCKED: USER  keepresnum = 1 
DOCKED: USER  
DOCKED: REMARK  Name = 
DOCKED: REMARK  5 active torsions:
DOCKED: REMARK  status: ('A' for Active; 'I' for Inactive)
DOCKED: REMARK    1  A    between atoms: O_1  and  N_2
DOCKED: REMARK    2  A    between atoms: C_3  and  C_4
DOCKED: REMARK    3  A    between atoms: C_4  and  C_5
DOCKED: REMARK    4  A    between atoms: C_5  and  C_6
DOCKED: REMARK    5  A    between atoms: C_6  and  C_7
DOCKED: REMARK                            x       y       z     vdW  Elec       q    Type
DOCKED: REMARK                         _______ _______ _______ _____ _____    ______ ____
DOCKED: USER                              x       y       z     vdW  Elec       q    Type
DOCKED: USER                           _______ _______ _______ _____ _____    ______ ____
DOCKED: ROOT
DOCKED: ATOM      1  C   UNL     1      36.653  11.620 123.388 -0.70 -0.00    +0.000 C 
DOCKED: ENDROOT
DOCKED: BRANCH   1   2
DOCKED: ATOM      2  C   UNL     1      35.930  10.711 122.391 -0.67 -0.00    +0.000 C 
DOCKED: BRANCH   2   4
DOCKED: ATOM      3  N   UNL     1      36.734   8.545 123.446 -0.64 -0.00    +0.000 N 
DOCKED: ATOM      4  C   UNL     1      36.620   9.384 122.294 -0.72 -0.00    +0.000 C 
DOCKED: ATOM      5  O   UNL     1      37.065   8.991 121.182 -2.71 -0.00    +0.000 OA
DOCKED: ATOM      6  H   UNL     1      36.363   8.844 124.306 -0.30 -0.00    +0.000 HD
DOCKED: BRANCH   3   7
DOCKED: ATOM      7  O   UNL     1      37.350   7.340 123.362 -2.00 -0.00    +0.000 OA
DOCKED: ATOM      8  H   UNL     1      37.658   7.198 122.453 -0.25 -0.00    +0.000 HD
DOCKED: ENDBRANCH   3   7
DOCKED: ENDBRANCH   2   4
DOCKED: ENDBRANCH   1   2
DOCKED: BRANCH   1   9
DOCKED: ATOM      9  C   UNL     1      37.265  12.835 122.683 -0.57 -0.00    +0.000 C 
DOCKED: BRANCH   9  10
DOCKED: ATOM     10  C   UNL     1      36.663  14.110 123.210 -0.46 -0.00    +0.000 A 
DOCKED: ATOM     11  C   UNL     1      35.404  14.096 123.832 -0.45 -0.00    +0.000 A 
DOCKED: ATOM     12  C   UNL     1      34.832  15.286 124.292 -0.52 -0.00    +0.000 A 
DOCKED: ATOM     13  C   UNL     1      35.508  16.498 124.127 -0.37 -0.00    +0.000 A 
DOCKED: ATOM     14  C   UNL     1      36.756  16.521 123.498 -0.28 -0.00    +0.000 A 
DOCKED: ATOM     15  C   UNL     1      37.332  15.334 123.035 -0.34 -0.00    +0.000 A 
DOCKED: ATOM     16  CM  UNL     1      36.083  15.308 123.665 +0.00 -0.00    +0.000 AC
DOCKED: ENDBRANCH   9  10
DOCKED: ENDBRANCH   1   9
DOCKED: TORSDOF 5DOCKED: TER
DOCKED: ENDMDL
________________________________________________________________________________


	BEGINNING GENETIC ALGORITHM DOCKING 52 of 100
Run: 52 Seed: 1923148281 1627073902 [ Run 52 of 100 GA/GALS ]
Beginning LAMARCKIAN GENETIC ALGORITHM (LGA), with a maximum of 2500000 energy evaluations.

Final-Value: -11.236


	FINAL GENETIC ALGORITHM DOCKED STATE
	_______________________________________________


Detailed state:  trans 35.814 12.020 121.780 quatxyzw 0.197798 -0.638082 -0.523828 -0.528518 center 0.725 -0.143 0.203 ntor 5 -177.7550 -95.2265 57.7228 136.1560 70.4433
State:	 35.814  12.020 121.780   0.233 -0.752 -0.617 -116.189   -177.76  -95.23   57.72  136.16   70.44

DOCKED: MODEL       52
DOCKED: USER    Run = 52
DOCKED: USER    DPF = ligand_dock.biased.dpf
DOCKED: USER  
DOCKED: USER    Estimated Free Energy of Binding    =   -8.87 kcal/mol  [=(1)+(2)+(3)-(4)]
DOCKED: USER    Estimated Inhibition Constant, Ki   =  312.50 nM (nanomolar)  [Temperature = 298.15 K]
DOCKED: USER    
DOCKED: USER    (1) Final Intermolecular Energy     =  -10.37 kcal/mol
DOCKED: USER        vdW + Hbond + desolv Energy     =  -10.37 kcal/mol
DOCKED: USER        Electrostatic Energy            =   +0.00 kcal/mol
DOCKED: USER    (2) Final Total Internal Energy     =   -0.87 kcal/mol
DOCKED: USER    (3) Torsional Free Energy           =   +1.49 kcal/mol
DOCKED: USER    (4) Unbound System's Energy  [=(2)] =   -0.87 kcal/mol
DOCKED: USER    
DOCKED: USER    
DOCKED: USER    NEWDPF move ligand.dum.pdbqt
DOCKED: USER    NEWDPF about 0.725000 -0.143000 0.203000
DOCKED: USER    NEWDPF tran0 35.814045 12.019626 121.779980
DOCKED: USER    NEWDPF quaternion0 0.197798 -0.638082 -0.523828 -0.528518
DOCKED: USER    NEWDPF axisangle0 0.232999 -0.751638 -0.617051 -116.189278
DOCKED: USER    NEWDPF quat0 0.232999 -0.751638 -0.617051 -116.189278
DOCKED: USER    NEWDPF dihe0 -177.76 -95.23 57.72 136.16 70.44 
DOCKED: USER  keepresnum = 1 
DOCKED: USER  
DOCKED: REMARK  Name = 
DOCKED: REMARK  5 active torsions:
DOCKED: REMARK  status: ('A' for Active; 'I' for Inactive)
DOCKED: REMARK    1  A    between atoms: O_1  and  N_2
DOCKED: REMARK    2  A    between atoms: C_3  and  C_4
DOCKED: REMARK    3  A    between atoms: C_4  and  C_5
DOCKED: REMARK    4  A    between atoms: C_5  and  C_6
DOCKED: REMARK    5  A    between atoms: C_6  and  C_7
DOCKED: REMARK                            x       y       z     vdW  Elec       q    Type
DOCKED: REMARK                         _______ _______ _______ _____ _____    ______ ____
DOCKED: USER                              x       y       z     vdW  Elec       q    Type
DOCKED: USER                           _______ _______ _______ _____ _____    ______ ____
DOCKED: ROOT
DOCKED: ATOM      1  C   UNL     1      36.322  11.717 122.005 -0.59 -0.00    +0.000 C 
DOCKED: ENDROOT
DOCKED: BRANCH   1   2
DOCKED: ATOM      2  C   UNL     1      36.406  10.630 123.080 -0.70 -0.00    +0.000 C 
DOCKED: BRANCH   2   4
DOCKED: ATOM      3  N   UNL     1      36.801   8.127 123.272 -0.73 -0.00    +0.000 N 
DOCKED: ATOM      4  C   UNL     1      36.712   9.300 122.459 -0.73 -0.00    +0.000 C 
DOCKED: ATOM      5  O   UNL     1      36.850   9.211 121.209 -2.68 -0.00    +0.000 OA
DOCKED: ATOM      6  H   UNL     1      36.667   8.197 124.245 -0.32 -0.00    +0.000 HD
DOCKED: BRANCH   3   7
DOCKED: ATOM      7  O   UNL     1      37.068   6.921 122.715 -1.61 -0.00    +0.000 OA
DOCKED: ATOM      8  H   UNL     1      37.207   7.031 121.761 -0.17 -0.00    +0.000 HD
DOCKED: ENDBRANCH   3   7
DOCKED: ENDBRANCH   2   4
DOCKED: ENDBRANCH   1   2
DOCKED: BRANCH   1   9
DOCKED: ATOM      9  C   UNL     1      37.323  12.843 122.283 -0.54 -0.00    +0.000 C 
DOCKED: BRANCH   9  10
DOCKED: ATOM     10  C   UNL     1      36.604  14.095 122.710 -0.41 -0.00    +0.000 A 
DOCKED: ATOM     11  C   UNL     1      36.966  15.340 122.170 -0.28 -0.00    +0.000 A 
DOCKED: ATOM     12  C   UNL     1      36.319  16.506 122.591 -0.26 -0.00    +0.000 A 
DOCKED: ATOM     13  C   UNL     1      35.314  16.439 123.560 -0.38 -0.00    +0.000 A 
DOCKED: ATOM     14  C   UNL     1      34.957  15.204 124.111 -0.52 -0.00    +0.000 A 
DOCKED: ATOM     15  C   UNL     1      35.601  14.036 123.693 -0.47 -0.00    +0.000 A 
DOCKED: ATOM     16  CM  UNL     1      35.960  15.270 123.140 +0.00 -0.00    +0.000 AC
DOCKED: ENDBRANCH   9  10
DOCKED: ENDBRANCH   1   9
DOCKED: TORSDOF 5DOCKED: TER
DOCKED: ENDMDL
________________________________________________________________________________


	BEGINNING GENETIC ALGORITHM DOCKING 53 of 100
Run: 53 Seed: 97863007 799439237 [ Run 53 of 100 GA/GALS ]
Beginning LAMARCKIAN GENETIC ALGORITHM (LGA), with a maximum of 2500000 energy evaluations.

Final-Value: -11.844


	FINAL GENETIC ALGORITHM DOCKED STATE
	_______________________________________________


Detailed state:  trans 37.121 11.596 123.925 quatxyzw -0.305064 0.535875 -0.209272 -0.758933 center 0.725 -0.143 0.203 ntor 5 -162.1992 87.9871 17.7765 100.5032 92.2752
State:	 37.121  11.596 123.925  -0.468  0.823 -0.321 -81.260   -162.20   87.99   17.78  100.50   92.28

DOCKED: MODEL       53
DOCKED: USER    Run = 53
DOCKED: USER    DPF = ligand_dock.biased.dpf
DOCKED: USER  
DOCKED: USER    Estimated Free Energy of Binding    =   -9.51 kcal/mol  [=(1)+(2)+(3)-(4)]
DOCKED: USER    Estimated Inhibition Constant, Ki   =  106.39 nM (nanomolar)  [Temperature = 298.15 K]
DOCKED: USER    
DOCKED: USER    (1) Final Intermolecular Energy     =  -11.00 kcal/mol
DOCKED: USER        vdW + Hbond + desolv Energy     =  -11.00 kcal/mol
DOCKED: USER        Electrostatic Energy            =   +0.00 kcal/mol
DOCKED: USER    (2) Final Total Internal Energy     =   -0.84 kcal/mol
DOCKED: USER    (3) Torsional Free Energy           =   +1.49 kcal/mol
DOCKED: USER    (4) Unbound System's Energy  [=(2)] =   -0.84 kcal/mol
DOCKED: USER    
DOCKED: USER    
DOCKED: USER    NEWDPF move ligand.dum.pdbqt
DOCKED: USER    NEWDPF about 0.725000 -0.143000 0.203000
DOCKED: USER    NEWDPF tran0 37.120640 11.595588 123.924510
DOCKED: USER    NEWDPF quaternion0 -0.305064 0.535875 -0.209272 -0.758933
DOCKED: USER    NEWDPF axisangle0 -0.468488 0.822943 -0.321379 -81.259568
DOCKED: USER    NEWDPF quat0 -0.468488 0.822943 -0.321379 -81.259568
DOCKED: USER    NEWDPF dihe0 -162.20 87.99 17.78 100.50 92.28 
DOCKED: USER  keepresnum = 1 
DOCKED: USER  
DOCKED: REMARK  Name = 
DOCKED: REMARK  5 active torsions:
DOCKED: REMARK  status: ('A' for Active; 'I' for Inactive)
DOCKED: REMARK    1  A    between atoms: O_1  and  N_2
DOCKED: REMARK    2  A    between atoms: C_3  and  C_4
DOCKED: REMARK    3  A    between atoms: C_4  and  C_5
DOCKED: REMARK    4  A    between atoms: C_5  and  C_6
DOCKED: REMARK    5  A    between atoms: C_6  and  C_7
DOCKED: REMARK                            x       y       z     vdW  Elec       q    Type
DOCKED: REMARK                         _______ _______ _______ _____ _____    ______ ____
DOCKED: USER                              x       y       z     vdW  Elec       q    Type
DOCKED: USER                           _______ _______ _______ _____ _____    ______ ____
DOCKED: ROOT
DOCKED: ATOM      1  C   UNL     1      36.644  11.528 123.513 -0.70 -0.00    +0.000 C 
DOCKED: ENDROOT
DOCKED: BRANCH   1   2
DOCKED: ATOM      2  C   UNL     1      36.664  10.958 122.092 -0.63 -0.00    +0.000 C 
DOCKED: BRANCH   2   4
DOCKED: ATOM      3  N   UNL     1      37.069   8.798 123.366 -0.64 -0.00    +0.000 N 
DOCKED: ATOM      4  C   UNL     1      36.958   9.489 122.119 -0.64 -0.00    +0.000 C 
DOCKED: ATOM      5  O   UNL     1      37.067   8.853 121.036 -2.70 -0.00    +0.000 OA
DOCKED: ATOM      6  H   UNL     1      36.958   9.293 124.209 -0.55 -0.00    +0.000 HD
DOCKED: BRANCH   3   7
DOCKED: ATOM      7  O   UNL     1      37.326   7.468 123.397 -2.08 -0.00    +0.000 OA
DOCKED: ATOM      8  H   UNL     1      37.680   7.189 122.538 -0.30 -0.00    +0.000 HD
DOCKED: ENDBRANCH   3   7
DOCKED: ENDBRANCH   2   4
DOCKED: ENDBRANCH   1   2
DOCKED: BRANCH   1   9
DOCKED: ATOM      9  C   UNL     1      35.934  12.885 123.552 -0.62 -0.00    +0.000 C 
DOCKED: BRANCH   9  10
DOCKED: ATOM     10  C   UNL     1      36.906  13.998 123.266 -0.46 -0.00    +0.000 A 
DOCKED: ATOM     11  C   UNL     1      36.520  15.338 123.437 -0.38 -0.00    +0.000 A 
DOCKED: ATOM     12  C   UNL     1      37.413  16.372 123.140 -0.25 -0.00    +0.000 A 
DOCKED: ATOM     13  C   UNL     1      38.693  16.077 122.661 -0.26 -0.00    +0.000 A 
DOCKED: ATOM     14  C   UNL     1      39.079  14.746 122.476 -0.37 -0.00    +0.000 A 
DOCKED: ATOM     15  C   UNL     1      38.190  13.709 122.771 -0.42 -0.00    +0.000 A 
DOCKED: ATOM     16  CM  UNL     1      37.800  15.039 122.958 +0.00 -0.00    +0.000 AC
DOCKED: ENDBRANCH   9  10
DOCKED: ENDBRANCH   1   9
DOCKED: TORSDOF 5DOCKED: TER
DOCKED: ENDMDL
________________________________________________________________________________


	BEGINNING GENETIC ALGORITHM DOCKING 54 of 100
Run: 54 Seed: 113562242 1728647558 [ Run 54 of 100 GA/GALS ]
Beginning LAMARCKIAN GENETIC ALGORITHM (LGA), with a maximum of 2500000 energy evaluations.

Final-Value: -11.902


	FINAL GENETIC ALGORITHM DOCKED STATE
	_______________________________________________


Detailed state:  trans 37.079 12.420 121.610 quatxyzw -0.437331 0.748817 0.497211 -0.028217 center 0.725 -0.143 0.203 ntor 5 -172.4352 177.1488 84.5568 -178.3832 66.5024
State:	 37.079  12.420 121.610  -0.438  0.749  0.497 -176.766   -172.44  177.15   84.56 -178.38   66.50

DOCKED: MODEL       54
DOCKED: USER    Run = 54
DOCKED: USER    DPF = ligand_dock.biased.dpf
DOCKED: USER  
DOCKED: USER    Estimated Free Energy of Binding    =   -9.51 kcal/mol  [=(1)+(2)+(3)-(4)]
DOCKED: USER    Estimated Inhibition Constant, Ki   =  107.46 nM (nanomolar)  [Temperature = 298.15 K]
DOCKED: USER    
DOCKED: USER    (1) Final Intermolecular Energy     =  -11.00 kcal/mol
DOCKED: USER        vdW + Hbond + desolv Energy     =  -11.00 kcal/mol
DOCKED: USER        Electrostatic Energy            =   +0.00 kcal/mol
DOCKED: USER    (2) Final Total Internal Energy     =   -0.90 kcal/mol
DOCKED: USER    (3) Torsional Free Energy           =   +1.49 kcal/mol
DOCKED: USER    (4) Unbound System's Energy  [=(2)] =   -0.90 kcal/mol
DOCKED: USER    
DOCKED: USER    
DOCKED: USER    NEWDPF move ligand.dum.pdbqt
DOCKED: USER    NEWDPF about 0.725000 -0.143000 0.203000
DOCKED: USER    NEWDPF tran0 37.078695 12.419831 121.609658
DOCKED: USER    NEWDPF quaternion0 -0.437331 0.748817 0.497211 -0.028217
DOCKED: USER    NEWDPF axisangle0 -0.437505 0.749115 0.497409 -176.766087
DOCKED: USER    NEWDPF quat0 -0.437505 0.749115 0.497409 -176.766087
DOCKED: USER    NEWDPF dihe0 -172.44 177.15 84.56 -178.38 66.50 
DOCKED: USER  keepresnum = 1 
DOCKED: USER  
DOCKED: REMARK  Name = 
DOCKED: REMARK  5 active torsions:
DOCKED: REMARK  status: ('A' for Active; 'I' for Inactive)
DOCKED: REMARK    1  A    between atoms: O_1  and  N_2
DOCKED: REMARK    2  A    between atoms: C_3  and  C_4
DOCKED: REMARK    3  A    between atoms: C_4  and  C_5
DOCKED: REMARK    4  A    between atoms: C_5  and  C_6
DOCKED: REMARK    5  A    between atoms: C_6  and  C_7
DOCKED: REMARK                            x       y       z     vdW  Elec       q    Type
DOCKED: REMARK                         _______ _______ _______ _____ _____    ______ ____
DOCKED: USER                              x       y       z     vdW  Elec       q    Type
DOCKED: USER                           _______ _______ _______ _____ _____    ______ ____
DOCKED: ROOT
DOCKED: ATOM      1  C   UNL     1      37.036  11.913 121.986 -0.58 -0.00    +0.000 C 
DOCKED: ENDROOT
DOCKED: BRANCH   1   2
DOCKED: ATOM      2  C   UNL     1      36.001  10.784 121.979 -0.54 -0.00    +0.000 C 
DOCKED: BRANCH   2   4
DOCKED: ATOM      3  N   UNL     1      36.841   8.837 123.378 -0.61 -0.00    +0.000 N 
DOCKED: ATOM      4  C   UNL     1      36.676   9.452 122.097 -0.70 -0.00    +0.000 C 
DOCKED: ATOM      5  O   UNL     1      37.063   8.853 121.058 -2.70 -0.00    +0.000 OA
DOCKED: ATOM      6  H   UNL     1      36.515   9.297 124.185 -0.41 -0.00    +0.000 HD
DOCKED: BRANCH   3   7
DOCKED: ATOM      7  O   UNL     1      37.443   7.629 123.490 -2.11 -0.00    +0.000 OA
DOCKED: ATOM      8  H   UNL     1      37.810   7.370 122.630 -0.32 -0.00    +0.000 HD
DOCKED: ENDBRANCH   3   7
DOCKED: ENDBRANCH   2   4
DOCKED: ENDBRANCH   1   2
DOCKED: BRANCH   1   9
DOCKED: ATOM      9  C   UNL     1      37.211  12.489 123.395 -0.62 -0.00    +0.000 C 
DOCKED: BRANCH   9  10
DOCKED: ATOM     10  C   UNL     1      36.716  13.910 123.449 -0.48 -0.00    +0.000 A 
DOCKED: ATOM     11  C   UNL     1      37.588  14.976 123.168 -0.35 -0.00    +0.000 A 
DOCKED: ATOM     12  C   UNL     1      37.135  16.296 123.250 -0.27 -0.00    +0.000 A 
DOCKED: ATOM     13  C   UNL     1      35.814  16.563 123.622 -0.33 -0.00    +0.000 A 
DOCKED: ATOM     14  C   UNL     1      34.945  15.507 123.914 -0.50 -0.00    +0.000 A 
DOCKED: ATOM     15  C   UNL     1      35.393  14.186 123.834 -0.45 -0.00    +0.000 A 
DOCKED: ATOM     16  CM  UNL     1      36.265  15.239 123.540 +0.00 -0.00    +0.000 AC
DOCKED: ENDBRANCH   9  10
DOCKED: ENDBRANCH   1   9
DOCKED: TORSDOF 5DOCKED: TER
DOCKED: ENDMDL
________________________________________________________________________________


	BEGINNING GENETIC ALGORITHM DOCKING 55 of 100
Run: 55 Seed: 1177784804 1554192206 [ Run 55 of 100 GA/GALS ]
Beginning LAMARCKIAN GENETIC ALGORITHM (LGA), with a maximum of 2500000 energy evaluations.

Final-Value: -11.200


	FINAL GENETIC ALGORITHM DOCKED STATE
	_______________________________________________


Detailed state:  trans 37.831 11.770 122.773 quatxyzw 0.491540 -0.786169 0.271137 0.258478 center 0.725 -0.143 0.203 ntor 5 -177.8204 -179.9606 -25.2527 122.3597 84.9903
State:	 37.831  11.770 122.773   0.509 -0.814  0.281 150.041   -177.82 -179.96  -25.25  122.36   84.99

DOCKED: MODEL       55
DOCKED: USER    Run = 55
DOCKED: USER    DPF = ligand_dock.biased.dpf
DOCKED: USER  
DOCKED: USER    Estimated Free Energy of Binding    =   -8.73 kcal/mol  [=(1)+(2)+(3)-(4)]
DOCKED: USER    Estimated Inhibition Constant, Ki   =  396.74 nM (nanomolar)  [Temperature = 298.15 K]
DOCKED: USER    
DOCKED: USER    (1) Final Intermolecular Energy     =  -10.22 kcal/mol
DOCKED: USER        vdW + Hbond + desolv Energy     =  -10.22 kcal/mol
DOCKED: USER        Electrostatic Energy            =   +0.00 kcal/mol
DOCKED: USER    (2) Final Total Internal Energy     =   -0.98 kcal/mol
DOCKED: USER    (3) Torsional Free Energy           =   +1.49 kcal/mol
DOCKED: USER    (4) Unbound System's Energy  [=(2)] =   -0.98 kcal/mol
DOCKED: USER    
DOCKED: USER    
DOCKED: USER    NEWDPF move ligand.dum.pdbqt
DOCKED: USER    NEWDPF about 0.725000 -0.143000 0.203000
DOCKED: USER    NEWDPF tran0 37.831174 11.769711 122.772673
DOCKED: USER    NEWDPF quaternion0 0.491540 -0.786169 0.271137 0.258478
DOCKED: USER    NEWDPF axisangle0 0.508832 -0.813825 0.280675 150.040510
DOCKED: USER    NEWDPF quat0 0.508832 -0.813825 0.280675 150.040510
DOCKED: USER    NEWDPF dihe0 -177.82 -179.96 -25.25 122.36 84.99 
DOCKED: USER  keepresnum = 1 
DOCKED: USER  
DOCKED: REMARK  Name = 
DOCKED: REMARK  5 active torsions:
DOCKED: REMARK  status: ('A' for Active; 'I' for Inactive)
DOCKED: REMARK    1  A    between atoms: O_1  and  N_2
DOCKED: REMARK    2  A    between atoms: C_3  and  C_4
DOCKED: REMARK    3  A    between atoms: C_4  and  C_5
DOCKED: REMARK    4  A    between atoms: C_5  and  C_6
DOCKED: REMARK    5  A    between atoms: C_6  and  C_7
DOCKED: REMARK                            x       y       z     vdW  Elec       q    Type
DOCKED: REMARK                         _______ _______ _______ _____ _____    ______ ____
DOCKED: USER                              x       y       z     vdW  Elec       q    Type
DOCKED: USER                           _______ _______ _______ _____ _____    ______ ____
DOCKED: ROOT
DOCKED: ATOM      1  C   UNL     1      37.238  11.804 122.993 -0.56 -0.00    +0.000 C 
DOCKED: ENDROOT
DOCKED: BRANCH   1   2
DOCKED: ATOM      2  C   UNL     1      36.058  10.860 122.750 -0.69 -0.00    +0.000 C 
DOCKED: BRANCH   2   4
DOCKED: ATOM      3  N   UNL     1      36.641   8.474 123.399 -0.66 -0.00    +0.000 N 
DOCKED: ATOM      4  C   UNL     1      36.546   9.488 122.396 -0.72 -0.00    +0.000 C 
DOCKED: ATOM      5  O   UNL     1      36.835   9.218 121.198 -2.67 -0.00    +0.000 OA
DOCKED: ATOM      6  H   UNL     1      36.390   8.682 124.327 -0.29 -0.00    +0.000 HD
DOCKED: BRANCH   3   7
DOCKED: ATOM      7  O   UNL     1      37.074   7.230 123.082 -2.05 -0.00    +0.000 OA
DOCKED: ATOM      8  H   UNL     1      37.311   7.201 122.142 -0.14 -0.00    +0.000 HD
DOCKED: ENDBRANCH   3   7
DOCKED: ENDBRANCH   2   4
DOCKED: ENDBRANCH   1   2
DOCKED: BRANCH   1   9
DOCKED: ATOM      9  C   UNL     1      36.840  13.261 122.737 -0.56 -0.00    +0.000 C 
DOCKED: BRANCH   9  10
DOCKED: ATOM     10  C   UNL     1      37.196  13.667 121.331 -0.36 -0.00    +0.000 A 
DOCKED: ATOM     11  C   UNL     1      37.545  14.997 121.045 -0.26 -0.00    +0.000 A 
DOCKED: ATOM     12  C   UNL     1      37.845  15.380 119.733 -0.19 -0.00    +0.000 A 
DOCKED: ATOM     13  C   UNL     1      37.789  14.441 118.699 -0.26 -0.00    +0.000 A 
DOCKED: ATOM     14  C   UNL     1      37.430  13.118 118.976 -0.39 -0.00    +0.000 A 
DOCKED: ATOM     15  C   UNL     1      37.129  12.731 120.285 -0.43 -0.00    +0.000 A 
DOCKED: ATOM     16  CM  UNL     1      37.489  14.055 120.012 +0.00 -0.00    +0.000 AC
DOCKED: ENDBRANCH   9  10
DOCKED: ENDBRANCH   1   9
DOCKED: TORSDOF 5DOCKED: TER
DOCKED: ENDMDL
________________________________________________________________________________


	BEGINNING GENETIC ALGORITHM DOCKING 56 of 100
Run: 56 Seed: 1134540177 115129661 [ Run 56 of 100 GA/GALS ]
Beginning LAMARCKIAN GENETIC ALGORITHM (LGA), with a maximum of 2500000 energy evaluations.

Final-Value: -12.041


	FINAL GENETIC ALGORITHM DOCKED STATE
	_______________________________________________


Detailed state:  trans 37.624 12.190 123.307 quatxyzw 0.507357 -0.609772 -0.131285 0.594585 center 0.725 -0.143 0.203 ntor 5 -147.7538 104.3317 61.7982 84.8720 78.9273
State:	 37.624  12.190 123.307   0.631 -0.758 -0.163 107.034   -147.75  104.33   61.80   84.87   78.93

DOCKED: MODEL       56
DOCKED: USER    Run = 56
DOCKED: USER    DPF = ligand_dock.biased.dpf
DOCKED: USER  
DOCKED: USER    Estimated Free Energy of Binding    =   -9.80 kcal/mol  [=(1)+(2)+(3)-(4)]
DOCKED: USER    Estimated Inhibition Constant, Ki   =   65.67 nM (nanomolar)  [Temperature = 298.15 K]
DOCKED: USER    
DOCKED: USER    (1) Final Intermolecular Energy     =  -11.29 kcal/mol
DOCKED: USER        vdW + Hbond + desolv Energy     =  -11.29 kcal/mol
DOCKED: USER        Electrostatic Energy            =   +0.00 kcal/mol
DOCKED: USER    (2) Final Total Internal Energy     =   -0.75 kcal/mol
DOCKED: USER    (3) Torsional Free Energy           =   +1.49 kcal/mol
DOCKED: USER    (4) Unbound System's Energy  [=(2)] =   -0.75 kcal/mol
DOCKED: USER    
DOCKED: USER    
DOCKED: USER    NEWDPF move ligand.dum.pdbqt
DOCKED: USER    NEWDPF about 0.725000 -0.143000 0.203000
DOCKED: USER    NEWDPF tran0 37.623664 12.190381 123.307461
DOCKED: USER    NEWDPF quaternion0 0.507357 -0.609772 -0.131285 0.594585
DOCKED: USER    NEWDPF axisangle0 0.631015 -0.758392 -0.163283 107.033936
DOCKED: USER    NEWDPF quat0 0.631015 -0.758392 -0.163283 107.033936
DOCKED: USER    NEWDPF dihe0 -147.75 104.33 61.80 84.87 78.93 
DOCKED: USER  keepresnum = 1 
DOCKED: USER  
DOCKED: REMARK  Name = 
DOCKED: REMARK  5 active torsions:
DOCKED: REMARK  status: ('A' for Active; 'I' for Inactive)
DOCKED: REMARK    1  A    between atoms: O_1  and  N_2
DOCKED: REMARK    2  A    between atoms: C_3  and  C_4
DOCKED: REMARK    3  A    between atoms: C_4  and  C_5
DOCKED: REMARK    4  A    between atoms: C_5  and  C_6
DOCKED: REMARK    5  A    between atoms: C_6  and  C_7
DOCKED: REMARK                            x       y       z     vdW  Elec       q    Type
DOCKED: REMARK                         _______ _______ _______ _____ _____    ______ ____
DOCKED: USER                              x       y       z     vdW  Elec       q    Type
DOCKED: USER                           _______ _______ _______ _____ _____    ______ ____
DOCKED: ROOT
DOCKED: ATOM      1  C   UNL     1      37.143  11.791 123.206 -0.62 -0.00    +0.000 C 
DOCKED: ENDROOT
DOCKED: BRANCH   1   2
DOCKED: ATOM      2  C   UNL     1      36.734  11.072 121.918 -0.61 -0.00    +0.000 C 
DOCKED: BRANCH   2   4
DOCKED: ATOM      3  N   UNL     1      37.057   8.988 123.335 -0.62 -0.00    +0.000 N 
DOCKED: ATOM      4  C   UNL     1      36.966   9.597 122.044 -0.63 -0.00    +0.000 C 
DOCKED: ATOM      5  O   UNL     1      37.041   8.884 121.007 -2.70 -0.00    +0.000 OA
DOCKED: ATOM      6  H   UNL     1      36.973   9.544 124.143 -0.54 -0.00    +0.000 HD
DOCKED: BRANCH   3   7
DOCKED: ATOM      7  O   UNL     1      37.258   7.654 123.456 -2.20 -0.00    +0.000 OA
DOCKED: ATOM      8  H   UNL     1      37.800   7.341 122.714 -0.39 -0.00    +0.000 HD
DOCKED: ENDBRANCH   3   7
DOCKED: ENDBRANCH   2   4
DOCKED: ENDBRANCH   1   2
DOCKED: BRANCH   1   9
DOCKED: ATOM      9  C   UNL     1      35.943  12.499 123.845 -0.61 -0.00    +0.000 C 
DOCKED: BRANCH   9  10
DOCKED: ATOM     10  C   UNL     1      35.973  13.972 123.536 -0.49 -0.00    +0.000 A 
DOCKED: ATOM     11  C   UNL     1      34.897  14.796 123.907 -0.48 -0.00    +0.000 A 
DOCKED: ATOM     12  C   UNL     1      34.912  16.158 123.591 -0.44 -0.00    +0.000 A 
DOCKED: ATOM     13  C   UNL     1      35.994  16.705 122.895 -0.28 -0.00    +0.000 A 
DOCKED: ATOM     14  C   UNL     1      37.063  15.888 122.513 -0.27 -0.00    +0.000 A 
DOCKED: ATOM     15  C   UNL     1      37.052  14.526 122.826 -0.40 -0.00    +0.000 A 
DOCKED: ATOM     16  CM  UNL     1      35.982  15.341 123.211 +0.00 -0.00    +0.000 AC
DOCKED: ENDBRANCH   9  10
DOCKED: ENDBRANCH   1   9
DOCKED: TORSDOF 5DOCKED: TER
DOCKED: ENDMDL
________________________________________________________________________________


	BEGINNING GENETIC ALGORITHM DOCKING 57 of 100
Run: 57 Seed: 146572555 1173249335 [ Run 57 of 100 GA/GALS ]
Beginning LAMARCKIAN GENETIC ALGORITHM (LGA), with a maximum of 2500000 energy evaluations.

Final-Value: -11.134


	FINAL GENETIC ALGORITHM DOCKED STATE
	_______________________________________________


Detailed state:  trans 37.434 11.821 122.989 quatxyzw -0.456504 0.595756 -0.563166 -0.345721 center 0.725 -0.143 0.203 ntor 5 171.9353 177.5807 -57.9225 -178.4678 -7.0396
State:	 37.434  11.821 122.989  -0.487  0.635 -0.600 -139.548    171.94  177.58  -57.92 -178.47   -7.04

DOCKED: MODEL       57
DOCKED: USER    Run = 57
DOCKED: USER    DPF = ligand_dock.biased.dpf
DOCKED: USER  
DOCKED: USER    Estimated Free Energy of Binding    =   -8.79 kcal/mol  [=(1)+(2)+(3)-(4)]
DOCKED: USER    Estimated Inhibition Constant, Ki   =  362.53 nM (nanomolar)  [Temperature = 298.15 K]
DOCKED: USER    
DOCKED: USER    (1) Final Intermolecular Energy     =  -10.28 kcal/mol
DOCKED: USER        vdW + Hbond + desolv Energy     =  -10.28 kcal/mol
DOCKED: USER        Electrostatic Energy            =   +0.00 kcal/mol
DOCKED: USER    (2) Final Total Internal Energy     =   -0.86 kcal/mol
DOCKED: USER    (3) Torsional Free Energy           =   +1.49 kcal/mol
DOCKED: USER    (4) Unbound System's Energy  [=(2)] =   -0.86 kcal/mol
DOCKED: USER    
DOCKED: USER    
DOCKED: USER    NEWDPF move ligand.dum.pdbqt
DOCKED: USER    NEWDPF about 0.725000 -0.143000 0.203000
DOCKED: USER    NEWDPF tran0 37.434374 11.821254 122.989297
DOCKED: USER    NEWDPF quaternion0 -0.456504 0.595756 -0.563166 -0.345721
DOCKED: USER    NEWDPF axisangle0 -0.486503 0.634906 -0.600175 -139.548417
DOCKED: USER    NEWDPF quat0 -0.486503 0.634906 -0.600175 -139.548417
DOCKED: USER    NEWDPF dihe0 171.94 177.58 -57.92 -178.47 -7.04 
DOCKED: USER  keepresnum = 1 
DOCKED: USER  
DOCKED: REMARK  Name = 
DOCKED: REMARK  5 active torsions:
DOCKED: REMARK  status: ('A' for Active; 'I' for Inactive)
DOCKED: REMARK    1  A    between atoms: O_1  and  N_2
DOCKED: REMARK    2  A    between atoms: C_3  and  C_4
DOCKED: REMARK    3  A    between atoms: C_4  and  C_5
DOCKED: REMARK    4  A    between atoms: C_5  and  C_6
DOCKED: REMARK    5  A    between atoms: C_6  and  C_7
DOCKED: REMARK                            x       y       z     vdW  Elec       q    Type
DOCKED: REMARK                         _______ _______ _______ _____ _____    ______ ____
DOCKED: USER                              x       y       z     vdW  Elec       q    Type
DOCKED: USER                           _______ _______ _______ _____ _____    ______ ____
DOCKED: ROOT
DOCKED: ATOM      1  C   UNL     1      36.819  11.855 122.843 -0.66 -0.00    +0.000 C 
DOCKED: ENDROOT
DOCKED: BRANCH   1   2
DOCKED: ATOM      2  C   UNL     1      35.844  10.731 122.483 -0.66 -0.00    +0.000 C 
DOCKED: BRANCH   2   4
DOCKED: ATOM      3  N   UNL     1      36.685   8.521 123.413 -0.65 -0.00    +0.000 N 
DOCKED: ATOM      4  C   UNL     1      36.577   9.434 122.317 -0.72 -0.00    +0.000 C 
DOCKED: ATOM      5  O   UNL     1      37.064   9.130 121.195 -2.73 -0.00    +0.000 OA
DOCKED: ATOM      6  H   UNL     1      36.281   8.751 124.280 -0.27 -0.00    +0.000 HD
DOCKED: BRANCH   3   7
DOCKED: ATOM      7  O   UNL     1      37.338   7.343 123.266 -2.00 -0.00    +0.000 OA
DOCKED: ATOM      8  H   UNL     1      37.563   7.213 122.331 -0.19 -0.00    +0.000 HD
DOCKED: ENDBRANCH   3   7
DOCKED: ENDBRANCH   2   4
DOCKED: ENDBRANCH   1   2
DOCKED: BRANCH   1   9
DOCKED: ATOM      9  C   UNL     1      36.753  12.991 121.816 -0.47 -0.00    +0.000 C 
DOCKED: BRANCH   9  10
DOCKED: ATOM     10  C   UNL     1      37.587  14.160 122.268 -0.40 -0.00    +0.000 A 
DOCKED: ATOM     11  C   UNL     1      37.018  15.172 123.059 -0.36 -0.00    +0.000 A 
DOCKED: ATOM     12  C   UNL     1      37.785  16.274 123.451 -0.26 -0.00    +0.000 A 
DOCKED: ATOM     13  C   UNL     1      39.120  16.378 123.049 -0.23 -0.00    +0.000 A 
DOCKED: ATOM     14  C   UNL     1      39.688  15.380 122.251 -0.34 -0.00    +0.000 A 
DOCKED: ATOM     15  C   UNL     1      38.926  14.277 121.857 -0.34 -0.00    +0.000 A 
DOCKED: ATOM     16  CM  UNL     1      38.354  15.273 122.655 +0.00 -0.00    +0.000 AC
DOCKED: ENDBRANCH   9  10
DOCKED: ENDBRANCH   1   9
DOCKED: TORSDOF 5DOCKED: TER
DOCKED: ENDMDL
________________________________________________________________________________


	BEGINNING GENETIC ALGORITHM DOCKING 58 of 100
Run: 58 Seed: 880768852 657395778 [ Run 58 of 100 GA/GALS ]
Beginning LAMARCKIAN GENETIC ALGORITHM (LGA), with a maximum of 2500000 energy evaluations.

Final-Value: -11.850


	FINAL GENETIC ALGORITHM DOCKED STATE
	_______________________________________________


Detailed state:  trans 37.394 11.620 123.837 quatxyzw 0.370751 -0.601000 0.096374 0.701466 center 0.725 -0.143 0.203 ntor 5 -162.0931 100.5942 27.8195 99.5478 86.2265
State:	 37.394  11.620 123.837   0.520 -0.843  0.135 90.911   -162.09  100.59   27.82   99.55   86.23

DOCKED: MODEL       58
DOCKED: USER    Run = 58
DOCKED: USER    DPF = ligand_dock.biased.dpf
DOCKED: USER  
DOCKED: USER    Estimated Free Energy of Binding    =   -9.51 kcal/mol  [=(1)+(2)+(3)-(4)]
DOCKED: USER    Estimated Inhibition Constant, Ki   =  107.31 nM (nanomolar)  [Temperature = 298.15 K]
DOCKED: USER    
DOCKED: USER    (1) Final Intermolecular Energy     =  -11.00 kcal/mol
DOCKED: USER        vdW + Hbond + desolv Energy     =  -11.00 kcal/mol
DOCKED: USER        Electrostatic Energy            =   +0.00 kcal/mol
DOCKED: USER    (2) Final Total Internal Energy     =   -0.85 kcal/mol
DOCKED: USER    (3) Torsional Free Energy           =   +1.49 kcal/mol
DOCKED: USER    (4) Unbound System's Energy  [=(2)] =   -0.85 kcal/mol
DOCKED: USER    
DOCKED: USER    
DOCKED: USER    NEWDPF move ligand.dum.pdbqt
DOCKED: USER    NEWDPF about 0.725000 -0.143000 0.203000
DOCKED: USER    NEWDPF tran0 37.393798 11.620337 123.836752
DOCKED: USER    NEWDPF quaternion0 0.370751 -0.601000 0.096374 0.701466
DOCKED: USER    NEWDPF axisangle0 0.520205 -0.843269 0.135223 90.910528
DOCKED: USER    NEWDPF quat0 0.520205 -0.843269 0.135223 90.910528
DOCKED: USER    NEWDPF dihe0 -162.09 100.59 27.82 99.55 86.23 
DOCKED: USER  keepresnum = 1 
DOCKED: USER  
DOCKED: REMARK  Name = 
DOCKED: REMARK  5 active torsions:
DOCKED: REMARK  status: ('A' for Active; 'I' for Inactive)
DOCKED: REMARK    1  A    between atoms: O_1  and  N_2
DOCKED: REMARK    2  A    between atoms: C_3  and  C_4
DOCKED: REMARK    3  A    between atoms: C_4  and  C_5
DOCKED: REMARK    4  A    between atoms: C_5  and  C_6
DOCKED: REMARK    5  A    between atoms: C_6  and  C_7
DOCKED: REMARK                            x       y       z     vdW  Elec       q    Type
DOCKED: REMARK                         _______ _______ _______ _____ _____    ______ ____
DOCKED: USER                              x       y       z     vdW  Elec       q    Type
DOCKED: USER                           _______ _______ _______ _____ _____    ______ ____
DOCKED: ROOT
DOCKED: ATOM      1  C   UNL     1      36.848  11.465 123.557 -0.69 -0.00    +0.000 C 
DOCKED: ENDROOT
DOCKED: BRANCH   1   2
DOCKED: ATOM      2  C   UNL     1      36.603  10.895 122.157 -0.64 -0.00    +0.000 C 
DOCKED: BRANCH   2   4
DOCKED: ATOM      3  N   UNL     1      37.015   8.685 123.341 -0.66 -0.00    +0.000 N 
DOCKED: ATOM      4  C   UNL     1      36.920   9.430 122.124 -0.66 -0.00    +0.000 C 
DOCKED: ATOM      5  O   UNL     1      37.063   8.846 121.016 -2.70 -0.00    +0.000 OA
DOCKED: ATOM      6  H   UNL     1      36.878   9.139 124.203 -0.52 -0.00    +0.000 HD
DOCKED: BRANCH   3   7
DOCKED: ATOM      7  O   UNL     1      37.293   7.359 123.317 -2.03 -0.00    +0.000 OA
DOCKED: ATOM      8  H   UNL     1      37.672   7.125 122.455 -0.29 -0.00    +0.000 HD
DOCKED: ENDBRANCH   3   7
DOCKED: ENDBRANCH   2   4
DOCKED: ENDBRANCH   1   2
DOCKED: BRANCH   1   9
DOCKED: ATOM      9  C   UNL     1      35.946  12.675 123.823 -0.61 -0.00    +0.000 C 
DOCKED: BRANCH   9  10
DOCKED: ATOM     10  C   UNL     1      36.662  13.953 123.477 -0.47 -0.00    +0.000 A 
DOCKED: ATOM     11  C   UNL     1      36.091  15.195 123.802 -0.42 -0.00    +0.000 A 
DOCKED: ATOM     12  C   UNL     1      36.742  16.383 123.452 -0.29 -0.00    +0.000 A 
DOCKED: ATOM     13  C   UNL     1      37.959  16.339 122.767 -0.23 -0.00    +0.000 A 
DOCKED: ATOM     14  C   UNL     1      38.527  15.106 122.429 -0.34 -0.00    +0.000 A 
DOCKED: ATOM     15  C   UNL     1      37.880  13.917 122.777 -0.44 -0.00    +0.000 A 
DOCKED: ATOM     16  CM  UNL     1      37.310  15.148 123.117 +0.00 -0.00    +0.000 AC
DOCKED: ENDBRANCH   9  10
DOCKED: ENDBRANCH   1   9
DOCKED: TORSDOF 5DOCKED: TER
DOCKED: ENDMDL
________________________________________________________________________________


	BEGINNING GENETIC ALGORITHM DOCKING 59 of 100
Run: 59 Seed: 1911491627 153763324 [ Run 59 of 100 GA/GALS ]
Beginning LAMARCKIAN GENETIC ALGORITHM (LGA), with a maximum of 2500000 energy evaluations.

Final-Value: -11.815


	FINAL GENETIC ALGORITHM DOCKED STATE
	_______________________________________________


Detailed state:  trans 36.698 12.238 121.772 quatxyzw 0.452805 -0.750079 -0.481204 -0.028139 center 0.725 -0.143 0.203 ntor 5 -180.0000 -170.1821 75.1656 -174.3190 56.0327
State:	 36.698  12.238 121.772   0.453 -0.750 -0.481 -176.775   -180.00 -170.18   75.17 -174.32   56.03

DOCKED: MODEL       59
DOCKED: USER    Run = 59
DOCKED: USER    DPF = ligand_dock.biased.dpf
DOCKED: USER  
DOCKED: USER    Estimated Free Energy of Binding    =   -9.44 kcal/mol  [=(1)+(2)+(3)-(4)]
DOCKED: USER    Estimated Inhibition Constant, Ki   =  121.09 nM (nanomolar)  [Temperature = 298.15 K]
DOCKED: USER    
DOCKED: USER    (1) Final Intermolecular Energy     =  -10.93 kcal/mol
DOCKED: USER        vdW + Hbond + desolv Energy     =  -10.93 kcal/mol
DOCKED: USER        Electrostatic Energy            =   +0.00 kcal/mol
DOCKED: USER    (2) Final Total Internal Energy     =   -0.89 kcal/mol
DOCKED: USER    (3) Torsional Free Energy           =   +1.49 kcal/mol
DOCKED: USER    (4) Unbound System's Energy  [=(2)] =   -0.89 kcal/mol
DOCKED: USER    
DOCKED: USER    
DOCKED: USER    NEWDPF move ligand.dum.pdbqt
DOCKED: USER    NEWDPF about 0.725000 -0.143000 0.203000
DOCKED: USER    NEWDPF tran0 36.697826 12.238368 121.771851
DOCKED: USER    NEWDPF quaternion0 0.452805 -0.750079 -0.481204 -0.028139
DOCKED: USER    NEWDPF axisangle0 0.452984 -0.750376 -0.481395 -176.775053
DOCKED: USER    NEWDPF quat0 0.452984 -0.750376 -0.481395 -176.775053
DOCKED: USER    NEWDPF dihe0 -180.00 -170.18 75.17 -174.32 56.03 
DOCKED: USER  keepresnum = 1 
DOCKED: USER  
DOCKED: REMARK  Name = 
DOCKED: REMARK  5 active torsions:
DOCKED: REMARK  status: ('A' for Active; 'I' for Inactive)
DOCKED: REMARK    1  A    between atoms: O_1  and  N_2
DOCKED: REMARK    2  A    between atoms: C_3  and  C_4
DOCKED: REMARK    3  A    between atoms: C_4  and  C_5
DOCKED: REMARK    4  A    between atoms: C_5  and  C_6
DOCKED: REMARK    5  A    between atoms: C_6  and  C_7
DOCKED: REMARK                            x       y       z     vdW  Elec       q    Type
DOCKED: REMARK                         _______ _______ _______ _____ _____    ______ ____
DOCKED: USER                              x       y       z     vdW  Elec       q    Type
DOCKED: USER                           _______ _______ _______ _____ _____    ______ ____
DOCKED: ROOT
DOCKED: ATOM      1  C   UNL     1      36.715  11.760 122.186 -0.62 -0.00    +0.000 C 
DOCKED: ENDROOT
DOCKED: BRANCH   1   2
DOCKED: ATOM      2  C   UNL     1      35.773  10.560 122.322 -0.65 -0.00    +0.000 C 
DOCKED: BRANCH   2   4
DOCKED: ATOM      3  N   UNL     1      36.747   8.506 123.456 -0.65 -0.00    +0.000 N 
DOCKED: ATOM      4  C   UNL     1      36.547   9.277 122.269 -0.72 -0.00    +0.000 C 
DOCKED: ATOM      5  O   UNL     1      36.987   8.858 121.164 -2.68 -0.00    +0.000 OA
DOCKED: ATOM      6  H   UNL     1      36.380   8.824 124.312 -0.30 -0.00    +0.000 HD
DOCKED: BRANCH   3   7
DOCKED: ATOM      7  O   UNL     1      37.438   7.342 123.413 -1.97 -0.00    +0.000 OA
DOCKED: ATOM      8  H   UNL     1      37.729   7.173 122.503 -0.31 -0.00    +0.000 HD
DOCKED: ENDBRANCH   3   7
DOCKED: ENDBRANCH   2   4
DOCKED: ENDBRANCH   1   2
DOCKED: BRANCH   1   9
DOCKED: ATOM      9  C   UNL     1      36.917  12.456 123.536 -0.65 -0.00    +0.000 C 
DOCKED: BRANCH   9  10
DOCKED: ATOM     10  C   UNL     1      36.549  13.912 123.440 -0.49 -0.00    +0.000 A 
DOCKED: ATOM     11  C   UNL     1      37.492  14.854 122.998 -0.38 -0.00    +0.000 A 
DOCKED: ATOM     12  C   UNL     1      37.159  16.211 122.940 -0.27 -0.00    +0.000 A 
DOCKED: ATOM     13  C   UNL     1      35.886  16.638 123.331 -0.31 -0.00    +0.000 A 
DOCKED: ATOM     14  C   UNL     1      34.947  15.707 123.784 -0.48 -0.00    +0.000 A 
DOCKED: ATOM     15  C   UNL     1      35.276  14.350 123.844 -0.46 -0.00    +0.000 A 
DOCKED: ATOM     16  CM  UNL     1      36.218  15.278 123.390 +0.00 -0.00    +0.000 AC
DOCKED: ENDBRANCH   9  10
DOCKED: ENDBRANCH   1   9
DOCKED: TORSDOF 5DOCKED: TER
DOCKED: ENDMDL
________________________________________________________________________________


	BEGINNING GENETIC ALGORITHM DOCKING 60 of 100
Run: 60 Seed: 35208085 196443159 [ Run 60 of 100 GA/GALS ]
Beginning LAMARCKIAN GENETIC ALGORITHM (LGA), with a maximum of 2500000 energy evaluations.

Final-Value: -11.848


	FINAL GENETIC ALGORITHM DOCKED STATE
	_______________________________________________


Detailed state:  trans 37.792 12.282 123.034 quatxyzw 0.536348 -0.580115 -0.197083 0.580478 center 0.725 -0.143 0.203 ntor 5 -162.6764 98.0092 80.0307 73.1513 69.2791
State:	 37.792  12.282 123.034   0.659 -0.712 -0.242 109.032   -162.68   98.01   80.03   73.15   69.28

DOCKED: MODEL       60
DOCKED: USER    Run = 60
DOCKED: USER    DPF = ligand_dock.biased.dpf
DOCKED: USER  
DOCKED: USER    Estimated Free Energy of Binding    =   -9.48 kcal/mol  [=(1)+(2)+(3)-(4)]
DOCKED: USER    Estimated Inhibition Constant, Ki   =  111.80 nM (nanomolar)  [Temperature = 298.15 K]
DOCKED: USER    
DOCKED: USER    (1) Final Intermolecular Energy     =  -10.98 kcal/mol
DOCKED: USER        vdW + Hbond + desolv Energy     =  -10.98 kcal/mol
DOCKED: USER        Electrostatic Energy            =   +0.00 kcal/mol
DOCKED: USER    (2) Final Total Internal Energy     =   -0.87 kcal/mol
DOCKED: USER    (3) Torsional Free Energy           =   +1.49 kcal/mol
DOCKED: USER    (4) Unbound System's Energy  [=(2)] =   -0.87 kcal/mol
DOCKED: USER    
DOCKED: USER    
DOCKED: USER    NEWDPF move ligand.dum.pdbqt
DOCKED: USER    NEWDPF about 0.725000 -0.143000 0.203000
DOCKED: USER    NEWDPF tran0 37.791656 12.281783 123.033652
DOCKED: USER    NEWDPF quaternion0 0.536348 -0.580115 -0.197083 0.580478
DOCKED: USER    NEWDPF axisangle0 0.658681 -0.712431 -0.242035 109.031602
DOCKED: USER    NEWDPF quat0 0.658681 -0.712431 -0.242035 109.031602
DOCKED: USER    NEWDPF dihe0 -162.68 98.01 80.03 73.15 69.28 
DOCKED: USER  keepresnum = 1 
DOCKED: USER  
DOCKED: REMARK  Name = 
DOCKED: REMARK  5 active torsions:
DOCKED: REMARK  status: ('A' for Active; 'I' for Inactive)
DOCKED: REMARK    1  A    between atoms: O_1  and  N_2
DOCKED: REMARK    2  A    between atoms: C_3  and  C_4
DOCKED: REMARK    3  A    between atoms: C_4  and  C_5
DOCKED: REMARK    4  A    between atoms: C_5  and  C_6
DOCKED: REMARK    5  A    between atoms: C_6  and  C_7
DOCKED: REMARK                            x       y       z     vdW  Elec       q    Type
DOCKED: REMARK                         _______ _______ _______ _____ _____    ______ ____
DOCKED: USER                              x       y       z     vdW  Elec       q    Type
DOCKED: USER                           _______ _______ _______ _____ _____    ______ ____
DOCKED: ROOT
DOCKED: ATOM      1  C   UNL     1      37.370  11.820 122.934 -0.49 -0.00    +0.000 C 
DOCKED: ENDROOT
DOCKED: BRANCH   1   2
DOCKED: ATOM      2  C   UNL     1      37.015  11.095 121.633 -0.53 -0.00    +0.000 C 
DOCKED: BRANCH   2   4
DOCKED: ATOM      3  N   UNL     1      37.062   9.060 123.153 -0.66 -0.00    +0.000 N 
DOCKED: ATOM      4  C   UNL     1      37.049   9.610 121.833 -0.60 -0.00    +0.000 C 
DOCKED: ATOM      5  O   UNL     1      37.024   8.844 120.833 -2.71 -0.00    +0.000 OA
DOCKED: ATOM      6  H   UNL     1      37.056   9.662 123.932 -0.49 -0.00    +0.000 HD
DOCKED: BRANCH   3   7
DOCKED: ATOM      7  O   UNL     1      37.084   7.719 123.341 -2.30 -0.00    +0.000 OA
DOCKED: ATOM      8  H   UNL     1      37.361   7.283 122.519 -0.16 -0.00    +0.000 HD
DOCKED: ENDBRANCH   3   7
DOCKED: ENDBRANCH   2   4
DOCKED: ENDBRANCH   1   2
DOCKED: BRANCH   1   9
DOCKED: ATOM      9  C   UNL     1      36.109  12.319 123.647 -0.66 -0.00    +0.000 C 
DOCKED: BRANCH   9  10
DOCKED: ATOM     10  C   UNL     1      36.035  13.822 123.599 -0.50 -0.00    +0.000 A 
DOCKED: ATOM     11  C   UNL     1      34.817  14.480 123.837 -0.38 -0.00    +0.000 A 
DOCKED: ATOM     12  C   UNL     1      34.742  15.874 123.760 -0.48 -0.00    +0.000 A 
DOCKED: ATOM     13  C   UNL     1      35.879  16.620 123.436 -0.32 -0.00    +0.000 A 
DOCKED: ATOM     14  C   UNL     1      37.092  15.971 123.186 -0.29 -0.00    +0.000 A 
DOCKED: ATOM     15  C   UNL     1      37.171  14.577 123.261 -0.40 -0.00    +0.000 A 
DOCKED: ATOM     16  CM  UNL     1      35.956  15.224 123.513 +0.00 -0.00    +0.000 AC
DOCKED: ENDBRANCH   9  10
DOCKED: ENDBRANCH   1   9
DOCKED: TORSDOF 5DOCKED: TER
DOCKED: ENDMDL
________________________________________________________________________________


	BEGINNING GENETIC ALGORITHM DOCKING 61 of 100
Run: 61 Seed: 845517629 36957297 [ Run 61 of 100 GA/GALS ]
Beginning LAMARCKIAN GENETIC ALGORITHM (LGA), with a maximum of 2500000 energy evaluations.

Final-Value: -11.511


	FINAL GENETIC ALGORITHM DOCKED STATE
	_______________________________________________


Detailed state:  trans 37.416 11.939 122.676 quatxyzw -0.543158 0.764032 -0.000902 -0.348186 center 0.725 -0.143 0.203 ntor 5 -177.7234 161.5474 18.2103 88.4515 30.9693
State:	 37.416  11.939 122.676  -0.579  0.815 -0.001 -139.247   -177.72  161.55   18.21   88.45   30.97

DOCKED: MODEL       61
DOCKED: USER    Run = 61
DOCKED: USER    DPF = ligand_dock.biased.dpf
DOCKED: USER  
DOCKED: USER    Estimated Free Energy of Binding    =   -9.16 kcal/mol  [=(1)+(2)+(3)-(4)]
DOCKED: USER    Estimated Inhibition Constant, Ki   =  191.71 nM (nanomolar)  [Temperature = 298.15 K]
DOCKED: USER    
DOCKED: USER    (1) Final Intermolecular Energy     =  -10.66 kcal/mol
DOCKED: USER        vdW + Hbond + desolv Energy     =  -10.66 kcal/mol
DOCKED: USER        Electrostatic Energy            =   +0.00 kcal/mol
DOCKED: USER    (2) Final Total Internal Energy     =   -0.86 kcal/mol
DOCKED: USER    (3) Torsional Free Energy           =   +1.49 kcal/mol
DOCKED: USER    (4) Unbound System's Energy  [=(2)] =   -0.86 kcal/mol
DOCKED: USER    
DOCKED: USER    
DOCKED: USER    NEWDPF move ligand.dum.pdbqt
DOCKED: USER    NEWDPF about 0.725000 -0.143000 0.203000
DOCKED: USER    NEWDPF tran0 37.416426 11.938575 122.676271
DOCKED: USER    NEWDPF quaternion0 -0.543158 0.764032 -0.000902 -0.348186
DOCKED: USER    NEWDPF axisangle0 -0.579415 0.815032 -0.000962 -139.247148
DOCKED: USER    NEWDPF quat0 -0.579415 0.815032 -0.000962 -139.247148
DOCKED: USER    NEWDPF dihe0 -177.72 161.55 18.21 88.45 30.97 
DOCKED: USER  keepresnum = 1 
DOCKED: USER  
DOCKED: REMARK  Name = 
DOCKED: REMARK  5 active torsions:
DOCKED: REMARK  status: ('A' for Active; 'I' for Inactive)
DOCKED: REMARK    1  A    between atoms: O_1  and  N_2
DOCKED: REMARK    2  A    between atoms: C_3  and  C_4
DOCKED: REMARK    3  A    between atoms: C_4  and  C_5
DOCKED: REMARK    4  A    between atoms: C_5  and  C_6
DOCKED: REMARK    5  A    between atoms: C_6  and  C_7
DOCKED: REMARK                            x       y       z     vdW  Elec       q    Type
DOCKED: REMARK                         _______ _______ _______ _____ _____    ______ ____
DOCKED: USER                              x       y       z     vdW  Elec       q    Type
DOCKED: USER                           _______ _______ _______ _____ _____    ______ ____
DOCKED: ROOT
DOCKED: ATOM      1  C   UNL     1      36.891  11.687 122.925 -0.66 -0.00    +0.000 C 
DOCKED: ENDROOT
DOCKED: BRANCH   1   2
DOCKED: ATOM      2  C   UNL     1      35.954  10.625 122.342 -0.66 -0.00    +0.000 C 
DOCKED: BRANCH   2   4
DOCKED: ATOM      3  N   UNL     1      36.789   8.494 123.445 -0.66 -0.00    +0.000 N 
DOCKED: ATOM      4  C   UNL     1      36.646   9.297 122.271 -0.72 -0.00    +0.000 C 
DOCKED: ATOM      5  O   UNL     1      37.066   8.870 121.161 -2.70 -0.00    +0.000 OA
DOCKED: ATOM      6  H   UNL     1      36.437   8.820 124.304 -0.32 -0.00    +0.000 HD
DOCKED: BRANCH   3   7
DOCKED: ATOM      7  O   UNL     1      37.405   7.289 123.385 -1.92 -0.00    +0.000 OA
DOCKED: ATOM      8  H   UNL     1      37.723   7.135 122.481 -0.32 -0.00    +0.000 HD
DOCKED: ENDBRANCH   3   7
DOCKED: ENDBRANCH   2   4
DOCKED: ENDBRANCH   1   2
DOCKED: BRANCH   1   9
DOCKED: ATOM      9  C   UNL     1      36.104  12.905 123.419 -0.63 -0.00    +0.000 C 
DOCKED: BRANCH   9  10
DOCKED: ATOM     10  C   UNL     1      36.925  14.158 123.275 -0.45 -0.00    +0.000 A 
DOCKED: ATOM     11  C   UNL     1      36.377  15.407 123.611 -0.38 -0.00    +0.000 A 
DOCKED: ATOM     12  C   UNL     1      37.129  16.575 123.446 -0.26 -0.00    +0.000 A 
DOCKED: ATOM     13  C   UNL     1      38.429  16.504 122.937 -0.23 -0.00    +0.000 A 
DOCKED: ATOM     14  C   UNL     1      38.977  15.265 122.589 -0.33 -0.00    +0.000 A 
DOCKED: ATOM     15  C   UNL     1      38.228  14.096 122.751 -0.43 -0.00    +0.000 A 
DOCKED: ATOM     16  CM  UNL     1      37.677  15.334 123.101 +0.00 -0.00    +0.000 AC
DOCKED: ENDBRANCH   9  10
DOCKED: ENDBRANCH   1   9
DOCKED: TORSDOF 5DOCKED: TER
DOCKED: ENDMDL
________________________________________________________________________________


	BEGINNING GENETIC ALGORITHM DOCKING 62 of 100
Run: 62 Seed: 237285925 1785818182 [ Run 62 of 100 GA/GALS ]
Beginning LAMARCKIAN GENETIC ALGORITHM (LGA), with a maximum of 2500000 energy evaluations.

Final-Value: -11.928


	FINAL GENETIC ALGORITHM DOCKED STATE
	_______________________________________________


Detailed state:  trans 37.445 11.661 123.663 quatxyzw -0.237425 0.600229 -0.609756 -0.459949 center 0.725 -0.143 0.203 ntor 5 -179.8019 147.2727 -55.8253 81.7120 -78.5367
State:	 37.445  11.661 123.663  -0.267  0.676 -0.687 -125.232   -179.80  147.27  -55.83   81.71  -78.54

DOCKED: MODEL       62
DOCKED: USER    Run = 62
DOCKED: USER    DPF = ligand_dock.biased.dpf
DOCKED: USER  
DOCKED: USER    Estimated Free Energy of Binding    =   -9.54 kcal/mol  [=(1)+(2)+(3)-(4)]
DOCKED: USER    Estimated Inhibition Constant, Ki   =  101.88 nM (nanomolar)  [Temperature = 298.15 K]
DOCKED: USER    
DOCKED: USER    (1) Final Intermolecular Energy     =  -11.03 kcal/mol
DOCKED: USER        vdW + Hbond + desolv Energy     =  -11.03 kcal/mol
DOCKED: USER        Electrostatic Energy            =   +0.00 kcal/mol
DOCKED: USER    (2) Final Total Internal Energy     =   -0.90 kcal/mol
DOCKED: USER    (3) Torsional Free Energy           =   +1.49 kcal/mol
DOCKED: USER    (4) Unbound System's Energy  [=(2)] =   -0.90 kcal/mol
DOCKED: USER    
DOCKED: USER    
DOCKED: USER    NEWDPF move ligand.dum.pdbqt
DOCKED: USER    NEWDPF about 0.725000 -0.143000 0.203000
DOCKED: USER    NEWDPF tran0 37.444711 11.661107 123.662763
DOCKED: USER    NEWDPF quaternion0 -0.237425 0.600229 -0.609756 -0.459949
DOCKED: USER    NEWDPF axisangle0 -0.267387 0.675975 -0.686704 -125.232430
DOCKED: USER    NEWDPF quat0 -0.267387 0.675975 -0.686704 -125.232430
DOCKED: USER    NEWDPF dihe0 -179.80 147.27 -55.83 81.71 -78.54 
DOCKED: USER  keepresnum = 1 
DOCKED: USER  
DOCKED: REMARK  Name = 
DOCKED: REMARK  5 active torsions:
DOCKED: REMARK  status: ('A' for Active; 'I' for Inactive)
DOCKED: REMARK    1  A    between atoms: O_1  and  N_2
DOCKED: REMARK    2  A    between atoms: C_3  and  C_4
DOCKED: REMARK    3  A    between atoms: C_4  and  C_5
DOCKED: REMARK    4  A    between atoms: C_5  and  C_6
DOCKED: REMARK    5  A    between atoms: C_6  and  C_7
DOCKED: REMARK                            x       y       z     vdW  Elec       q    Type
DOCKED: REMARK                         _______ _______ _______ _____ _____    ______ ____
DOCKED: USER                              x       y       z     vdW  Elec       q    Type
DOCKED: USER                           _______ _______ _______ _____ _____    ______ ____
DOCKED: ROOT
DOCKED: ATOM      1  C   UNL     1      36.960  11.845 123.299 -0.68 -0.00    +0.000 C 
DOCKED: ENDROOT
DOCKED: BRANCH   1   2
DOCKED: ATOM      2  C   UNL     1      36.104  11.021 122.334 -0.66 -0.00    +0.000 C 
DOCKED: BRANCH   2   4
DOCKED: ATOM      3  N   UNL     1      36.659   8.755 123.340 -0.63 -0.00    +0.000 N 
DOCKED: ATOM      4  C   UNL     1      36.647   9.629 122.209 -0.70 -0.00    +0.000 C 
DOCKED: ATOM      5  O   UNL     1      37.055   9.216 121.090 -2.74 -0.00    +0.000 OA
DOCKED: ATOM      6  H   UNL     1      36.316   9.073 124.206 -0.34 -0.00    +0.000 HD
DOCKED: BRANCH   3   7
DOCKED: ATOM      7  O   UNL     1      37.141   7.493 123.231 -2.18 -0.00    +0.000 OA
DOCKED: ATOM      8  H   UNL     1      37.440   7.340 122.320 -0.15 -0.00    +0.000 HD
DOCKED: ENDBRANCH   3   7
DOCKED: ENDBRANCH   2   4
DOCKED: ENDBRANCH   1   2
DOCKED: BRANCH   1   9
DOCKED: ATOM      9  C   UNL     1      37.474  13.122 122.626 -0.55 -0.00    +0.000 C 
DOCKED: BRANCH   9  10
DOCKED: ATOM     10  C   UNL     1      36.656  14.311 123.055 -0.44 -0.00    +0.000 A 
DOCKED: ATOM     11  C   UNL     1      37.070  15.612 122.724 -0.31 -0.00    +0.000 A 
DOCKED: ATOM     12  C   UNL     1      36.326  16.717 123.150 -0.27 -0.00    +0.000 A 
DOCKED: ATOM     13  C   UNL     1      35.172  16.532 123.916 -0.40 -0.00    +0.000 A 
DOCKED: ATOM     14  C   UNL     1      34.762  15.240 124.260 -0.52 -0.00    +0.000 A 
DOCKED: ATOM     15  C   UNL     1      35.502  14.132 123.837 -0.48 -0.00    +0.000 A 
DOCKED: ATOM     16  CM  UNL     1      35.915  15.423 123.490 +0.00 -0.00    +0.000 AC
DOCKED: ENDBRANCH   9  10
DOCKED: ENDBRANCH   1   9
DOCKED: TORSDOF 5DOCKED: TER
DOCKED: ENDMDL
________________________________________________________________________________


	BEGINNING GENETIC ALGORITHM DOCKING 63 of 100
Run: 63 Seed: 443143996 1971730521 [ Run 63 of 100 GA/GALS ]
Beginning LAMARCKIAN GENETIC ALGORITHM (LGA), with a maximum of 2500000 energy evaluations.

Final-Value: -11.017


	FINAL GENETIC ALGORITHM DOCKED STATE
	_______________________________________________


Detailed state:  trans 37.252 11.814 120.324 quatxyzw 0.494486 -0.815275 -0.011961 -0.301110 center 0.725 -0.143 0.203 ntor 5 -173.7941 -123.4746 1.6484 -164.3109 -67.0005
State:	 37.252  11.814 120.324   0.519 -0.855 -0.013 -144.951   -173.79 -123.47    1.65 -164.31  -67.00

DOCKED: MODEL       63
DOCKED: USER    Run = 63
DOCKED: USER    DPF = ligand_dock.biased.dpf
DOCKED: USER  
DOCKED: USER    Estimated Free Energy of Binding    =   -8.65 kcal/mol  [=(1)+(2)+(3)-(4)]
DOCKED: USER    Estimated Inhibition Constant, Ki   =  454.96 nM (nanomolar)  [Temperature = 298.15 K]
DOCKED: USER    
DOCKED: USER    (1) Final Intermolecular Energy     =  -10.14 kcal/mol
DOCKED: USER        vdW + Hbond + desolv Energy     =  -10.14 kcal/mol
DOCKED: USER        Electrostatic Energy            =   +0.00 kcal/mol
DOCKED: USER    (2) Final Total Internal Energy     =   -0.87 kcal/mol
DOCKED: USER    (3) Torsional Free Energy           =   +1.49 kcal/mol
DOCKED: USER    (4) Unbound System's Energy  [=(2)] =   -0.87 kcal/mol
DOCKED: USER    
DOCKED: USER    
DOCKED: USER    NEWDPF move ligand.dum.pdbqt
DOCKED: USER    NEWDPF about 0.725000 -0.143000 0.203000
DOCKED: USER    NEWDPF tran0 37.251944 11.814342 120.323605
DOCKED: USER    NEWDPF quaternion0 0.494486 -0.815275 -0.011961 -0.301110
DOCKED: USER    NEWDPF axisangle0 0.518552 -0.854954 -0.012543 -144.951409
DOCKED: USER    NEWDPF quat0 0.518552 -0.854954 -0.012543 -144.951409
DOCKED: USER    NEWDPF dihe0 -173.79 -123.47 1.65 -164.31 -67.00 
DOCKED: USER  keepresnum = 1 
DOCKED: USER  
DOCKED: REMARK  Name = 
DOCKED: REMARK  5 active torsions:
DOCKED: REMARK  status: ('A' for Active; 'I' for Inactive)
DOCKED: REMARK    1  A    between atoms: O_1  and  N_2
DOCKED: REMARK    2  A    between atoms: C_3  and  C_4
DOCKED: REMARK    3  A    between atoms: C_4  and  C_5
DOCKED: REMARK    4  A    between atoms: C_5  and  C_6
DOCKED: REMARK    5  A    between atoms: C_6  and  C_7
DOCKED: REMARK                            x       y       z     vdW  Elec       q    Type
DOCKED: REMARK                         _______ _______ _______ _____ _____    ______ ____
DOCKED: USER                              x       y       z     vdW  Elec       q    Type
DOCKED: USER                           _______ _______ _______ _____ _____    ______ ____
DOCKED: ROOT
DOCKED: ATOM      1  C   UNL     1      37.290  11.958 120.939 -0.52 -0.00    +0.000 C 
DOCKED: ENDROOT
DOCKED: BRANCH   1   2
DOCKED: ATOM      2  C   UNL     1      36.627  11.277 122.138 -0.63 -0.00    +0.000 C 
DOCKED: BRANCH   2   4
DOCKED: ATOM      3  N   UNL     1      36.887   9.048 123.329 -0.60 -0.00    +0.000 N 
DOCKED: ATOM      4  C   UNL     1      36.887   9.801 122.114 -0.63 -0.00    +0.000 C 
DOCKED: ATOM      5  O   UNL     1      37.065   9.216 121.011 -2.74 -0.00    +0.000 OA
DOCKED: ATOM      6  H   UNL     1      36.723   9.504 124.185 -0.49 -0.00    +0.000 HD
DOCKED: BRANCH   3   7
DOCKED: ATOM      7  O   UNL     1      37.114   7.712 123.312 -2.30 -0.00    +0.000 OA
DOCKED: ATOM      8  H   UNL     1      37.354   7.437 122.413 -0.13 -0.00    +0.000 HD
DOCKED: ENDBRANCH   3   7
DOCKED: ENDBRANCH   2   4
DOCKED: ENDBRANCH   1   2
DOCKED: BRANCH   1   9
DOCKED: ATOM      9  C   UNL     1      37.064  13.473 120.972 -0.41 -0.00    +0.000 C 
DOCKED: BRANCH   9  10
DOCKED: ATOM     10  C   UNL     1      38.365  14.196 121.202 -0.34 -0.00    +0.000 A 
DOCKED: ATOM     11  C   UNL     1      38.944  14.222 122.481 -0.33 -0.00    +0.000 A 
DOCKED: ATOM     12  C   UNL     1      40.136  14.921 122.701 -0.36 -0.00    +0.000 A 
DOCKED: ATOM     13  C   UNL     1      40.750  15.606 121.649 -0.30 -0.00    +0.000 A 
DOCKED: ATOM     14  C   UNL     1      40.172  15.595 120.376 -0.16 -0.00    +0.000 A 
DOCKED: ATOM     15  C   UNL     1      38.981  14.898 120.152 -0.20 -0.00    +0.000 A 
DOCKED: ATOM     16  CM  UNL     1      39.558  14.907 121.427 +0.00 -0.00    +0.000 AC
DOCKED: ENDBRANCH   9  10
DOCKED: ENDBRANCH   1   9
DOCKED: TORSDOF 5DOCKED: TER
DOCKED: ENDMDL
________________________________________________________________________________


	BEGINNING GENETIC ALGORITHM DOCKING 64 of 100
Run: 64 Seed: 1561100549 618935495 [ Run 64 of 100 GA/GALS ]
Beginning LAMARCKIAN GENETIC ALGORITHM (LGA), with a maximum of 2500000 energy evaluations.

Final-Value: -11.144


	FINAL GENETIC ALGORITHM DOCKED STATE
	_______________________________________________


Detailed state:  trans 35.184 11.000 122.694 quatxyzw -0.381532 0.318874 0.405714 0.766908 center 0.725 -0.143 0.203 ntor 5 -167.4348 -39.9229 11.0728 -42.8884 -114.9241
State:	 35.184  11.000 122.694  -0.595  0.497  0.632 79.846   -167.43  -39.92   11.07  -42.89 -114.92

DOCKED: MODEL       64
DOCKED: USER    Run = 64
DOCKED: USER    DPF = ligand_dock.biased.dpf
DOCKED: USER  
DOCKED: USER    Estimated Free Energy of Binding    =   -8.68 kcal/mol  [=(1)+(2)+(3)-(4)]
DOCKED: USER    Estimated Inhibition Constant, Ki   =  436.12 nM (nanomolar)  [Temperature = 298.15 K]
DOCKED: USER    
DOCKED: USER    (1) Final Intermolecular Energy     =  -10.17 kcal/mol
DOCKED: USER        vdW + Hbond + desolv Energy     =  -10.17 kcal/mol
DOCKED: USER        Electrostatic Energy            =   +0.00 kcal/mol
DOCKED: USER    (2) Final Total Internal Energy     =   -0.98 kcal/mol
DOCKED: USER    (3) Torsional Free Energy           =   +1.49 kcal/mol
DOCKED: USER    (4) Unbound System's Energy  [=(2)] =   -0.98 kcal/mol
DOCKED: USER    
DOCKED: USER    
DOCKED: USER    NEWDPF move ligand.dum.pdbqt
DOCKED: USER    NEWDPF about 0.725000 -0.143000 0.203000
DOCKED: USER    NEWDPF tran0 35.184076 10.999732 122.694445
DOCKED: USER    NEWDPF quaternion0 -0.381532 0.318874 0.405714 0.766908
DOCKED: USER    NEWDPF axisangle0 -0.594512 0.496877 0.632193 79.845892
DOCKED: USER    NEWDPF quat0 -0.594512 0.496877 0.632193 79.845892
DOCKED: USER    NEWDPF dihe0 -167.43 -39.92 11.07 -42.89 -114.92 
DOCKED: USER  keepresnum = 1 
DOCKED: USER  
DOCKED: REMARK  Name = 
DOCKED: REMARK  5 active torsions:
DOCKED: REMARK  status: ('A' for Active; 'I' for Inactive)
DOCKED: REMARK    1  A    between atoms: O_1  and  N_2
DOCKED: REMARK    2  A    between atoms: C_3  and  C_4
DOCKED: REMARK    3  A    between atoms: C_4  and  C_5
DOCKED: REMARK    4  A    between atoms: C_5  and  C_6
DOCKED: REMARK    5  A    between atoms: C_6  and  C_7
DOCKED: REMARK                            x       y       z     vdW  Elec       q    Type
DOCKED: REMARK                         _______ _______ _______ _____ _____    ______ ____
DOCKED: USER                              x       y       z     vdW  Elec       q    Type
DOCKED: USER                           _______ _______ _______ _____ _____    ______ ____
DOCKED: ROOT
DOCKED: ATOM      1  C   UNL     1      35.801  11.131 122.640 -0.65 -0.00    +0.000 C 
DOCKED: ENDROOT
DOCKED: BRANCH   1   2
DOCKED: ATOM      2  C   UNL     1      37.010  10.327 123.126 -0.59 -0.00    +0.000 C 
DOCKED: BRANCH   2   4
DOCKED: ATOM      3  N   UNL     1      37.048   7.791 123.272 -0.76 -0.00    +0.000 N 
DOCKED: ATOM      4  C   UNL     1      37.040   8.978 122.474 -0.68 -0.00    +0.000 C 
DOCKED: ATOM      5  O   UNL     1      37.016   8.891 121.217 -2.67 -0.00    +0.000 OA
DOCKED: ATOM      6  H   UNL     1      37.040   7.863 124.253 -0.35 -0.00    +0.000 HD
DOCKED: BRANCH   3   7
DOCKED: ATOM      7  O   UNL     1      37.066   6.569 122.688 -1.27 -0.00    +0.000 OA
DOCKED: ATOM      8  H   UNL     1      37.270   6.665 121.745 -0.39 -0.00    +0.000 HD
DOCKED: ENDBRANCH   3   7
DOCKED: ENDBRANCH   2   4
DOCKED: ENDBRANCH   1   2
DOCKED: BRANCH   1   9
DOCKED: ATOM      9  C   UNL     1      35.901  12.595 123.080 -0.55 -0.00    +0.000 C 
DOCKED: BRANCH   9  10
DOCKED: ATOM     10  C   UNL     1      37.073  13.267 122.417 -0.47 -0.00    +0.000 A 
DOCKED: ATOM     11  C   UNL     1      37.304  13.096 121.042 -0.42 -0.00    +0.000 A 
DOCKED: ATOM     12  C   UNL     1      38.412  13.694 120.434 -0.29 -0.00    +0.000 A 
DOCKED: ATOM     13  C   UNL     1      39.301  14.459 121.194 -0.30 -0.00    +0.000 A 
DOCKED: ATOM     14  C   UNL     1      39.084  14.624 122.565 -0.37 -0.00    +0.000 A 
DOCKED: ATOM     15  C   UNL     1      37.978  14.027 123.178 -0.39 -0.00    +0.000 A 
DOCKED: ATOM     16  CM  UNL     1      38.192  13.861 121.806 +0.00 -0.00    +0.000 AC
DOCKED: ENDBRANCH   9  10
DOCKED: ENDBRANCH   1   9
DOCKED: TORSDOF 5DOCKED: TER
DOCKED: ENDMDL
________________________________________________________________________________


	BEGINNING GENETIC ALGORITHM DOCKING 65 of 100
Run: 65 Seed: 1014373328 1615355736 [ Run 65 of 100 GA/GALS ]
Beginning LAMARCKIAN GENETIC ALGORITHM (LGA), with a maximum of 2500000 energy evaluations.

Final-Value: -11.004


	FINAL GENETIC ALGORITHM DOCKED STATE
	_______________________________________________


Detailed state:  trans 38.024 11.746 121.797 quatxyzw -0.535120 0.733570 -0.385785 -0.163373 center 0.725 -0.143 0.203 ntor 5 -173.2764 178.0766 -29.0498 161.8127 -46.2350
State:	 38.024  11.746 121.797  -0.542  0.744 -0.391 -161.195   -173.28  178.08  -29.05  161.81  -46.23

DOCKED: MODEL       65
DOCKED: USER    Run = 65
DOCKED: USER    DPF = ligand_dock.biased.dpf
DOCKED: USER  
DOCKED: USER    Estimated Free Energy of Binding    =   -8.67 kcal/mol  [=(1)+(2)+(3)-(4)]
DOCKED: USER    Estimated Inhibition Constant, Ki   =  441.64 nM (nanomolar)  [Temperature = 298.15 K]
DOCKED: USER    
DOCKED: USER    (1) Final Intermolecular Energy     =  -10.16 kcal/mol
DOCKED: USER        vdW + Hbond + desolv Energy     =  -10.16 kcal/mol
DOCKED: USER        Electrostatic Energy            =   +0.00 kcal/mol
DOCKED: USER    (2) Final Total Internal Energy     =   -0.84 kcal/mol
DOCKED: USER    (3) Torsional Free Energy           =   +1.49 kcal/mol
DOCKED: USER    (4) Unbound System's Energy  [=(2)] =   -0.84 kcal/mol
DOCKED: USER    
DOCKED: USER    
DOCKED: USER    NEWDPF move ligand.dum.pdbqt
DOCKED: USER    NEWDPF about 0.725000 -0.143000 0.203000
DOCKED: USER    NEWDPF tran0 38.023550 11.745724 121.797300
DOCKED: USER    NEWDPF quaternion0 -0.535120 0.733570 -0.385785 -0.163373
DOCKED: USER    NEWDPF axisangle0 -0.542408 0.743560 -0.391039 -161.194546
DOCKED: USER    NEWDPF quat0 -0.542408 0.743560 -0.391039 -161.194546
DOCKED: USER    NEWDPF dihe0 -173.28 178.08 -29.05 161.81 -46.23 
DOCKED: USER  keepresnum = 1 
DOCKED: USER  
DOCKED: REMARK  Name = 
DOCKED: REMARK  5 active torsions:
DOCKED: REMARK  status: ('A' for Active; 'I' for Inactive)
DOCKED: REMARK    1  A    between atoms: O_1  and  N_2
DOCKED: REMARK    2  A    between atoms: C_3  and  C_4
DOCKED: REMARK    3  A    between atoms: C_4  and  C_5
DOCKED: REMARK    4  A    between atoms: C_5  and  C_6
DOCKED: REMARK    5  A    between atoms: C_6  and  C_7
DOCKED: REMARK                            x       y       z     vdW  Elec       q    Type
DOCKED: REMARK                         _______ _______ _______ _____ _____    ______ ____
DOCKED: USER                              x       y       z     vdW  Elec       q    Type
DOCKED: USER                           _______ _______ _______ _____ _____    ______ ____
DOCKED: ROOT
DOCKED: ATOM      1  C   UNL     1      37.438  11.846 122.015 -0.41 -0.00    +0.000 C 
DOCKED: ENDROOT
DOCKED: BRANCH   1   2
DOCKED: ATOM      2  C   UNL     1      36.264  10.870 122.129 -0.63 -0.00    +0.000 C 
DOCKED: BRANCH   2   4
DOCKED: ATOM      3  N   UNL     1      36.986   8.765 123.354 -0.64 -0.00    +0.000 N 
DOCKED: ATOM      4  C   UNL     1      36.756   9.454 122.122 -0.69 -0.00    +0.000 C 
DOCKED: ATOM      5  O   UNL     1      36.927   8.857 121.025 -2.67 -0.00    +0.000 OA
DOCKED: ATOM      6  H   UNL     1      36.827   9.227 124.208 -0.51 -0.00    +0.000 HD
DOCKED: BRANCH   3   7
DOCKED: ATOM      7  O   UNL     1      37.423   7.483 123.354 -2.05 -0.00    +0.000 OA
DOCKED: ATOM      8  H   UNL     1      37.631   7.213 122.446 -0.23 -0.00    +0.000 HD
DOCKED: ENDBRANCH   3   7
DOCKED: ENDBRANCH   2   4
DOCKED: ENDBRANCH   1   2
DOCKED: BRANCH   1   9
DOCKED: ATOM      9  C   UNL     1      37.010  13.143 121.320 -0.45 -0.00    +0.000 C 
DOCKED: BRANCH   9  10
DOCKED: ATOM     10  C   UNL     1      37.523  14.341 122.074 -0.37 -0.00    +0.000 A 
DOCKED: ATOM     11  C   UNL     1      36.634  15.169 122.779 -0.35 -0.00    +0.000 A 
DOCKED: ATOM     12  C   UNL     1      37.108  16.299 123.453 -0.28 -0.00    +0.000 A 
DOCKED: ATOM     13  C   UNL     1      38.469  16.616 123.419 -0.23 -0.00    +0.000 A 
DOCKED: ATOM     14  C   UNL     1      39.358  15.803 122.709 -0.28 -0.00    +0.000 A 
DOCKED: ATOM     15  C   UNL     1      38.889  14.672 122.033 -0.36 -0.00    +0.000 A 
DOCKED: ATOM     16  CM  UNL     1      37.997  15.483 122.744 +0.00 -0.00    +0.000 AC
DOCKED: ENDBRANCH   9  10
DOCKED: ENDBRANCH   1   9
DOCKED: TORSDOF 5DOCKED: TER
DOCKED: ENDMDL
________________________________________________________________________________


	BEGINNING GENETIC ALGORITHM DOCKING 66 of 100
Run: 66 Seed: 2117778819 1939955606 [ Run 66 of 100 GA/GALS ]
Beginning LAMARCKIAN GENETIC ALGORITHM (LGA), with a maximum of 2500000 energy evaluations.

Final-Value: -11.834


	FINAL GENETIC ALGORITHM DOCKED STATE
	_______________________________________________


Detailed state:  trans 37.488 11.672 123.663 quatxyzw 0.214650 -0.598926 0.603559 0.480551 center 0.725 -0.143 0.203 ntor 5 -178.3986 139.7511 -51.4527 58.4155 -74.9757
State:	 37.488  11.672 123.663   0.245 -0.683  0.688 122.557   -178.40  139.75  -51.45   58.42  -74.98

DOCKED: MODEL       66
DOCKED: USER    Run = 66
DOCKED: USER    DPF = ligand_dock.biased.dpf
DOCKED: USER  
DOCKED: USER    Estimated Free Energy of Binding    =   -9.45 kcal/mol  [=(1)+(2)+(3)-(4)]
DOCKED: USER    Estimated Inhibition Constant, Ki   =  118.02 nM (nanomolar)  [Temperature = 298.15 K]
DOCKED: USER    
DOCKED: USER    (1) Final Intermolecular Energy     =  -10.94 kcal/mol
DOCKED: USER        vdW + Hbond + desolv Energy     =  -10.94 kcal/mol
DOCKED: USER        Electrostatic Energy            =   +0.00 kcal/mol
DOCKED: USER    (2) Final Total Internal Energy     =   -0.89 kcal/mol
DOCKED: USER    (3) Torsional Free Energy           =   +1.49 kcal/mol
DOCKED: USER    (4) Unbound System's Energy  [=(2)] =   -0.89 kcal/mol
DOCKED: USER    
DOCKED: USER    
DOCKED: USER    NEWDPF move ligand.dum.pdbqt
DOCKED: USER    NEWDPF about 0.725000 -0.143000 0.203000
DOCKED: USER    NEWDPF tran0 37.488255 11.672237 123.662742
DOCKED: USER    NEWDPF quaternion0 0.214650 -0.598926 0.603559 0.480551
DOCKED: USER    NEWDPF axisangle0 0.244764 -0.682952 0.688235 122.557256
DOCKED: USER    NEWDPF quat0 0.244764 -0.682952 0.688235 122.557256
DOCKED: USER    NEWDPF dihe0 -178.40 139.75 -51.45 58.42 -74.98 
DOCKED: USER  keepresnum = 1 
DOCKED: USER  
DOCKED: REMARK  Name = 
DOCKED: REMARK  5 active torsions:
DOCKED: REMARK  status: ('A' for Active; 'I' for Inactive)
DOCKED: REMARK    1  A    between atoms: O_1  and  N_2
DOCKED: REMARK    2  A    between atoms: C_3  and  C_4
DOCKED: REMARK    3  A    between atoms: C_4  and  C_5
DOCKED: REMARK    4  A    between atoms: C_5  and  C_6
DOCKED: REMARK    5  A    between atoms: C_6  and  C_7
DOCKED: REMARK                            x       y       z     vdW  Elec       q    Type
DOCKED: REMARK                         _______ _______ _______ _____ _____    ______ ____
DOCKED: USER                              x       y       z     vdW  Elec       q    Type
DOCKED: USER                           _______ _______ _______ _____ _____    ______ ____
DOCKED: ROOT
DOCKED: ATOM      1  C   UNL     1      37.022  11.868 123.282 -0.67 -0.00    +0.000 C 
DOCKED: ENDROOT
DOCKED: BRANCH   1   2
DOCKED: ATOM      2  C   UNL     1      36.220  11.077 122.245 -0.65 -0.00    +0.000 C 
DOCKED: BRANCH   2   4
DOCKED: ATOM      3  N   UNL     1      36.725   8.844 123.346 -0.61 -0.00    +0.000 N 
DOCKED: ATOM      4  C   UNL     1      36.707   9.661 122.173 -0.69 -0.00    +0.000 C 
DOCKED: ATOM      5  O   UNL     1      37.063   9.178 121.064 -2.74 -0.00    +0.000 OA
DOCKED: ATOM      6  H   UNL     1      36.423   9.217 124.205 -0.38 -0.00    +0.000 HD
DOCKED: BRANCH   3   7
DOCKED: ATOM      7  O   UNL     1      37.156   7.561 123.286 -2.20 -0.00    +0.000 OA
DOCKED: ATOM      8  H   UNL     1      37.441   7.359 122.380 -0.16 -0.00    +0.000 HD
DOCKED: ENDBRANCH   3   7
DOCKED: ENDBRANCH   2   4
DOCKED: ENDBRANCH   1   2
DOCKED: BRANCH   1   9
DOCKED: ATOM      9  C   UNL     1      37.563  13.170 122.683 -0.53 -0.00    +0.000 C 
DOCKED: BRANCH   9  10
DOCKED: ATOM     10  C   UNL     1      36.771  14.349 123.182 -0.44 -0.00    +0.000 A 
DOCKED: ATOM     11  C   UNL     1      37.397  15.592 123.375 -0.31 -0.00    +0.000 A 
DOCKED: ATOM     12  C   UNL     1      36.668  16.679 123.868 -0.26 -0.00    +0.000 A 
DOCKED: ATOM     13  C   UNL     1      35.314  16.530 124.181 -0.39 -0.00    +0.000 A 
DOCKED: ATOM     14  C   UNL     1      34.688  15.293 124.003 -0.52 -0.00    +0.000 A 
DOCKED: ATOM     15  C   UNL     1      35.413  14.204 123.510 -0.38 -0.00    +0.000 A 
DOCKED: ATOM     16  CM  UNL     1      36.042  15.441 123.687 +0.00 -0.00    +0.000 AC
DOCKED: ENDBRANCH   9  10
DOCKED: ENDBRANCH   1   9
DOCKED: TORSDOF 5DOCKED: TER
DOCKED: ENDMDL
________________________________________________________________________________


	BEGINNING GENETIC ALGORITHM DOCKING 67 of 100
Run: 67 Seed: 1557120181 436902956 [ Run 67 of 100 GA/GALS ]
Beginning LAMARCKIAN GENETIC ALGORITHM (LGA), with a maximum of 2500000 energy evaluations.

Final-Value: -11.962


	FINAL GENETIC ALGORITHM DOCKED STATE
	_______________________________________________


Detailed state:  trans 35.218 11.168 122.724 quatxyzw 0.587168 0.058366 -0.506104 -0.629036 center 0.725 -0.143 0.203 ntor 5 -173.2026 20.9194 -66.3219 17.1572 -87.4015
State:	 35.218  11.168 122.724   0.755  0.075 -0.651 -102.042   -173.20   20.92  -66.32   17.16  -87.40

DOCKED: MODEL       67
DOCKED: USER    Run = 67
DOCKED: USER    DPF = ligand_dock.biased.dpf
DOCKED: USER  
DOCKED: USER    Estimated Free Energy of Binding    =   -9.55 kcal/mol  [=(1)+(2)+(3)-(4)]
DOCKED: USER    Estimated Inhibition Constant, Ki   =  100.42 nM (nanomolar)  [Temperature = 298.15 K]
DOCKED: USER    
DOCKED: USER    (1) Final Intermolecular Energy     =  -11.04 kcal/mol
DOCKED: USER        vdW + Hbond + desolv Energy     =  -11.04 kcal/mol
DOCKED: USER        Electrostatic Energy            =   +0.00 kcal/mol
DOCKED: USER    (2) Final Total Internal Energy     =   -0.92 kcal/mol
DOCKED: USER    (3) Torsional Free Energy           =   +1.49 kcal/mol
DOCKED: USER    (4) Unbound System's Energy  [=(2)] =   -0.92 kcal/mol
DOCKED: USER    
DOCKED: USER    
DOCKED: USER    NEWDPF move ligand.dum.pdbqt
DOCKED: USER    NEWDPF about 0.725000 -0.143000 0.203000
DOCKED: USER    NEWDPF tran0 35.218151 11.167618 122.724266
DOCKED: USER    NEWDPF quaternion0 0.587168 0.058366 -0.506104 -0.629036
DOCKED: USER    NEWDPF axisangle0 0.755320 0.075081 -0.651041 -102.041887
DOCKED: USER    NEWDPF quat0 0.755320 0.075081 -0.651041 -102.041887
DOCKED: USER    NEWDPF dihe0 -173.20 20.92 -66.32 17.16 -87.40 
DOCKED: USER  keepresnum = 1 
DOCKED: USER  
DOCKED: REMARK  Name = 
DOCKED: REMARK  5 active torsions:
DOCKED: REMARK  status: ('A' for Active; 'I' for Inactive)
DOCKED: REMARK    1  A    between atoms: O_1  and  N_2
DOCKED: REMARK    2  A    between atoms: C_3  and  C_4
DOCKED: REMARK    3  A    between atoms: C_4  and  C_5
DOCKED: REMARK    4  A    between atoms: C_5  and  C_6
DOCKED: REMARK    5  A    between atoms: C_6  and  C_7
DOCKED: REMARK                            x       y       z     vdW  Elec       q    Type
DOCKED: REMARK                         _______ _______ _______ _____ _____    ______ ____
DOCKED: USER                              x       y       z     vdW  Elec       q    Type
DOCKED: USER                           _______ _______ _______ _____ _____    ______ ____
DOCKED: ROOT
DOCKED: ATOM      1  C   UNL     1      35.759  11.475 122.605 -0.58 -0.00    +0.000 C 
DOCKED: ENDROOT
DOCKED: BRANCH   1   2
DOCKED: ATOM      2  C   UNL     1      37.043  10.961 121.948 -0.54 -0.00    +0.000 C 
DOCKED: BRANCH   2   4
DOCKED: ATOM      3  N   UNL     1      37.054   8.730 123.164 -0.69 -0.00    +0.000 N 
DOCKED: ATOM      4  C   UNL     1      37.062   9.462 121.936 -0.62 -0.00    +0.000 C 
DOCKED: ATOM      5  O   UNL     1      37.044   8.846 120.836 -2.72 -0.00    +0.000 OA
DOCKED: ATOM      6  H   UNL     1      37.042   9.214 124.020 -0.53 -0.00    +0.000 HD
DOCKED: BRANCH   3   7
DOCKED: ATOM      7  O   UNL     1      37.063   7.375 123.159 -2.17 -0.00    +0.000 OA
DOCKED: ATOM      8  H   UNL     1      37.183   7.057 122.250 -0.14 -0.00    +0.000 HD
DOCKED: ENDBRANCH   3   7
DOCKED: ENDBRANCH   2   4
DOCKED: ENDBRANCH   1   2
DOCKED: BRANCH   1   9
DOCKED: ATOM      9  C   UNL     1      36.065  12.196 123.922 -0.62 -0.00    +0.000 C 
DOCKED: BRANCH   9  10
DOCKED: ATOM     10  C   UNL     1      36.236  13.674 123.687 -0.50 -0.00    +0.000 A 
DOCKED: ATOM     11  C   UNL     1      35.231  14.575 124.076 -0.46 -0.00    +0.000 A 
DOCKED: ATOM     12  C   UNL     1      35.378  15.943 123.828 -0.43 -0.00    +0.000 A 
DOCKED: ATOM     13  C   UNL     1      36.523  16.420 123.183 -0.29 -0.00    +0.000 A 
DOCKED: ATOM     14  C   UNL     1      37.521  15.527 122.782 -0.31 -0.00    +0.000 A 
DOCKED: ATOM     15  C   UNL     1      37.379  14.158 123.027 -0.45 -0.00    +0.000 A 
DOCKED: ATOM     16  CM  UNL     1      36.378  15.049 123.430 +0.00 -0.00    +0.000 AC
DOCKED: ENDBRANCH   9  10
DOCKED: ENDBRANCH   1   9
DOCKED: TORSDOF 5DOCKED: TER
DOCKED: ENDMDL
________________________________________________________________________________


	BEGINNING GENETIC ALGORITHM DOCKING 68 of 100
Run: 68 Seed: 1494654837 88620149 [ Run 68 of 100 GA/GALS ]
Beginning LAMARCKIAN GENETIC ALGORITHM (LGA), with a maximum of 2500000 energy evaluations.

Final-Value: -11.957


	FINAL GENETIC ALGORITHM DOCKED STATE
	_______________________________________________


Detailed state:  trans 35.520 11.366 123.288 quatxyzw 0.407176 0.202319 -0.647936 -0.611109 center 0.725 -0.143 0.203 ntor 5 -148.5117 58.8099 -75.7111 -22.7289 -71.4893
State:	 35.520  11.366 123.288   0.514  0.256 -0.819 -104.661   -148.51   58.81  -75.71  -22.73  -71.49

DOCKED: MODEL       68
DOCKED: USER    Run = 68
DOCKED: USER    DPF = ligand_dock.biased.dpf
DOCKED: USER  
DOCKED: USER    Estimated Free Energy of Binding    =   -9.69 kcal/mol  [=(1)+(2)+(3)-(4)]
DOCKED: USER    Estimated Inhibition Constant, Ki   =   78.38 nM (nanomolar)  [Temperature = 298.15 K]
DOCKED: USER    
DOCKED: USER    (1) Final Intermolecular Energy     =  -11.19 kcal/mol
DOCKED: USER        vdW + Hbond + desolv Energy     =  -11.19 kcal/mol
DOCKED: USER        Electrostatic Energy            =   +0.00 kcal/mol
DOCKED: USER    (2) Final Total Internal Energy     =   -0.77 kcal/mol
DOCKED: USER    (3) Torsional Free Energy           =   +1.49 kcal/mol
DOCKED: USER    (4) Unbound System's Energy  [=(2)] =   -0.77 kcal/mol
DOCKED: USER    
DOCKED: USER    
DOCKED: USER    NEWDPF move ligand.dum.pdbqt
DOCKED: USER    NEWDPF about 0.725000 -0.143000 0.203000
DOCKED: USER    NEWDPF tran0 35.520361 11.366381 123.288229
DOCKED: USER    NEWDPF quaternion0 0.407176 0.202319 -0.647936 -0.611109
DOCKED: USER    NEWDPF axisangle0 0.514406 0.255600 -0.818569 -104.660592
DOCKED: USER    NEWDPF quat0 0.514406 0.255600 -0.818569 -104.660592
DOCKED: USER    NEWDPF dihe0 -148.51 58.81 -75.71 -22.73 -71.49 
DOCKED: USER  keepresnum = 1 
DOCKED: USER  
DOCKED: REMARK  Name = 
DOCKED: REMARK  5 active torsions:
DOCKED: REMARK  status: ('A' for Active; 'I' for Inactive)
DOCKED: REMARK    1  A    between atoms: O_1  and  N_2
DOCKED: REMARK    2  A    between atoms: C_3  and  C_4
DOCKED: REMARK    3  A    between atoms: C_4  and  C_5
DOCKED: REMARK    4  A    between atoms: C_5  and  C_6
DOCKED: REMARK    5  A    between atoms: C_6  and  C_7
DOCKED: REMARK                            x       y       z     vdW  Elec       q    Type
DOCKED: REMARK                         _______ _______ _______ _____ _____    ______ ____
DOCKED: USER                              x       y       z     vdW  Elec       q    Type
DOCKED: USER                           _______ _______ _______ _____ _____    ______ ____
DOCKED: ROOT
DOCKED: ATOM      1  C   UNL     1      35.919  11.650 122.886 -0.65 -0.00    +0.000 C 
DOCKED: ENDROOT
DOCKED: BRANCH   1   2
DOCKED: ATOM      2  C   UNL     1      36.692  11.056 121.706 -0.56 -0.00    +0.000 C 
DOCKED: BRANCH   2   4
DOCKED: ATOM      3  N   UNL     1      36.925   9.038 123.231 -0.63 -0.00    +0.000 N 
DOCKED: ATOM      4  C   UNL     1      36.920   9.589 121.912 -0.62 -0.00    +0.000 C 
DOCKED: ATOM      5  O   UNL     1      37.068   8.833 120.914 -2.70 -0.00    +0.000 OA
DOCKED: ATOM      6  H   UNL     1      36.784   9.628 124.007 -0.47 -0.00    +0.000 HD
DOCKED: BRANCH   3   7
DOCKED: ATOM      7  O   UNL     1      37.122   7.712 123.424 -2.28 -0.00    +0.000 OA
DOCKED: ATOM      8  H   UNL     1      37.705   7.369 122.728 -0.33 -0.00    +0.000 HD
DOCKED: ENDBRANCH   3   7
DOCKED: ENDBRANCH   2   4
DOCKED: ENDBRANCH   1   2
DOCKED: BRANCH   1   9
DOCKED: ATOM      9  C   UNL     1      36.846  12.455 123.802 -0.61 -0.00    +0.000 C 
DOCKED: BRANCH   9  10
DOCKED: ATOM     10  C   UNL     1      36.569  13.929 123.669 -0.45 -0.00    +0.000 A 
DOCKED: ATOM     11  C   UNL     1      35.338  14.460 124.090 -0.45 -0.00    +0.000 A 
DOCKED: ATOM     12  C   UNL     1      35.070  15.824 123.936 -0.47 -0.00    +0.000 A 
DOCKED: ATOM     13  C   UNL     1      36.023  16.664 123.354 -0.30 -0.00    +0.000 A 
DOCKED: ATOM     14  C   UNL     1      37.245  16.141 122.923 -0.27 -0.00    +0.000 A 
DOCKED: ATOM     15  C   UNL     1      37.518  14.778 123.073 -0.39 -0.00    +0.000 A 
DOCKED: ATOM     16  CM  UNL     1      36.294  15.299 123.507 +0.00 -0.00    +0.000 AC
DOCKED: ENDBRANCH   9  10
DOCKED: ENDBRANCH   1   9
DOCKED: TORSDOF 5DOCKED: TER
DOCKED: ENDMDL
________________________________________________________________________________


	BEGINNING GENETIC ALGORITHM DOCKING 69 of 100
Run: 69 Seed: 741549575 2001431760 [ Run 69 of 100 GA/GALS ]
Beginning LAMARCKIAN GENETIC ALGORITHM (LGA), with a maximum of 2500000 energy evaluations.

Final-Value: -11.162


	FINAL GENETIC ALGORITHM DOCKED STATE
	_______________________________________________


Detailed state:  trans 28.618 6.951 117.133 quatxyzw 0.126662 -0.288111 0.749051 -0.582984 center 0.725 -0.143 0.203 ntor 5 -144.8584 -176.0839 -169.5677 132.2561 36.7152
State:	 28.618   6.951 117.133   0.156 -0.355  0.922 -108.679   -144.86 -176.08 -169.57  132.26   36.72

DOCKED: MODEL       69
DOCKED: USER    Run = 69
DOCKED: USER    DPF = ligand_dock.biased.dpf
DOCKED: USER  
DOCKED: USER    Estimated Free Energy of Binding    =   -8.84 kcal/mol  [=(1)+(2)+(3)-(4)]
DOCKED: USER    Estimated Inhibition Constant, Ki   =  333.84 nM (nanomolar)  [Temperature = 298.15 K]
DOCKED: USER    
DOCKED: USER    (1) Final Intermolecular Energy     =  -10.33 kcal/mol
DOCKED: USER        vdW + Hbond + desolv Energy     =  -10.33 kcal/mol
DOCKED: USER        Electrostatic Energy            =   +0.00 kcal/mol
DOCKED: USER    (2) Final Total Internal Energy     =   -0.83 kcal/mol
DOCKED: USER    (3) Torsional Free Energy           =   +1.49 kcal/mol
DOCKED: USER    (4) Unbound System's Energy  [=(2)] =   -0.83 kcal/mol
DOCKED: USER    
DOCKED: USER    
DOCKED: USER    NEWDPF move ligand.dum.pdbqt
DOCKED: USER    NEWDPF about 0.725000 -0.143000 0.203000
DOCKED: USER    NEWDPF tran0 28.617597 6.950956 117.133165
DOCKED: USER    NEWDPF quaternion0 0.126662 -0.288111 0.749051 -0.582984
DOCKED: USER    NEWDPF axisangle0 0.155894 -0.354605 0.921928 -108.678540
DOCKED: USER    NEWDPF quat0 0.155894 -0.354605 0.921928 -108.678540
DOCKED: USER    NEWDPF dihe0 -144.86 -176.08 -169.57 132.26 36.72 
DOCKED: USER  keepresnum = 1 
DOCKED: USER  
DOCKED: REMARK  Name = 
DOCKED: REMARK  5 active torsions:
DOCKED: REMARK  status: ('A' for Active; 'I' for Inactive)
DOCKED: REMARK    1  A    between atoms: O_1  and  N_2
DOCKED: REMARK    2  A    between atoms: C_3  and  C_4
DOCKED: REMARK    3  A    between atoms: C_4  and  C_5
DOCKED: REMARK    4  A    between atoms: C_5  and  C_6
DOCKED: REMARK    5  A    between atoms: C_6  and  C_7
DOCKED: REMARK                            x       y       z     vdW  Elec       q    Type
DOCKED: REMARK                         _______ _______ _______ _____ _____    ______ ____
DOCKED: USER                              x       y       z     vdW  Elec       q    Type
DOCKED: USER                           _______ _______ _______ _____ _____    ______ ____
DOCKED: ROOT
DOCKED: ATOM      1  C   UNL     1      28.427   7.372 116.701 -0.59 -0.00    +0.000 C 
DOCKED: ENDROOT
DOCKED: BRANCH   1   2
DOCKED: ATOM      2  C   UNL     1      27.573   8.630 116.882 -0.72 +0.00    +0.000 C 
DOCKED: BRANCH   2   4
DOCKED: ATOM      3  N   UNL     1      25.081   8.177 116.685 -0.66 -0.00    +0.000 N 
DOCKED: ATOM      4  C   UNL     1      26.319   8.535 116.066 -0.87 -0.00    +0.000 C 
DOCKED: ATOM      5  O   UNL     1      26.352   8.812 114.837 -1.50 -0.00    +0.000 OA
DOCKED: ATOM      6  H   UNL     1      25.055   7.986 117.649 -0.04 -0.00    +0.000 HD
DOCKED: BRANCH   3   7
DOCKED: ATOM      7  O   UNL     1      23.943   8.098 115.953 -1.40 -0.00    +0.000 OA
DOCKED: ATOM      8  H   UNL     1      24.152   7.763 115.067 -0.38 -0.00    +0.000 HD
DOCKED: ENDBRANCH   3   7
DOCKED: ENDBRANCH   2   4
DOCKED: ENDBRANCH   1   2
DOCKED: BRANCH   1   9
DOCKED: ATOM      9  C   UNL     1      27.892   6.504 115.558 -0.71 -0.00    +0.000 C 
DOCKED: BRANCH   9  10
DOCKED: ATOM     10  C   UNL     1      28.041   5.043 115.891 -0.62 -0.00    +0.000 A 
DOCKED: ATOM     11  C   UNL     1      28.455   4.130 114.906 -0.62 -0.00    +0.000 A 
DOCKED: ATOM     12  C   UNL     1      28.562   2.769 115.208 -0.51 +0.00    +0.000 A 
DOCKED: ATOM     13  C   UNL     1      28.247   2.309 116.490 -0.55 +0.00    +0.000 A 
DOCKED: ATOM     14  C   UNL     1      27.823   3.210 117.471 -0.62 -0.00    +0.000 A 
DOCKED: ATOM     15  C   UNL     1      27.714   4.571 117.174 -0.54 -0.00    +0.000 A 
DOCKED: ATOM     16  CM  UNL     1      28.140   3.672 116.190 +0.00 +0.00    +0.000 AC
DOCKED: ENDBRANCH   9  10
DOCKED: ENDBRANCH   1   9
DOCKED: TORSDOF 5DOCKED: TER
DOCKED: ENDMDL
________________________________________________________________________________


	BEGINNING GENETIC ALGORITHM DOCKING 70 of 100
Run: 70 Seed: 460051750 88963149 [ Run 70 of 100 GA/GALS ]
Beginning LAMARCKIAN GENETIC ALGORITHM (LGA), with a maximum of 2500000 energy evaluations.

Final-Value: -11.407


	FINAL GENETIC ALGORITHM DOCKED STATE
	_______________________________________________


Detailed state:  trans 37.450 12.036 122.379 quatxyzw 0.536907 -0.791678 -0.076044 0.281414 center 0.725 -0.143 0.203 ntor 5 -158.3308 171.1908 29.1427 -96.6167 30.0035
State:	 37.450  12.036 122.379   0.560 -0.825 -0.079 147.311   -158.33  171.19   29.14  -96.62   30.00

DOCKED: MODEL       70
DOCKED: USER    Run = 70
DOCKED: USER    DPF = ligand_dock.biased.dpf
DOCKED: USER  
DOCKED: USER    Estimated Free Energy of Binding    =   -9.15 kcal/mol  [=(1)+(2)+(3)-(4)]
DOCKED: USER    Estimated Inhibition Constant, Ki   =  196.73 nM (nanomolar)  [Temperature = 298.15 K]
DOCKED: USER    
DOCKED: USER    (1) Final Intermolecular Energy     =  -10.64 kcal/mol
DOCKED: USER        vdW + Hbond + desolv Energy     =  -10.64 kcal/mol
DOCKED: USER        Electrostatic Energy            =   +0.00 kcal/mol
DOCKED: USER    (2) Final Total Internal Energy     =   -0.77 kcal/mol
DOCKED: USER    (3) Torsional Free Energy           =   +1.49 kcal/mol
DOCKED: USER    (4) Unbound System's Energy  [=(2)] =   -0.77 kcal/mol
DOCKED: USER    
DOCKED: USER    
DOCKED: USER    NEWDPF move ligand.dum.pdbqt
DOCKED: USER    NEWDPF about 0.725000 -0.143000 0.203000
DOCKED: USER    NEWDPF tran0 37.450281 12.035509 122.378613
DOCKED: USER    NEWDPF quaternion0 0.536907 -0.791678 -0.076044 0.281414
DOCKED: USER    NEWDPF axisangle0 0.559519 -0.825020 -0.079247 147.310825
DOCKED: USER    NEWDPF quat0 0.559519 -0.825020 -0.079247 147.310825
DOCKED: USER    NEWDPF dihe0 -158.33 171.19 29.14 -96.62 30.00 
DOCKED: USER  keepresnum = 1 
DOCKED: USER  
DOCKED: REMARK  Name = 
DOCKED: REMARK  5 active torsions:
DOCKED: REMARK  status: ('A' for Active; 'I' for Inactive)
DOCKED: REMARK    1  A    between atoms: O_1  and  N_2
DOCKED: REMARK    2  A    between atoms: C_3  and  C_4
DOCKED: REMARK    3  A    between atoms: C_4  and  C_5
DOCKED: REMARK    4  A    between atoms: C_5  and  C_6
DOCKED: REMARK    5  A    between atoms: C_6  and  C_7
DOCKED: REMARK                            x       y       z     vdW  Elec       q    Type
DOCKED: REMARK                         _______ _______ _______ _____ _____    ______ ____
DOCKED: USER                              x       y       z     vdW  Elec       q    Type
DOCKED: USER                           _______ _______ _______ _____ _____    ______ ____
DOCKED: ROOT
DOCKED: ATOM      1  C   UNL     1      36.989  11.762 122.716 -0.63 -0.00    +0.000 C 
DOCKED: ENDROOT
DOCKED: BRANCH   1   2
DOCKED: ATOM      2  C   UNL     1      35.962  10.713 122.283 -0.65 -0.00    +0.000 C 
DOCKED: BRANCH   2   4
DOCKED: ATOM      3  N   UNL     1      36.591   8.541 123.442 -0.63 -0.00    +0.000 N 
DOCKED: ATOM      4  C   UNL     1      36.583   9.348 122.262 -0.72 -0.00    +0.000 C 
DOCKED: ATOM      5  O   UNL     1      37.064   8.897 121.187 -2.70 -0.00    +0.000 OA
DOCKED: ATOM      6  H   UNL     1      36.192   8.887 124.272 -0.24 -0.00    +0.000 HD
DOCKED: BRANCH   3   7
DOCKED: ATOM      7  O   UNL     1      37.143   7.304 123.426 -2.04 -0.00    +0.000 OA
DOCKED: ATOM      8  H   UNL     1      37.772   7.241 122.690 -0.40 -0.00    +0.000 HD
DOCKED: ENDBRANCH   3   7
DOCKED: ENDBRANCH   2   4
DOCKED: ENDBRANCH   1   2
DOCKED: BRANCH   1   9
DOCKED: ATOM      9  C   UNL     1      36.308  12.940 123.420 -0.64 -0.00    +0.000 C 
DOCKED: BRANCH   9  10
DOCKED: ATOM     10  C   UNL     1      37.085  14.210 123.196 -0.44 -0.00    +0.000 A 
DOCKED: ATOM     11  C   UNL     1      38.343  14.171 122.571 -0.41 -0.00    +0.000 A 
DOCKED: ATOM     12  C   UNL     1      39.077  15.348 122.392 -0.32 -0.00    +0.000 A 
DOCKED: ATOM     13  C   UNL     1      38.566  16.568 122.843 -0.22 -0.00    +0.000 A 
DOCKED: ATOM     14  C   UNL     1      37.321  16.613 123.476 -0.25 -0.00    +0.000 A 
DOCKED: ATOM     15  C   UNL     1      36.583  15.439 123.658 -0.35 -0.00    +0.000 A 
DOCKED: ATOM     16  CM  UNL     1      37.829  15.391 123.023 +0.00 -0.00    +0.000 AC
DOCKED: ENDBRANCH   9  10
DOCKED: ENDBRANCH   1   9
DOCKED: TORSDOF 5DOCKED: TER
DOCKED: ENDMDL
________________________________________________________________________________


	BEGINNING GENETIC ALGORITHM DOCKING 71 of 100
Run: 71 Seed: 66141800 922868104 [ Run 71 of 100 GA/GALS ]
Beginning LAMARCKIAN GENETIC ALGORITHM (LGA), with a maximum of 2500000 energy evaluations.

Final-Value: -11.939


	FINAL GENETIC ALGORITHM DOCKED STATE
	_______________________________________________


Detailed state:  trans 37.257 12.320 122.404 quatxyzw -0.553684 0.722704 0.287066 -0.297868 center 0.725 -0.143 0.203 ntor 5 -174.3785 150.2505 60.1070 -126.7386 57.1615
State:	 37.257  12.320 122.404  -0.580  0.757  0.301 -145.341   -174.38  150.25   60.11 -126.74   57.16

DOCKED: MODEL       71
DOCKED: USER    Run = 71
DOCKED: USER    DPF = ligand_dock.biased.dpf
DOCKED: USER  
DOCKED: USER    Estimated Free Energy of Binding    =   -9.57 kcal/mol  [=(1)+(2)+(3)-(4)]
DOCKED: USER    Estimated Inhibition Constant, Ki   =   97.11 nM (nanomolar)  [Temperature = 298.15 K]
DOCKED: USER    
DOCKED: USER    (1) Final Intermolecular Energy     =  -11.06 kcal/mol
DOCKED: USER        vdW + Hbond + desolv Energy     =  -11.06 kcal/mol
DOCKED: USER        Electrostatic Energy            =   +0.00 kcal/mol
DOCKED: USER    (2) Final Total Internal Energy     =   -0.88 kcal/mol
DOCKED: USER    (3) Torsional Free Energy           =   +1.49 kcal/mol
DOCKED: USER    (4) Unbound System's Energy  [=(2)] =   -0.88 kcal/mol
DOCKED: USER    
DOCKED: USER    
DOCKED: USER    NEWDPF move ligand.dum.pdbqt
DOCKED: USER    NEWDPF about 0.725000 -0.143000 0.203000
DOCKED: USER    NEWDPF tran0 37.257129 12.319795 122.404121
DOCKED: USER    NEWDPF quaternion0 -0.553684 0.722704 0.287066 -0.297868
DOCKED: USER    NEWDPF axisangle0 -0.580013 0.757070 0.300717 -145.340815
DOCKED: USER    NEWDPF quat0 -0.580013 0.757070 0.300717 -145.340815
DOCKED: USER    NEWDPF dihe0 -174.38 150.25 60.11 -126.74 57.16 
DOCKED: USER  keepresnum = 1 
DOCKED: USER  
DOCKED: REMARK  Name = 
DOCKED: REMARK  5 active torsions:
DOCKED: REMARK  status: ('A' for Active; 'I' for Inactive)
DOCKED: REMARK    1  A    between atoms: O_1  and  N_2
DOCKED: REMARK    2  A    between atoms: C_3  and  C_4
DOCKED: REMARK    3  A    between atoms: C_4  and  C_5
DOCKED: REMARK    4  A    between atoms: C_5  and  C_6
DOCKED: REMARK    5  A    between atoms: C_6  and  C_7
DOCKED: REMARK                            x       y       z     vdW  Elec       q    Type
DOCKED: REMARK                         _______ _______ _______ _____ _____    ______ ____
DOCKED: USER                              x       y       z     vdW  Elec       q    Type
DOCKED: USER                           _______ _______ _______ _____ _____    ______ ____
DOCKED: ROOT
DOCKED: ATOM      1  C   UNL     1      36.928  11.850 122.671 -0.64 -0.00    +0.000 C 
DOCKED: ENDROOT
DOCKED: BRANCH   1   2
DOCKED: ATOM      2  C   UNL     1      36.047  10.785 122.011 -0.56 -0.00    +0.000 C 
DOCKED: BRANCH   2   4
DOCKED: ATOM      3  N   UNL     1      36.857   8.798 123.372 -0.62 -0.00    +0.000 N 
DOCKED: ATOM      4  C   UNL     1      36.696   9.437 122.103 -0.70 -0.00    +0.000 C 
DOCKED: ATOM      5  O   UNL     1      37.063   8.847 121.050 -2.70 -0.00    +0.000 OA
DOCKED: ATOM      6  H   UNL     1      36.546   9.250 124.188 -0.43 -0.00    +0.000 HD
DOCKED: BRANCH   3   7
DOCKED: ATOM      7  O   UNL     1      37.434   7.576 123.460 -2.11 -0.00    +0.000 OA
DOCKED: ATOM      8  H   UNL     1      37.762   7.311 122.586 -0.29 -0.00    +0.000 HD
DOCKED: ENDBRANCH   3   7
DOCKED: ENDBRANCH   2   4
DOCKED: ENDBRANCH   1   2
DOCKED: BRANCH   1   9
DOCKED: ATOM      9  C   UNL     1      36.192  12.533 123.828 -0.65 -0.00    +0.000 C 
DOCKED: BRANCH   9  10
DOCKED: ATOM     10  C   UNL     1      36.127  14.021 123.607 -0.49 -0.00    +0.000 A 
DOCKED: ATOM     11  C   UNL     1      37.219  14.702 123.045 -0.40 -0.00    +0.000 A 
DOCKED: ATOM     12  C   UNL     1      37.170  16.089 122.870 -0.27 -0.00    +0.000 A 
DOCKED: ATOM     13  C   UNL     1      36.036  16.805 123.263 -0.29 -0.00    +0.000 A 
DOCKED: ATOM     14  C   UNL     1      34.950  16.135 123.835 -0.45 -0.00    +0.000 A 
DOCKED: ATOM     15  C   UNL     1      34.995  14.749 124.012 -0.46 -0.00    +0.000 A 
DOCKED: ATOM     16  CM  UNL     1      36.082  15.416 123.439 +0.00 -0.00    +0.000 AC
DOCKED: ENDBRANCH   9  10
DOCKED: ENDBRANCH   1   9
DOCKED: TORSDOF 5DOCKED: TER
DOCKED: ENDMDL
________________________________________________________________________________


	BEGINNING GENETIC ALGORITHM DOCKING 72 of 100
Run: 72 Seed: 921444587 1581204844 [ Run 72 of 100 GA/GALS ]
Beginning LAMARCKIAN GENETIC ALGORITHM (LGA), with a maximum of 2500000 energy evaluations.

Final-Value: -12.041


	FINAL GENETIC ALGORITHM DOCKED STATE
	_______________________________________________


Detailed state:  trans 37.448 11.682 123.817 quatxyzw 0.138028 -0.577249 0.586634 0.550993 center 0.725 -0.143 0.203 ntor 5 -177.7412 118.4548 -43.1862 112.7241 -87.4973
State:	 37.448  11.682 123.817   0.165 -0.692  0.703 113.130   -177.74  118.45  -43.19  112.72  -87.50

DOCKED: MODEL       72
DOCKED: USER    Run = 72
DOCKED: USER    DPF = ligand_dock.biased.dpf
DOCKED: USER  
DOCKED: USER    Estimated Free Energy of Binding    =   -9.63 kcal/mol  [=(1)+(2)+(3)-(4)]
DOCKED: USER    Estimated Inhibition Constant, Ki   =   86.97 nM (nanomolar)  [Temperature = 298.15 K]
DOCKED: USER    
DOCKED: USER    (1) Final Intermolecular Energy     =  -11.12 kcal/mol
DOCKED: USER        vdW + Hbond + desolv Energy     =  -11.12 kcal/mol
DOCKED: USER        Electrostatic Energy            =   +0.00 kcal/mol
DOCKED: USER    (2) Final Total Internal Energy     =   -0.92 kcal/mol
DOCKED: USER    (3) Torsional Free Energy           =   +1.49 kcal/mol
DOCKED: USER    (4) Unbound System's Energy  [=(2)] =   -0.92 kcal/mol
DOCKED: USER    
DOCKED: USER    
DOCKED: USER    NEWDPF move ligand.dum.pdbqt
DOCKED: USER    NEWDPF about 0.725000 -0.143000 0.203000
DOCKED: USER    NEWDPF tran0 37.448257 11.681806 123.817364
DOCKED: USER    NEWDPF quaternion0 0.138028 -0.577249 0.586634 0.550993
DOCKED: USER    NEWDPF axisangle0 0.165400 -0.691722 0.702968 113.129741
DOCKED: USER    NEWDPF quat0 0.165400 -0.691722 0.702968 113.129741
DOCKED: USER    NEWDPF dihe0 -177.74 118.45 -43.19 112.72 -87.50 
DOCKED: USER  keepresnum = 1 
DOCKED: USER  
DOCKED: REMARK  Name = 
DOCKED: REMARK  5 active torsions:
DOCKED: REMARK  status: ('A' for Active; 'I' for Inactive)
DOCKED: REMARK    1  A    between atoms: O_1  and  N_2
DOCKED: REMARK    2  A    between atoms: C_3  and  C_4
DOCKED: REMARK    3  A    between atoms: C_4  and  C_5
DOCKED: REMARK    4  A    between atoms: C_5  and  C_6
DOCKED: REMARK    5  A    between atoms: C_6  and  C_7
DOCKED: REMARK                            x       y       z     vdW  Elec       q    Type
DOCKED: REMARK                         _______ _______ _______ _____ _____    ______ ____
DOCKED: USER                              x       y       z     vdW  Elec       q    Type
DOCKED: USER                           _______ _______ _______ _____ _____    ______ ____
DOCKED: ROOT
DOCKED: ATOM      1  C   UNL     1      37.056  11.910 123.375 -0.67 -0.00    +0.000 C 
DOCKED: ENDROOT
DOCKED: BRANCH   1   2
DOCKED: ATOM      2  C   UNL     1      36.487  11.218 122.134 -0.63 -0.00    +0.000 C 
DOCKED: BRANCH   2   4
DOCKED: ATOM      3  N   UNL     1      36.926   9.033 123.353 -0.60 -0.00    +0.000 N 
DOCKED: ATOM      4  C   UNL     1      36.855   9.765 122.127 -0.64 -0.00    +0.000 C 
DOCKED: ATOM      5  O   UNL     1      37.063   9.178 121.031 -2.74 -0.00    +0.000 OA
DOCKED: ATOM      6  H   UNL     1      36.738   9.488 124.205 -0.49 -0.00    +0.000 HD
DOCKED: BRANCH   3   7
DOCKED: ATOM      7  O   UNL     1      37.250   7.717 123.352 -2.24 -0.00    +0.000 OA
DOCKED: ATOM      8  H   UNL     1      37.438   7.432 122.444 -0.15 -0.00    +0.000 HD
DOCKED: ENDBRANCH   3   7
DOCKED: ENDBRANCH   2   4
DOCKED: ENDBRANCH   1   2
DOCKED: BRANCH   1   9
DOCKED: ATOM      9  C   UNL     1      37.664  13.270 123.018 -0.54 -0.00    +0.000 C 
DOCKED: BRANCH   9  10
DOCKED: ATOM     10  C   UNL     1      36.643  14.364 123.183 -0.44 -0.00    +0.000 A 
DOCKED: ATOM     11  C   UNL     1      36.802  15.589 122.513 -0.30 -0.00    +0.000 A 
DOCKED: ATOM     12  C   UNL     1      35.870  16.616 122.693 -0.28 -0.00    +0.000 A 
DOCKED: ATOM     13  C   UNL     1      34.781  16.432 123.549 -0.43 -0.00    +0.000 A 
DOCKED: ATOM     14  C   UNL     1      34.624  15.220 124.229 -0.53 -0.00    +0.000 A 
DOCKED: ATOM     15  C   UNL     1      35.553  14.191 124.053 -0.44 -0.00    +0.000 A 
DOCKED: ATOM     16  CM  UNL     1      35.712  15.402 123.370 +0.00 -0.00    +0.000 AC
DOCKED: ENDBRANCH   9  10
DOCKED: ENDBRANCH   1   9
DOCKED: TORSDOF 5DOCKED: TER
DOCKED: ENDMDL
________________________________________________________________________________


	BEGINNING GENETIC ALGORITHM DOCKING 73 of 100
Run: 73 Seed: 151229688 1749925753 [ Run 73 of 100 GA/GALS ]
Beginning LAMARCKIAN GENETIC ALGORITHM (LGA), with a maximum of 2500000 energy evaluations.

Final-Value: -11.119


	FINAL GENETIC ALGORITHM DOCKED STATE
	_______________________________________________


Detailed state:  trans 37.587 11.972 122.418 quatxyzw 0.556363 -0.789650 0.178883 0.186853 center 0.725 -0.143 0.203 ntor 5 -179.7140 -178.3096 -17.2942 119.4041 -1.2652
State:	 37.587  11.972 122.418   0.566 -0.804  0.182 158.462   -179.71 -178.31  -17.29  119.40   -1.27

DOCKED: MODEL       73
DOCKED: USER    Run = 73
DOCKED: USER    DPF = ligand_dock.biased.dpf
DOCKED: USER  
DOCKED: USER    Estimated Free Energy of Binding    =   -8.78 kcal/mol  [=(1)+(2)+(3)-(4)]
DOCKED: USER    Estimated Inhibition Constant, Ki   =  364.61 nM (nanomolar)  [Temperature = 298.15 K]
DOCKED: USER    
DOCKED: USER    (1) Final Intermolecular Energy     =  -10.27 kcal/mol
DOCKED: USER        vdW + Hbond + desolv Energy     =  -10.27 kcal/mol
DOCKED: USER        Electrostatic Energy            =   +0.00 kcal/mol
DOCKED: USER    (2) Final Total Internal Energy     =   -0.84 kcal/mol
DOCKED: USER    (3) Torsional Free Energy           =   +1.49 kcal/mol
DOCKED: USER    (4) Unbound System's Energy  [=(2)] =   -0.84 kcal/mol
DOCKED: USER    
DOCKED: USER    
DOCKED: USER    NEWDPF move ligand.dum.pdbqt
DOCKED: USER    NEWDPF about 0.725000 -0.143000 0.203000
DOCKED: USER    NEWDPF tran0 37.586815 11.972288 122.418168
DOCKED: USER    NEWDPF quaternion0 0.556363 -0.789650 0.178883 0.186853
DOCKED: USER    NEWDPF axisangle0 0.566338 -0.803806 0.182090 158.461637
DOCKED: USER    NEWDPF quat0 0.566338 -0.803806 0.182090 158.461637
DOCKED: USER    NEWDPF dihe0 -179.71 -178.31 -17.29 119.40 -1.27 
DOCKED: USER  keepresnum = 1 
DOCKED: USER  
DOCKED: REMARK  Name = 
DOCKED: REMARK  5 active torsions:
DOCKED: REMARK  status: ('A' for Active; 'I' for Inactive)
DOCKED: REMARK    1  A    between atoms: O_1  and  N_2
DOCKED: REMARK    2  A    between atoms: C_3  and  C_4
DOCKED: REMARK    3  A    between atoms: C_4  and  C_5
DOCKED: REMARK    4  A    between atoms: C_5  and  C_6
DOCKED: REMARK    5  A    between atoms: C_6  and  C_7
DOCKED: REMARK                            x       y       z     vdW  Elec       q    Type
DOCKED: REMARK                         _______ _______ _______ _____ _____    ______ ____
DOCKED: USER                              x       y       z     vdW  Elec       q    Type
DOCKED: USER                           _______ _______ _______ _____ _____    ______ ____
DOCKED: ROOT
DOCKED: ATOM      1  C   UNL     1      37.064  11.934 122.773 -0.63 -0.00    +0.000 C 
DOCKED: ENDROOT
DOCKED: BRANCH   1   2
DOCKED: ATOM      2  C   UNL     1      35.961  10.872 122.764 -0.69 -0.00    +0.000 C 
DOCKED: BRANCH   2   4
DOCKED: ATOM      3  N   UNL     1      36.837   8.585 123.442 -0.64 -0.00    +0.000 N 
DOCKED: ATOM      4  C   UNL     1      36.528   9.529 122.414 -0.71 -0.00    +0.000 C 
DOCKED: ATOM      5  O   UNL     1      36.694   9.218 121.203 -2.63 -0.00    +0.000 OA
DOCKED: ATOM      6  H   UNL     1      36.682   8.823 124.384 -0.39 -0.00    +0.000 HD
DOCKED: BRANCH   3   7
DOCKED: ATOM      7  O   UNL     1      37.342   7.367 123.131 -2.01 -0.00    +0.000 OA
DOCKED: ATOM      8  H   UNL     1      37.438   7.295 122.168 -0.15 -0.00    +0.000 HD
DOCKED: ENDBRANCH   3   7
DOCKED: ENDBRANCH   2   4
DOCKED: ENDBRANCH   1   2
DOCKED: BRANCH   1   9
DOCKED: ATOM      9  C   UNL     1      36.470  13.344 122.700 -0.51 -0.00    +0.000 C 
DOCKED: BRANCH   9  10
DOCKED: ATOM     10  C   UNL     1      37.563  14.380 122.738 -0.41 -0.00    +0.000 A 
DOCKED: ATOM     11  C   UNL     1      37.309  15.659 123.260 -0.31 -0.00    +0.000 A 
DOCKED: ATOM     12  C   UNL     1      38.316  16.630 123.266 -0.23 -0.00    +0.000 A 
DOCKED: ATOM     13  C   UNL     1      39.577  16.334 122.743 -0.25 -0.00    +0.000 A 
DOCKED: ATOM     14  C   UNL     1      39.833  15.067 122.210 -0.37 -0.00    +0.000 A 
DOCKED: ATOM     15  C   UNL     1      38.830  14.093 122.202 -0.33 -0.00    +0.000 A 
DOCKED: ATOM     16  CM  UNL     1      38.571  15.360 122.736 +0.00 -0.00    +0.000 AC
DOCKED: ENDBRANCH   9  10
DOCKED: ENDBRANCH   1   9
DOCKED: TORSDOF 5DOCKED: TER
DOCKED: ENDMDL
________________________________________________________________________________


	BEGINNING GENETIC ALGORITHM DOCKING 74 of 100
Run: 74 Seed: 1677391107 41911613 [ Run 74 of 100 GA/GALS ]
Beginning LAMARCKIAN GENETIC ALGORITHM (LGA), with a maximum of 2500000 energy evaluations.

Final-Value: -11.721


	FINAL GENETIC ALGORITHM DOCKED STATE
	_______________________________________________


Detailed state:  trans 37.014 11.480 123.880 quatxyzw 0.290457 -0.634855 0.352773 0.623013 center 0.725 -0.143 0.203 ntor 5 -177.9441 130.9297 -19.7742 -5.9055 104.3053
State:	 37.014  11.480 123.880   0.371 -0.812  0.451 102.927   -177.94  130.93  -19.77   -5.91  104.31

DOCKED: MODEL       74
DOCKED: USER    Run = 74
DOCKED: USER    DPF = ligand_dock.biased.dpf
DOCKED: USER  
DOCKED: USER    Estimated Free Energy of Binding    =   -9.24 kcal/mol  [=(1)+(2)+(3)-(4)]
DOCKED: USER    Estimated Inhibition Constant, Ki   =  167.41 nM (nanomolar)  [Temperature = 298.15 K]
DOCKED: USER    
DOCKED: USER    (1) Final Intermolecular Energy     =  -10.74 kcal/mol
DOCKED: USER        vdW + Hbond + desolv Energy     =  -10.74 kcal/mol
DOCKED: USER        Electrostatic Energy            =   +0.00 kcal/mol
DOCKED: USER    (2) Final Total Internal Energy     =   -0.99 kcal/mol
DOCKED: USER    (3) Torsional Free Energy           =   +1.49 kcal/mol
DOCKED: USER    (4) Unbound System's Energy  [=(2)] =   -0.99 kcal/mol
DOCKED: USER    
DOCKED: USER    
DOCKED: USER    NEWDPF move ligand.dum.pdbqt
DOCKED: USER    NEWDPF about 0.725000 -0.143000 0.203000
DOCKED: USER    NEWDPF tran0 37.014432 11.479590 123.879826
DOCKED: USER    NEWDPF quaternion0 0.290457 -0.634855 0.352773 0.623013
DOCKED: USER    NEWDPF axisangle0 0.371328 -0.811615 0.450994 102.927066
DOCKED: USER    NEWDPF quat0 0.371328 -0.811615 0.450994 102.927066
DOCKED: USER    NEWDPF dihe0 -177.94 130.93 -19.77 -5.91 104.31 
DOCKED: USER  keepresnum = 1 
DOCKED: USER  
DOCKED: REMARK  Name = 
DOCKED: REMARK  5 active torsions:
DOCKED: REMARK  status: ('A' for Active; 'I' for Inactive)
DOCKED: REMARK    1  A    between atoms: O_1  and  N_2
DOCKED: REMARK    2  A    between atoms: C_3  and  C_4
DOCKED: REMARK    3  A    between atoms: C_4  and  C_5
DOCKED: REMARK    4  A    between atoms: C_5  and  C_6
DOCKED: REMARK    5  A    between atoms: C_6  and  C_7
DOCKED: REMARK                            x       y       z     vdW  Elec       q    Type
DOCKED: REMARK                         _______ _______ _______ _____ _____    ______ ____
DOCKED: USER                              x       y       z     vdW  Elec       q    Type
DOCKED: USER                           _______ _______ _______ _____ _____    ______ ____
DOCKED: ROOT
DOCKED: ATOM      1  C   UNL     1      36.461  11.533 123.576 -0.70 -0.00    +0.000 C 
DOCKED: ENDROOT
DOCKED: BRANCH   1   2
DOCKED: ATOM      2  C   UNL     1      35.971  10.811 122.319 -0.66 -0.00    +0.000 C 
DOCKED: BRANCH   2   4
DOCKED: ATOM      3  N   UNL     1      36.593   8.577 123.356 -0.64 -0.00    +0.000 N 
DOCKED: ATOM      4  C   UNL     1      36.587   9.448 122.222 -0.71 -0.00    +0.000 C 
DOCKED: ATOM      5  O   UNL     1      37.064   9.054 121.124 -2.72 -0.00    +0.000 OA
DOCKED: ATOM      6  H   UNL     1      36.197   8.879 124.205 -0.29 -0.00    +0.000 HD
DOCKED: BRANCH   3   7
DOCKED: ATOM      7  O   UNL     1      37.141   7.341 123.273 -2.09 -0.00    +0.000 OA
DOCKED: ATOM      8  H   UNL     1      37.514   7.213 122.386 -0.20 -0.00    +0.000 HD
DOCKED: ENDBRANCH   3   7
DOCKED: ENDBRANCH   2   4
DOCKED: ENDBRANCH   1   2
DOCKED: BRANCH   1   9
DOCKED: ATOM      9  C   UNL     1      36.259  13.047 123.456 -0.63 -0.00    +0.000 C 
DOCKED: BRANCH   9  10
DOCKED: ATOM     10  C   UNL     1      37.293  13.647 122.541 -0.46 -0.00    +0.000 A 
DOCKED: ATOM     11  C   UNL     1      37.110  13.618 121.148 -0.35 -0.00    +0.000 A 
DOCKED: ATOM     12  C   UNL     1      38.086  14.147 120.298 -0.31 -0.00    +0.000 A 
DOCKED: ATOM     13  C   UNL     1      39.255  14.698 120.830 -0.26 -0.00    +0.000 A 
DOCKED: ATOM     14  C   UNL     1      39.449  14.719 122.215 -0.36 -0.00    +0.000 A 
DOCKED: ATOM     15  C   UNL     1      38.476  14.192 123.069 -0.36 -0.00    +0.000 A 
DOCKED: ATOM     16  CM  UNL     1      38.278  14.170 121.684 +0.00 -0.00    +0.000 AC
DOCKED: ENDBRANCH   9  10
DOCKED: ENDBRANCH   1   9
DOCKED: TORSDOF 5DOCKED: TER
DOCKED: ENDMDL
________________________________________________________________________________


	BEGINNING GENETIC ALGORITHM DOCKING 75 of 100
Run: 75 Seed: 2028894970 1219035859 [ Run 75 of 100 GA/GALS ]
Beginning LAMARCKIAN GENETIC ALGORITHM (LGA), with a maximum of 2500000 energy evaluations.

Final-Value: -11.813


	FINAL GENETIC ALGORITHM DOCKED STATE
	_______________________________________________


Detailed state:  trans 37.623 11.863 123.183 quatxyzw 0.316809 -0.612531 0.549779 0.471361 center 0.725 -0.143 0.203 ntor 5 -166.6118 138.6242 -39.0339 71.0010 -67.7570
State:	 37.623  11.863 123.183   0.359 -0.695  0.623 123.755   -166.61  138.62  -39.03   71.00  -67.76

DOCKED: MODEL       75
DOCKED: USER    Run = 75
DOCKED: USER    DPF = ligand_dock.biased.dpf
DOCKED: USER  
DOCKED: USER    Estimated Free Energy of Binding    =   -9.47 kcal/mol  [=(1)+(2)+(3)-(4)]
DOCKED: USER    Estimated Inhibition Constant, Ki   =  114.81 nM (nanomolar)  [Temperature = 298.15 K]
DOCKED: USER    
DOCKED: USER    (1) Final Intermolecular Energy     =  -10.96 kcal/mol
DOCKED: USER        vdW + Hbond + desolv Energy     =  -10.96 kcal/mol
DOCKED: USER        Electrostatic Energy            =   +0.00 kcal/mol
DOCKED: USER    (2) Final Total Internal Energy     =   -0.85 kcal/mol
DOCKED: USER    (3) Torsional Free Energy           =   +1.49 kcal/mol
DOCKED: USER    (4) Unbound System's Energy  [=(2)] =   -0.85 kcal/mol
DOCKED: USER    
DOCKED: USER    
DOCKED: USER    NEWDPF move ligand.dum.pdbqt
DOCKED: USER    NEWDPF about 0.725000 -0.143000 0.203000
DOCKED: USER    NEWDPF tran0 37.622849 11.863496 123.182649
DOCKED: USER    NEWDPF quaternion0 0.316809 -0.612531 0.549779 0.471361
DOCKED: USER    NEWDPF axisangle0 0.359218 -0.694526 0.623375 123.754630
DOCKED: USER    NEWDPF quat0 0.359218 -0.694526 0.623375 123.754630
DOCKED: USER    NEWDPF dihe0 -166.61 138.62 -39.03 71.00 -67.76 
DOCKED: USER  keepresnum = 1 
DOCKED: USER  
DOCKED: REMARK  Name = 
DOCKED: REMARK  5 active torsions:
DOCKED: REMARK  status: ('A' for Active; 'I' for Inactive)
DOCKED: REMARK    1  A    between atoms: O_1  and  N_2
DOCKED: REMARK    2  A    between atoms: C_3  and  C_4
DOCKED: REMARK    3  A    between atoms: C_4  and  C_5
DOCKED: REMARK    4  A    between atoms: C_5  and  C_6
DOCKED: REMARK    5  A    between atoms: C_6  and  C_7
DOCKED: REMARK                            x       y       z     vdW  Elec       q    Type
DOCKED: REMARK                         _______ _______ _______ _____ _____    ______ ____
DOCKED: USER                              x       y       z     vdW  Elec       q    Type
DOCKED: USER                           _______ _______ _______ _____ _____    ______ ____
DOCKED: ROOT
DOCKED: ATOM      1  C   UNL     1      37.074  11.971 122.886 -0.64 -0.00    +0.000 C 
DOCKED: ENDROOT
DOCKED: BRANCH   1   2
DOCKED: ATOM      2  C   UNL     1      36.245  11.031 122.007 -0.61 -0.00    +0.000 C 
DOCKED: BRANCH   2   4
DOCKED: ATOM      3  N   UNL     1      36.879   8.989 123.379 -0.59 -0.00    +0.000 N 
DOCKED: ATOM      4  C   UNL     1      36.763   9.628 122.106 -0.67 -0.00    +0.000 C 
DOCKED: ATOM      5  O   UNL     1      37.059   8.996 121.055 -2.72 -0.00    +0.000 OA
DOCKED: ATOM      6  H   UNL     1      36.623   9.476 124.195 -0.46 -0.00    +0.000 HD
DOCKED: BRANCH   3   7
DOCKED: ATOM      7  O   UNL     1      37.338   7.718 123.474 -2.20 -0.00    +0.000 OA
DOCKED: ATOM      8  H   UNL     1      37.740   7.457 122.630 -0.25 -0.00    +0.000 HD
DOCKED: ENDBRANCH   3   7
DOCKED: ENDBRANCH   2   4
DOCKED: ENDBRANCH   1   2
DOCKED: BRANCH   1   9
DOCKED: ATOM      9  C   UNL     1      37.295  13.320 122.193 -0.51 -0.00    +0.000 C 
DOCKED: BRANCH   9  10
DOCKED: ATOM     10  C   UNL     1      36.558  14.414 122.919 -0.41 -0.00    +0.000 A 
DOCKED: ATOM     11  C   UNL     1      36.934  15.756 122.748 -0.30 -0.00    +0.000 A 
DOCKED: ATOM     12  C   UNL     1      36.269  16.769 123.448 -0.28 -0.00    +0.000 A 
DOCKED: ATOM     13  C   UNL     1      35.233  16.447 124.330 -0.40 -0.00    +0.000 A 
DOCKED: ATOM     14  C   UNL     1      34.862  15.112 124.514 -0.44 -0.00    +0.000 A 
DOCKED: ATOM     15  C   UNL     1      35.524  14.097 123.817 -0.48 -0.00    +0.000 A 
DOCKED: ATOM     16  CM  UNL     1      35.897  15.432 123.630 +0.00 -0.00    +0.000 AC
DOCKED: ENDBRANCH   9  10
DOCKED: ENDBRANCH   1   9
DOCKED: TORSDOF 5DOCKED: TER
DOCKED: ENDMDL
________________________________________________________________________________


	BEGINNING GENETIC ALGORITHM DOCKING 76 of 100
Run: 76 Seed: 1822923886 1022167058 [ Run 76 of 100 GA/GALS ]
Beginning LAMARCKIAN GENETIC ALGORITHM (LGA), with a maximum of 2500000 energy evaluations.

Final-Value: -11.766


	FINAL GENETIC ALGORITHM DOCKED STATE
	_______________________________________________


Detailed state:  trans 36.966 12.271 121.835 quatxyzw -0.464596 0.771283 0.434750 -0.016299 center 0.725 -0.143 0.203 ntor 5 -171.5570 -170.6194 68.4793 -167.1696 60.6640
State:	 36.966  12.271 121.835  -0.465  0.771  0.435 -178.132   -171.56 -170.62   68.48 -167.17   60.66

DOCKED: MODEL       76
DOCKED: USER    Run = 76
DOCKED: USER    DPF = ligand_dock.biased.dpf
DOCKED: USER  
DOCKED: USER    Estimated Free Energy of Binding    =   -9.41 kcal/mol  [=(1)+(2)+(3)-(4)]
DOCKED: USER    Estimated Inhibition Constant, Ki   =  127.27 nM (nanomolar)  [Temperature = 298.15 K]
DOCKED: USER    
DOCKED: USER    (1) Final Intermolecular Energy     =  -10.90 kcal/mol
DOCKED: USER        vdW + Hbond + desolv Energy     =  -10.90 kcal/mol
DOCKED: USER        Electrostatic Energy            =   +0.00 kcal/mol
DOCKED: USER    (2) Final Total Internal Energy     =   -0.87 kcal/mol
DOCKED: USER    (3) Torsional Free Energy           =   +1.49 kcal/mol
DOCKED: USER    (4) Unbound System's Energy  [=(2)] =   -0.87 kcal/mol
DOCKED: USER    
DOCKED: USER    
DOCKED: USER    NEWDPF move ligand.dum.pdbqt
DOCKED: USER    NEWDPF about 0.725000 -0.143000 0.203000
DOCKED: USER    NEWDPF tran0 36.965794 12.271274 121.835201
DOCKED: USER    NEWDPF quaternion0 -0.464596 0.771283 0.434750 -0.016299
DOCKED: USER    NEWDPF axisangle0 -0.464658 0.771385 0.434808 -178.132190
DOCKED: USER    NEWDPF quat0 -0.464658 0.771385 0.434808 -178.132190
DOCKED: USER    NEWDPF dihe0 -171.56 -170.62 68.48 -167.17 60.66 
DOCKED: USER  keepresnum = 1 
DOCKED: USER  
DOCKED: REMARK  Name = 
DOCKED: REMARK  5 active torsions:
DOCKED: REMARK  status: ('A' for Active; 'I' for Inactive)
DOCKED: REMARK    1  A    between atoms: O_1  and  N_2
DOCKED: REMARK    2  A    between atoms: C_3  and  C_4
DOCKED: REMARK    3  A    between atoms: C_4  and  C_5
DOCKED: REMARK    4  A    between atoms: C_5  and  C_6
DOCKED: REMARK    5  A    between atoms: C_6  and  C_7
DOCKED: REMARK                            x       y       z     vdW  Elec       q    Type
DOCKED: REMARK                         _______ _______ _______ _____ _____    ______ ____
DOCKED: USER                              x       y       z     vdW  Elec       q    Type
DOCKED: USER                           _______ _______ _______ _____ _____    ______ ____
DOCKED: ROOT
DOCKED: ATOM      1  C   UNL     1      36.911  11.815 122.270 -0.61 -0.00    +0.000 C 
DOCKED: ENDROOT
DOCKED: BRANCH   1   2
DOCKED: ATOM      2  C   UNL     1      35.908  10.661 122.346 -0.66 -0.00    +0.000 C 
DOCKED: BRANCH   2   4
DOCKED: ATOM      3  N   UNL     1      36.750   8.538 123.459 -0.64 -0.00    +0.000 N 
DOCKED: ATOM      4  C   UNL     1      36.619   9.342 122.284 -0.72 -0.00    +0.000 C 
DOCKED: ATOM      5  O   UNL     1      37.066   8.924 121.182 -2.70 -0.00    +0.000 OA
DOCKED: ATOM      6  H   UNL     1      36.378   8.856 124.312 -0.30 -0.00    +0.000 HD
DOCKED: BRANCH   3   7
DOCKED: ATOM      7  O   UNL     1      37.384   7.341 123.407 -1.99 -0.00    +0.000 OA
DOCKED: ATOM      8  H   UNL     1      37.805   7.237 122.539 -0.31 -0.00    +0.000 HD
DOCKED: ENDBRANCH   3   7
DOCKED: ENDBRANCH   2   4
DOCKED: ENDBRANCH   1   2
DOCKED: BRANCH   1   9
DOCKED: ATOM      9  C   UNL     1      36.981  12.571 123.601 -0.62 -0.00    +0.000 C 
DOCKED: BRANCH   9  10
DOCKED: ATOM     10  C   UNL     1      36.582  14.010 123.412 -0.48 -0.00    +0.000 A 
DOCKED: ATOM     11  C   UNL     1      37.491  14.932 122.867 -0.37 -0.00    +0.000 A 
DOCKED: ATOM     12  C   UNL     1      37.131  16.275 122.721 -0.25 -0.00    +0.000 A 
DOCKED: ATOM     13  C   UNL     1      35.866  16.709 123.128 -0.30 -0.00    +0.000 A 
DOCKED: ATOM     14  C   UNL     1      34.961  15.799 123.683 -0.46 -0.00    +0.000 A 
DOCKED: ATOM     15  C   UNL     1      35.317  14.456 123.831 -0.49 -0.00    +0.000 A 
DOCKED: ATOM     16  CM  UNL     1      36.225  15.363 123.274 +0.00 -0.00    +0.000 AC
DOCKED: ENDBRANCH   9  10
DOCKED: ENDBRANCH   1   9
DOCKED: TORSDOF 5DOCKED: TER
DOCKED: ENDMDL
________________________________________________________________________________


	BEGINNING GENETIC ALGORITHM DOCKING 77 of 100
Run: 77 Seed: 1248373518 2057723797 [ Run 77 of 100 GA/GALS ]
Beginning LAMARCKIAN GENETIC ALGORITHM (LGA), with a maximum of 2500000 energy evaluations.

Final-Value: -11.901


	FINAL GENETIC ALGORITHM DOCKED STATE
	_______________________________________________


Detailed state:  trans 37.402 12.337 122.207 quatxyzw -0.513282 0.746557 0.355859 -0.229258 center 0.725 -0.143 0.203 ntor 5 -164.9616 158.9189 67.9240 37.6628 65.9868
State:	 37.402  12.337 122.207  -0.527  0.767  0.366 -153.493   -164.96  158.92   67.92   37.66   65.99

DOCKED: MODEL       77
DOCKED: USER    Run = 77
DOCKED: USER    DPF = ligand_dock.biased.dpf
DOCKED: USER  
DOCKED: USER    Estimated Free Energy of Binding    =   -9.54 kcal/mol  [=(1)+(2)+(3)-(4)]
DOCKED: USER    Estimated Inhibition Constant, Ki   =  100.89 nM (nanomolar)  [Temperature = 298.15 K]
DOCKED: USER    
DOCKED: USER    (1) Final Intermolecular Energy     =  -11.04 kcal/mol
DOCKED: USER        vdW + Hbond + desolv Energy     =  -11.04 kcal/mol
DOCKED: USER        Electrostatic Energy            =   +0.00 kcal/mol
DOCKED: USER    (2) Final Total Internal Energy     =   -0.87 kcal/mol
DOCKED: USER    (3) Torsional Free Energy           =   +1.49 kcal/mol
DOCKED: USER    (4) Unbound System's Energy  [=(2)] =   -0.87 kcal/mol
DOCKED: USER    
DOCKED: USER    
DOCKED: USER    NEWDPF move ligand.dum.pdbqt
DOCKED: USER    NEWDPF about 0.725000 -0.143000 0.203000
DOCKED: USER    NEWDPF tran0 37.401649 12.336572 122.207416
DOCKED: USER    NEWDPF quaternion0 -0.513282 0.746557 0.355859 -0.229258
DOCKED: USER    NEWDPF axisangle0 -0.527327 0.766985 0.365597 -153.493163
DOCKED: USER    NEWDPF quat0 -0.527327 0.766985 0.365597 -153.493163
DOCKED: USER    NEWDPF dihe0 -164.96 158.92 67.92 37.66 65.99 
DOCKED: USER  keepresnum = 1 
DOCKED: USER  
DOCKED: REMARK  Name = 
DOCKED: REMARK  5 active torsions:
DOCKED: REMARK  status: ('A' for Active; 'I' for Inactive)
DOCKED: REMARK    1  A    between atoms: O_1  and  N_2
DOCKED: REMARK    2  A    between atoms: C_3  and  C_4
DOCKED: REMARK    3  A    between atoms: C_4  and  C_5
DOCKED: REMARK    4  A    between atoms: C_5  and  C_6
DOCKED: REMARK    5  A    between atoms: C_6  and  C_7
DOCKED: REMARK                            x       y       z     vdW  Elec       q    Type
DOCKED: REMARK                         _______ _______ _______ _____ _____    ______ ____
DOCKED: USER                              x       y       z     vdW  Elec       q    Type
DOCKED: USER                           _______ _______ _______ _____ _____    ______ ____
DOCKED: ROOT
DOCKED: ATOM      1  C   UNL     1      37.133  11.858 122.522 -0.58 -0.00    +0.000 C 
DOCKED: ENDROOT
DOCKED: BRANCH   1   2
DOCKED: ATOM      2  C   UNL     1      36.124  10.817 122.029 -0.58 -0.00    +0.000 C 
DOCKED: BRANCH   2   4
DOCKED: ATOM      3  N   UNL     1      36.813   8.779 123.380 -0.62 -0.00    +0.000 N 
DOCKED: ATOM      4  C   UNL     1      36.706   9.439 122.116 -0.70 -0.00    +0.000 C 
DOCKED: ATOM      5  O   UNL     1      37.065   8.844 121.064 -2.70 -0.00    +0.000 OA
DOCKED: ATOM      6  H   UNL     1      36.509   9.237 124.196 -0.41 -0.00    +0.000 HD
DOCKED: BRANCH   3   7
DOCKED: ATOM      7  O   UNL     1      37.331   7.530 123.464 -2.11 -0.00    +0.000 OA
DOCKED: ATOM      8  H   UNL     1      37.794   7.317 122.638 -0.34 -0.00    +0.000 HD
DOCKED: ENDBRANCH   3   7
DOCKED: ENDBRANCH   2   4
DOCKED: ENDBRANCH   1   2
DOCKED: BRANCH   1   9
DOCKED: ATOM      9  C   UNL     1      36.664  12.502 123.831 -0.64 -0.00    +0.000 C 
DOCKED: BRANCH   9  10
DOCKED: ATOM     10  C   UNL     1      36.359  13.961 123.621 -0.48 -0.00    +0.000 A 
DOCKED: ATOM     11  C   UNL     1      35.110  14.485 123.994 -0.42 -0.00    +0.000 A 
DOCKED: ATOM     12  C   UNL     1      34.816  15.834 123.770 -0.48 -0.00    +0.000 A 
DOCKED: ATOM     13  C   UNL     1      35.762  16.665 123.163 -0.31 -0.00    +0.000 A 
DOCKED: ATOM     14  C   UNL     1      37.002  16.148 122.779 -0.27 -0.00    +0.000 A 
DOCKED: ATOM     15  C   UNL     1      37.300  14.800 123.001 -0.39 -0.00    +0.000 A 
DOCKED: ATOM     16  CM  UNL     1      36.058  15.315 123.388 +0.00 -0.00    +0.000 AC
DOCKED: ENDBRANCH   9  10
DOCKED: ENDBRANCH   1   9
DOCKED: TORSDOF 5DOCKED: TER
DOCKED: ENDMDL
________________________________________________________________________________


	BEGINNING GENETIC ALGORITHM DOCKING 78 of 100
Run: 78 Seed: 1436588602 1811030745 [ Run 78 of 100 GA/GALS ]
Beginning LAMARCKIAN GENETIC ALGORITHM (LGA), with a maximum of 2500000 energy evaluations.

Final-Value: -11.313


	FINAL GENETIC ALGORITHM DOCKED STATE
	_______________________________________________


Detailed state:  trans 36.456 12.052 121.610 quatxyzw 0.569049 -0.768411 -0.292731 -0.006013 center 0.725 -0.143 0.203 ntor 5 178.4365 -160.7894 50.8260 -138.5773 2.0970
State:	 36.456  12.052 121.610   0.569 -0.768 -0.293 -179.311    178.44 -160.79   50.83 -138.58    2.10

DOCKED: MODEL       78
DOCKED: USER    Run = 78
DOCKED: USER    DPF = ligand_dock.biased.dpf
DOCKED: USER  
DOCKED: USER    Estimated Free Energy of Binding    =   -8.96 kcal/mol  [=(1)+(2)+(3)-(4)]
DOCKED: USER    Estimated Inhibition Constant, Ki   =  271.54 nM (nanomolar)  [Temperature = 298.15 K]
DOCKED: USER    
DOCKED: USER    (1) Final Intermolecular Energy     =  -10.45 kcal/mol
DOCKED: USER        vdW + Hbond + desolv Energy     =  -10.45 kcal/mol
DOCKED: USER        Electrostatic Energy            =   +0.00 kcal/mol
DOCKED: USER    (2) Final Total Internal Energy     =   -0.86 kcal/mol
DOCKED: USER    (3) Torsional Free Energy           =   +1.49 kcal/mol
DOCKED: USER    (4) Unbound System's Energy  [=(2)] =   -0.86 kcal/mol
DOCKED: USER    
DOCKED: USER    
DOCKED: USER    NEWDPF move ligand.dum.pdbqt
DOCKED: USER    NEWDPF about 0.725000 -0.143000 0.203000
DOCKED: USER    NEWDPF tran0 36.455518 12.051552 121.610486
DOCKED: USER    NEWDPF quaternion0 0.569049 -0.768411 -0.292731 -0.006013
DOCKED: USER    NEWDPF axisangle0 0.569059 -0.768425 -0.292736 -179.310927
DOCKED: USER    NEWDPF quat0 0.569059 -0.768425 -0.292736 -179.310927
DOCKED: USER    NEWDPF dihe0 178.44 -160.79 50.83 -138.58 2.10 
DOCKED: USER  keepresnum = 1 
DOCKED: USER  
DOCKED: REMARK  Name = 
DOCKED: REMARK  5 active torsions:
DOCKED: REMARK  status: ('A' for Active; 'I' for Inactive)
DOCKED: REMARK    1  A    between atoms: O_1  and  N_2
DOCKED: REMARK    2  A    between atoms: C_3  and  C_4
DOCKED: REMARK    3  A    between atoms: C_4  and  C_5
DOCKED: REMARK    4  A    between atoms: C_5  and  C_6
DOCKED: REMARK    5  A    between atoms: C_6  and  C_7
DOCKED: REMARK                            x       y       z     vdW  Elec       q    Type
DOCKED: REMARK                         _______ _______ _______ _____ _____    ______ ____
DOCKED: USER                              x       y       z     vdW  Elec       q    Type
DOCKED: USER                           _______ _______ _______ _____ _____    ______ ____
DOCKED: ROOT
DOCKED: ATOM      1  C   UNL     1      36.383  11.700 122.132 -0.61 -0.00    +0.000 C 
DOCKED: ENDROOT
DOCKED: BRANCH   1   2
DOCKED: ATOM      2  C   UNL     1      35.574  10.416 122.332 -0.64 -0.00    +0.000 C 
DOCKED: BRANCH   2   4
DOCKED: ATOM      3  N   UNL     1      36.625   8.395 123.458 -0.66 -0.00    +0.000 N 
DOCKED: ATOM      4  C   UNL     1      36.475   9.218 122.299 -0.72 -0.00    +0.000 C 
DOCKED: ATOM      5  O   UNL     1      37.070   8.913 121.230 -2.66 -0.00    +0.000 OA
DOCKED: ATOM      6  H   UNL     1      36.139   8.622 124.283 -0.21 -0.00    +0.000 HD
DOCKED: BRANCH   3   7
DOCKED: ATOM      7  O   UNL     1      37.431   7.307 123.432 -1.93 -0.00    +0.000 OA
DOCKED: ATOM      8  H   UNL     1      37.814   7.211 122.545 -0.33 -0.00    +0.000 HD
DOCKED: ENDBRANCH   3   7
DOCKED: ENDBRANCH   2   4
DOCKED: ENDBRANCH   1   2
DOCKED: BRANCH   1   9
DOCKED: ATOM      9  C   UNL     1      36.059  12.729 123.220 -0.61 -0.00    +0.000 C 
DOCKED: BRANCH   9  10
DOCKED: ATOM     10  C   UNL     1      36.820  14.006 122.982 -0.46 -0.00    +0.000 A 
DOCKED: ATOM     11  C   UNL     1      38.205  13.973 122.746 -0.43 -0.00    +0.000 A 
DOCKED: ATOM     12  C   UNL     1      38.916  15.162 122.557 -0.34 -0.00    +0.000 A 
DOCKED: ATOM     13  C   UNL     1      38.253  16.392 122.612 -0.22 -0.00    +0.000 A 
DOCKED: ATOM     14  C   UNL     1      36.878  16.433 122.859 -0.26 -0.00    +0.000 A 
DOCKED: ATOM     15  C   UNL     1      36.163  15.247 123.050 -0.37 -0.00    +0.000 A 
DOCKED: ATOM     16  CM  UNL     1      37.539  15.202 122.801 +0.00 -0.00    +0.000 AC
DOCKED: ENDBRANCH   9  10
DOCKED: ENDBRANCH   1   9
DOCKED: TORSDOF 5DOCKED: TER
DOCKED: ENDMDL
________________________________________________________________________________


	BEGINNING GENETIC ALGORITHM DOCKING 79 of 100
Run: 79 Seed: 2132223246 2058114426 [ Run 79 of 100 GA/GALS ]
Beginning LAMARCKIAN GENETIC ALGORITHM (LGA), with a maximum of 2500000 energy evaluations.

Final-Value: -11.847


	FINAL GENETIC ALGORITHM DOCKED STATE
	_______________________________________________


Detailed state:  trans 37.034 12.544 121.255 quatxyzw 0.375250 -0.800757 -0.457496 -0.093129 center 0.725 -0.143 0.203 ntor 5 168.9746 -158.7277 72.3531 175.1398 89.3378
State:	 37.034  12.544 121.255   0.377 -0.804 -0.459 -169.313    168.97 -158.73   72.35  175.14   89.34

DOCKED: MODEL       79
DOCKED: USER    Run = 79
DOCKED: USER    DPF = ligand_dock.biased.dpf
DOCKED: USER  
DOCKED: USER    Estimated Free Energy of Binding    =   -9.44 kcal/mol  [=(1)+(2)+(3)-(4)]
DOCKED: USER    Estimated Inhibition Constant, Ki   =  119.66 nM (nanomolar)  [Temperature = 298.15 K]
DOCKED: USER    
DOCKED: USER    (1) Final Intermolecular Energy     =  -10.93 kcal/mol
DOCKED: USER        vdW + Hbond + desolv Energy     =  -10.93 kcal/mol
DOCKED: USER        Electrostatic Energy            =   +0.00 kcal/mol
DOCKED: USER    (2) Final Total Internal Energy     =   -0.91 kcal/mol
DOCKED: USER    (3) Torsional Free Energy           =   +1.49 kcal/mol
DOCKED: USER    (4) Unbound System's Energy  [=(2)] =   -0.91 kcal/mol
DOCKED: USER    
DOCKED: USER    
DOCKED: USER    NEWDPF move ligand.dum.pdbqt
DOCKED: USER    NEWDPF about 0.725000 -0.143000 0.203000
DOCKED: USER    NEWDPF tran0 37.033522 12.544476 121.255005
DOCKED: USER    NEWDPF quaternion0 0.375250 -0.800757 -0.457496 -0.093129
DOCKED: USER    NEWDPF axisangle0 0.376888 -0.804253 -0.459493 -169.312744
DOCKED: USER    NEWDPF quat0 0.376888 -0.804253 -0.459493 -169.312744
DOCKED: USER    NEWDPF dihe0 168.97 -158.73 72.35 175.14 89.34 
DOCKED: USER  keepresnum = 1 
DOCKED: USER  
DOCKED: REMARK  Name = 
DOCKED: REMARK  5 active torsions:
DOCKED: REMARK  status: ('A' for Active; 'I' for Inactive)
DOCKED: REMARK    1  A    between atoms: O_1  and  N_2
DOCKED: REMARK    2  A    between atoms: C_3  and  C_4
DOCKED: REMARK    3  A    between atoms: C_4  and  C_5
DOCKED: REMARK    4  A    between atoms: C_5  and  C_6
DOCKED: REMARK    5  A    between atoms: C_6  and  C_7
DOCKED: REMARK                            x       y       z     vdW  Elec       q    Type
DOCKED: REMARK                         _______ _______ _______ _____ _____    ______ ____
DOCKED: USER                              x       y       z     vdW  Elec       q    Type
DOCKED: USER                           _______ _______ _______ _____ _____    ______ ____
DOCKED: ROOT
DOCKED: ATOM      1  C   UNL     1      37.072  12.129 121.732 -0.56 -0.00    +0.000 C 
DOCKED: ENDROOT
DOCKED: BRANCH   1   2
DOCKED: ATOM      2  C   UNL     1      36.063  11.070 122.180 -0.62 -0.00    +0.000 C 
DOCKED: BRANCH   2   4
DOCKED: ATOM      3  N   UNL     1      36.807   8.944 123.356 -0.60 -0.00    +0.000 N 
DOCKED: ATOM      4  C   UNL     1      36.685   9.706 122.152 -0.69 -0.00    +0.000 C 
DOCKED: ATOM      5  O   UNL     1      37.065   9.215 121.055 -2.74 -0.00    +0.000 OA
DOCKED: ATOM      6  H   UNL     1      36.487   9.321 124.206 -0.41 -0.00    +0.000 HD
DOCKED: BRANCH   3   7
DOCKED: ATOM      7  O   UNL     1      37.361   7.708 123.336 -2.20 -0.00    +0.000 OA
DOCKED: ATOM      8  H   UNL     1      37.463   7.416 122.416 -0.15 -0.00    +0.000 HD
DOCKED: ENDBRANCH   3   7
DOCKED: ENDBRANCH   2   4
DOCKED: ENDBRANCH   1   2
DOCKED: BRANCH   1   9
DOCKED: ATOM      9  C   UNL     1      37.540  12.980 122.917 -0.55 -0.00    +0.000 C 
DOCKED: BRANCH   9  10
DOCKED: ATOM     10  C   UNL     1      36.655  14.187 123.082 -0.45 -0.00    +0.000 A 
DOCKED: ATOM     11  C   UNL     1      37.030  15.422 122.528 -0.31 -0.00    +0.000 A 
DOCKED: ATOM     12  C   UNL     1      36.223  16.550 122.710 -0.27 -0.00    +0.000 A 
DOCKED: ATOM     13  C   UNL     1      35.043  16.454 123.454 -0.40 -0.00    +0.000 A 
DOCKED: ATOM     14  C   UNL     1      34.670  15.231 124.018 -0.53 -0.00    +0.000 A 
DOCKED: ATOM     15  C   UNL     1      35.474  14.101 123.840 -0.46 -0.00    +0.000 A 
DOCKED: ATOM     16  CM  UNL     1      35.849  15.324 123.272 +0.00 -0.00    +0.000 AC
DOCKED: ENDBRANCH   9  10
DOCKED: ENDBRANCH   1   9
DOCKED: TORSDOF 5DOCKED: TER
DOCKED: ENDMDL
________________________________________________________________________________


	BEGINNING GENETIC ALGORITHM DOCKING 80 of 100
Run: 80 Seed: 1691472279 1052746389 [ Run 80 of 100 GA/GALS ]
Beginning LAMARCKIAN GENETIC ALGORITHM (LGA), with a maximum of 2500000 energy evaluations.

Final-Value: -11.814


	FINAL GENETIC ALGORITHM DOCKED STATE
	_______________________________________________


Detailed state:  trans 37.048 12.533 121.387 quatxyzw -0.357760 0.799375 0.476080 0.079719 center 0.725 -0.143 0.203 ntor 5 -179.0104 -161.2904 71.3120 164.9656 88.4260
State:	 37.048  12.533 121.387  -0.359  0.802  0.478 170.855   -179.01 -161.29   71.31  164.97   88.43

DOCKED: MODEL       80
DOCKED: USER    Run = 80
DOCKED: USER    DPF = ligand_dock.biased.dpf
DOCKED: USER  
DOCKED: USER    Estimated Free Energy of Binding    =   -9.40 kcal/mol  [=(1)+(2)+(3)-(4)]
DOCKED: USER    Estimated Inhibition Constant, Ki   =  128.35 nM (nanomolar)  [Temperature = 298.15 K]
DOCKED: USER    
DOCKED: USER    (1) Final Intermolecular Energy     =  -10.89 kcal/mol
DOCKED: USER        vdW + Hbond + desolv Energy     =  -10.89 kcal/mol
DOCKED: USER        Electrostatic Energy            =   +0.00 kcal/mol
DOCKED: USER    (2) Final Total Internal Energy     =   -0.92 kcal/mol
DOCKED: USER    (3) Torsional Free Energy           =   +1.49 kcal/mol
DOCKED: USER    (4) Unbound System's Energy  [=(2)] =   -0.92 kcal/mol
DOCKED: USER    
DOCKED: USER    
DOCKED: USER    NEWDPF move ligand.dum.pdbqt
DOCKED: USER    NEWDPF about 0.725000 -0.143000 0.203000
DOCKED: USER    NEWDPF tran0 37.047804 12.532842 121.387494
DOCKED: USER    NEWDPF quaternion0 -0.357760 0.799375 0.476080 0.079719
DOCKED: USER    NEWDPF axisangle0 -0.358902 0.801927 0.477600 170.855137
DOCKED: USER    NEWDPF quat0 -0.358902 0.801927 0.477600 170.855137
DOCKED: USER    NEWDPF dihe0 -179.01 -161.29 71.31 164.97 88.43 
DOCKED: USER  keepresnum = 1 
DOCKED: USER  
DOCKED: REMARK  Name = 
DOCKED: REMARK  5 active torsions:
DOCKED: REMARK  status: ('A' for Active; 'I' for Inactive)
DOCKED: REMARK    1  A    between atoms: O_1  and  N_2
DOCKED: REMARK    2  A    between atoms: C_3  and  C_4
DOCKED: REMARK    3  A    between atoms: C_4  and  C_5
DOCKED: REMARK    4  A    between atoms: C_5  and  C_6
DOCKED: REMARK    5  A    between atoms: C_6  and  C_7
DOCKED: REMARK                            x       y       z     vdW  Elec       q    Type
DOCKED: REMARK                         _______ _______ _______ _____ _____    ______ ____
DOCKED: USER                              x       y       z     vdW  Elec       q    Type
DOCKED: USER                           _______ _______ _______ _____ _____    ______ ____
DOCKED: ROOT
DOCKED: ATOM      1  C   UNL     1      37.073  12.099 121.848 -0.57 -0.00    +0.000 C 
DOCKED: ENDROOT
DOCKED: BRANCH   1   2
DOCKED: ATOM      2  C   UNL     1      36.022  11.067 122.265 -0.64 -0.00    +0.000 C 
DOCKED: BRANCH   2   4
DOCKED: ATOM      3  N   UNL     1      36.737   8.872 123.326 -0.62 -0.00    +0.000 N 
DOCKED: ATOM      4  C   UNL     1      36.577   9.679 122.157 -0.68 -0.00    +0.000 C 
DOCKED: ATOM      5  O   UNL     1      36.865   9.208 121.023 -2.67 -0.00    +0.000 OA
DOCKED: ATOM      6  H   UNL     1      36.487   9.233 124.206 -0.41 -0.00    +0.000 HD
DOCKED: BRANCH   3   7
DOCKED: ATOM      7  O   UNL     1      37.231   7.613 123.233 -2.20 -0.00    +0.000 OA
DOCKED: ATOM      8  H   UNL     1      37.440   7.417 122.306 -0.14 -0.00    +0.000 HD
DOCKED: ENDBRANCH   3   7
DOCKED: ENDBRANCH   2   4
DOCKED: ENDBRANCH   1   2
DOCKED: BRANCH   1   9
DOCKED: ATOM      9  C   UNL     1      37.586  12.883 123.060 -0.53 -0.00    +0.000 C 
DOCKED: BRANCH   9  10
DOCKED: ATOM     10  C   UNL     1      36.769  14.131 123.266 -0.46 -0.00    +0.000 A 
DOCKED: ATOM     11  C   UNL     1      37.303  15.389 122.944 -0.33 -0.00    +0.000 A 
DOCKED: ATOM     12  C   UNL     1      36.555  16.550 123.166 -0.28 -0.00    +0.000 A 
DOCKED: ATOM     13  C   UNL     1      35.274  16.463 123.719 -0.39 -0.00    +0.000 A 
DOCKED: ATOM     14  C   UNL     1      34.741  15.215 124.052 -0.53 -0.00    +0.000 A 
DOCKED: ATOM     15  C   UNL     1      35.485  14.052 123.833 -0.46 -0.00    +0.000 A 
DOCKED: ATOM     16  CM  UNL     1      36.021  15.300 123.497 +0.00 -0.00    +0.000 AC
DOCKED: ENDBRANCH   9  10
DOCKED: ENDBRANCH   1   9
DOCKED: TORSDOF 5DOCKED: TER
DOCKED: ENDMDL
________________________________________________________________________________


	BEGINNING GENETIC ALGORITHM DOCKING 81 of 100
Run: 81 Seed: 1458335929 1936661677 [ Run 81 of 100 GA/GALS ]
Beginning LAMARCKIAN GENETIC ALGORITHM (LGA), with a maximum of 2500000 energy evaluations.

Final-Value: -11.377


	FINAL GENETIC ALGORITHM DOCKED STATE
	_______________________________________________


Detailed state:  trans 38.000 11.628 123.057 quatxyzw -0.431426 0.664079 -0.556635 -0.251055 center 0.725 -0.143 0.203 ntor 5 -179.7500 -179.9941 -61.9816 75.4252 -90.1759
State:	 38.000  11.628 123.057  -0.446  0.686 -0.575 -150.920   -179.75 -179.99  -61.98   75.43  -90.18

DOCKED: MODEL       81
DOCKED: USER    Run = 81
DOCKED: USER    DPF = ligand_dock.biased.dpf
DOCKED: USER  
DOCKED: USER    Estimated Free Energy of Binding    =   -9.00 kcal/mol  [=(1)+(2)+(3)-(4)]
DOCKED: USER    Estimated Inhibition Constant, Ki   =  251.89 nM (nanomolar)  [Temperature = 298.15 K]
DOCKED: USER    
DOCKED: USER    (1) Final Intermolecular Energy     =  -10.49 kcal/mol
DOCKED: USER        vdW + Hbond + desolv Energy     =  -10.49 kcal/mol
DOCKED: USER        Electrostatic Energy            =   +0.00 kcal/mol
DOCKED: USER    (2) Final Total Internal Energy     =   -0.88 kcal/mol
DOCKED: USER    (3) Torsional Free Energy           =   +1.49 kcal/mol
DOCKED: USER    (4) Unbound System's Energy  [=(2)] =   -0.88 kcal/mol
DOCKED: USER    
DOCKED: USER    
DOCKED: USER    NEWDPF move ligand.dum.pdbqt
DOCKED: USER    NEWDPF about 0.725000 -0.143000 0.203000
DOCKED: USER    NEWDPF tran0 38.000154 11.628417 123.057146
DOCKED: USER    NEWDPF quaternion0 -0.431426 0.664079 -0.556635 -0.251055
DOCKED: USER    NEWDPF axisangle0 -0.445701 0.686051 -0.575052 -150.920142
DOCKED: USER    NEWDPF quat0 -0.445701 0.686051 -0.575052 -150.920142
DOCKED: USER    NEWDPF dihe0 -179.75 -179.99 -61.98 75.43 -90.18 
DOCKED: USER  keepresnum = 1 
DOCKED: USER  
DOCKED: REMARK  Name = 
DOCKED: REMARK  5 active torsions:
DOCKED: REMARK  status: ('A' for Active; 'I' for Inactive)
DOCKED: REMARK    1  A    between atoms: O_1  and  N_2
DOCKED: REMARK    2  A    between atoms: C_3  and  C_4
DOCKED: REMARK    3  A    between atoms: C_4  and  C_5
DOCKED: REMARK    4  A    between atoms: C_5  and  C_6
DOCKED: REMARK    5  A    between atoms: C_6  and  C_7
DOCKED: REMARK                            x       y       z     vdW  Elec       q    Type
DOCKED: REMARK                         _______ _______ _______ _____ _____    ______ ____
DOCKED: USER                              x       y       z     vdW  Elec       q    Type
DOCKED: USER                           _______ _______ _______ _____ _____    ______ ____
DOCKED: ROOT
DOCKED: ATOM      1  C   UNL     1      37.389  11.784 122.997 -0.47 -0.00    +0.000 C 
DOCKED: ENDROOT
DOCKED: BRANCH   1   2
DOCKED: ATOM      2  C   UNL     1      36.175  10.879 122.773 -0.69 -0.00    +0.000 C 
DOCKED: BRANCH   2   4
DOCKED: ATOM      3  N   UNL     1      36.694   8.474 123.408 -0.66 -0.00    +0.000 N 
DOCKED: ATOM      4  C   UNL     1      36.614   9.493 122.408 -0.72 -0.00    +0.000 C 
DOCKED: ATOM      5  O   UNL     1      36.874   9.216 121.206 -2.69 -0.00    +0.000 OA
DOCKED: ATOM      6  H   UNL     1      36.466   8.688 124.341 -0.31 -0.00    +0.000 HD
DOCKED: BRANCH   3   7
DOCKED: ATOM      7  O   UNL     1      37.081   7.217 123.083 -2.03 -0.00    +0.000 OA
DOCKED: ATOM      8  H   UNL     1      37.273   7.175 122.132 -0.14 -0.00    +0.000 HD
DOCKED: ENDBRANCH   3   7
DOCKED: ENDBRANCH   2   4
DOCKED: ENDBRANCH   1   2
DOCKED: BRANCH   1   9
DOCKED: ATOM      9  C   UNL     1      37.406  12.940 121.992 -0.52 -0.00    +0.000 C 
DOCKED: BRANCH   9  10
DOCKED: ATOM     10  C   UNL     1      36.658  14.126 122.539 -0.38 -0.00    +0.000 A 
DOCKED: ATOM     11  C   UNL     1      36.818  15.395 121.958 -0.25 -0.00    +0.000 A 
DOCKED: ATOM     12  C   UNL     1      36.146  16.502 122.487 -0.26 -0.00    +0.000 A 
DOCKED: ATOM     13  C   UNL     1      35.320  16.352 123.604 -0.39 -0.00    +0.000 A 
DOCKED: ATOM     14  C   UNL     1      35.166  15.095 124.195 -0.50 -0.00    +0.000 A 
DOCKED: ATOM     15  C   UNL     1      35.836  13.986 123.670 -0.49 -0.00    +0.000 A 
DOCKED: ATOM     16  CM  UNL     1      35.991  15.242 123.076 +0.00 -0.00    +0.000 AC
DOCKED: ENDBRANCH   9  10
DOCKED: ENDBRANCH   1   9
DOCKED: TORSDOF 5DOCKED: TER
DOCKED: ENDMDL
________________________________________________________________________________


	BEGINNING GENETIC ALGORITHM DOCKING 82 of 100
Run: 82 Seed: 1291622211 636264512 [ Run 82 of 100 GA/GALS ]
Beginning LAMARCKIAN GENETIC ALGORITHM (LGA), with a maximum of 2500000 energy evaluations.

Final-Value: -10.760


	FINAL GENETIC ALGORITHM DOCKED STATE
	_______________________________________________


Detailed state:  trans 35.936 11.801 121.590 quatxyzw 0.468193 -0.634765 -0.332316 -0.517141 center 0.725 -0.143 0.203 ntor 5 -173.3492 -93.5293 9.5100 -19.7829 -63.5640
State:	 35.936  11.801 121.590   0.547 -0.742 -0.388 -117.719   -173.35  -93.53    9.51  -19.78  -63.56

DOCKED: MODEL       82
DOCKED: USER    Run = 82
DOCKED: USER    DPF = ligand_dock.biased.dpf
DOCKED: USER  
DOCKED: USER    Estimated Free Energy of Binding    =   -8.38 kcal/mol  [=(1)+(2)+(3)-(4)]
DOCKED: USER    Estimated Inhibition Constant, Ki   =  714.58 nM (nanomolar)  [Temperature = 298.15 K]
DOCKED: USER    
DOCKED: USER    (1) Final Intermolecular Energy     =   -9.88 kcal/mol
DOCKED: USER        vdW + Hbond + desolv Energy     =   -9.88 kcal/mol
DOCKED: USER        Electrostatic Energy            =   +0.00 kcal/mol
DOCKED: USER    (2) Final Total Internal Energy     =   -0.88 kcal/mol
DOCKED: USER    (3) Torsional Free Energy           =   +1.49 kcal/mol
DOCKED: USER    (4) Unbound System's Energy  [=(2)] =   -0.88 kcal/mol
DOCKED: USER    
DOCKED: USER    
DOCKED: USER    NEWDPF move ligand.dum.pdbqt
DOCKED: USER    NEWDPF about 0.725000 -0.143000 0.203000
DOCKED: USER    NEWDPF tran0 35.936452 11.800732 121.589549
DOCKED: USER    NEWDPF quaternion0 0.468193 -0.634765 -0.332316 -0.517141
DOCKED: USER    NEWDPF axisangle0 0.547018 -0.741634 -0.388265 -117.718706
DOCKED: USER    NEWDPF quat0 0.547018 -0.741634 -0.388265 -117.718706
DOCKED: USER    NEWDPF dihe0 -173.35 -93.53 9.51 -19.78 -63.56 
DOCKED: USER  keepresnum = 1 
DOCKED: USER  
DOCKED: REMARK  Name = 
DOCKED: REMARK  5 active torsions:
DOCKED: REMARK  status: ('A' for Active; 'I' for Inactive)
DOCKED: REMARK    1  A    between atoms: O_1  and  N_2
DOCKED: REMARK    2  A    between atoms: C_3  and  C_4
DOCKED: REMARK    3  A    between atoms: C_4  and  C_5
DOCKED: REMARK    4  A    between atoms: C_5  and  C_6
DOCKED: REMARK    5  A    between atoms: C_6  and  C_7
DOCKED: REMARK                            x       y       z     vdW  Elec       q    Type
DOCKED: REMARK                         _______ _______ _______ _____ _____    ______ ____
DOCKED: USER                              x       y       z     vdW  Elec       q    Type
DOCKED: USER                           _______ _______ _______ _____ _____    ______ ____
DOCKED: ROOT
DOCKED: ATOM      1  C   UNL     1      36.417  11.762 122.000 -0.59 -0.00    +0.000 C 
DOCKED: ENDROOT
DOCKED: BRANCH   1   2
DOCKED: ATOM      2  C   UNL     1      36.683  10.718 123.087 -0.69 -0.00    +0.000 C 
DOCKED: BRANCH   2   4
DOCKED: ATOM      3  N   UNL     1      36.972   8.205 123.323 -0.72 -0.00    +0.000 N 
DOCKED: ATOM      4  C   UNL     1      36.796   9.350 122.485 -0.70 -0.00    +0.000 C 
DOCKED: ATOM      5  O   UNL     1      36.694   9.206 121.237 -2.61 -0.00    +0.000 OA
DOCKED: ATOM      6  H   UNL     1      37.025   8.319 124.299 -0.41 -0.00    +0.000 HD
DOCKED: BRANCH   3   7
DOCKED: ATOM      7  O   UNL     1      37.065   6.965 122.785 -1.68 -0.00    +0.000 OA
DOCKED: ATOM      8  H   UNL     1      37.100   7.035 121.818 -0.14 -0.00    +0.000 HD
DOCKED: ENDBRANCH   3   7
DOCKED: ENDBRANCH   2   4
DOCKED: ENDBRANCH   1   2
DOCKED: BRANCH   1   9
DOCKED: ATOM      9  C   UNL     1      36.530  13.183 122.562 -0.51 -0.00    +0.000 C 
DOCKED: BRANCH   9  10
DOCKED: ATOM     10  C   UNL     1      37.663  13.924 121.901 -0.40 -0.00    +0.000 A 
DOCKED: ATOM     11  C   UNL     1      37.575  14.292 120.549 -0.31 -0.00    +0.000 A 
DOCKED: ATOM     12  C   UNL     1      38.641  14.951 119.928 -0.20 -0.00    +0.000 A 
DOCKED: ATOM     13  C   UNL     1      39.803  15.238 120.649 -0.20 -0.00    +0.000 A 
DOCKED: ATOM     14  C   UNL     1      39.902  14.864 121.993 -0.37 -0.00    +0.000 A 
DOCKED: ATOM     15  C   UNL     1      38.839  14.204 122.617 -0.35 -0.00    +0.000 A 
DOCKED: ATOM     16  CM  UNL     1      38.737  14.578 121.273 +0.00 -0.00    +0.000 AC
DOCKED: ENDBRANCH   9  10
DOCKED: ENDBRANCH   1   9
DOCKED: TORSDOF 5DOCKED: TER
DOCKED: ENDMDL
________________________________________________________________________________


	BEGINNING GENETIC ALGORITHM DOCKING 83 of 100
Run: 83 Seed: 1422996727 1728486375 [ Run 83 of 100 GA/GALS ]
Beginning LAMARCKIAN GENETIC ALGORITHM (LGA), with a maximum of 2500000 energy evaluations.

Final-Value: -11.688


	FINAL GENETIC ALGORITHM DOCKED STATE
	_______________________________________________


Detailed state:  trans 37.213 11.528 123.679 quatxyzw -0.365636 0.661062 -0.333449 -0.564020 center 0.725 -0.143 0.203 ntor 5 -178.1055 135.0351 -19.6859 -18.7454 87.2074
State:	 37.213  11.528 123.679  -0.443  0.801 -0.404 -111.331   -178.11  135.04  -19.69  -18.75   87.21

DOCKED: MODEL       83
DOCKED: USER    Run = 83
DOCKED: USER    DPF = ligand_dock.biased.dpf
DOCKED: USER  
DOCKED: USER    Estimated Free Energy of Binding    =   -9.22 kcal/mol  [=(1)+(2)+(3)-(4)]
DOCKED: USER    Estimated Inhibition Constant, Ki   =  173.24 nM (nanomolar)  [Temperature = 298.15 K]
DOCKED: USER    
DOCKED: USER    (1) Final Intermolecular Energy     =  -10.72 kcal/mol
DOCKED: USER        vdW + Hbond + desolv Energy     =  -10.72 kcal/mol
DOCKED: USER        Electrostatic Energy            =   +0.00 kcal/mol
DOCKED: USER    (2) Final Total Internal Energy     =   -0.97 kcal/mol
DOCKED: USER    (3) Torsional Free Energy           =   +1.49 kcal/mol
DOCKED: USER    (4) Unbound System's Energy  [=(2)] =   -0.97 kcal/mol
DOCKED: USER    
DOCKED: USER    
DOCKED: USER    NEWDPF move ligand.dum.pdbqt
DOCKED: USER    NEWDPF about 0.725000 -0.143000 0.203000
DOCKED: USER    NEWDPF tran0 37.212972 11.528456 123.679048
DOCKED: USER    NEWDPF quaternion0 -0.365636 0.661062 -0.333449 -0.564020
DOCKED: USER    NEWDPF axisangle0 -0.442787 0.800549 -0.403809 -111.331410
DOCKED: USER    NEWDPF quat0 -0.442787 0.800549 -0.403809 -111.331410
DOCKED: USER    NEWDPF dihe0 -178.11 135.04 -19.69 -18.75 87.21 
DOCKED: USER  keepresnum = 1 
DOCKED: USER  
DOCKED: REMARK  Name = 
DOCKED: REMARK  5 active torsions:
DOCKED: REMARK  status: ('A' for Active; 'I' for Inactive)
DOCKED: REMARK    1  A    between atoms: O_1  and  N_2
DOCKED: REMARK    2  A    between atoms: C_3  and  C_4
DOCKED: REMARK    3  A    between atoms: C_4  and  C_5
DOCKED: REMARK    4  A    between atoms: C_5  and  C_6
DOCKED: REMARK    5  A    between atoms: C_6  and  C_7
DOCKED: REMARK                            x       y       z     vdW  Elec       q    Type
DOCKED: REMARK                         _______ _______ _______ _____ _____    ______ ____
DOCKED: USER                              x       y       z     vdW  Elec       q    Type
DOCKED: USER                           _______ _______ _______ _____ _____    ______ ____
DOCKED: ROOT
DOCKED: ATOM      1  C   UNL     1      36.614  11.524 123.473 -0.70 -0.00    +0.000 C 
DOCKED: ENDROOT
DOCKED: BRANCH   1   2
DOCKED: ATOM      2  C   UNL     1      35.971  10.666 122.381 -0.67 -0.00    +0.000 C 
DOCKED: BRANCH   2   4
DOCKED: ATOM      3  N   UNL     1      36.832   8.532 123.458 -0.65 -0.00    +0.000 N 
DOCKED: ATOM      4  C   UNL     1      36.654   9.335 122.288 -0.72 -0.00    +0.000 C 
DOCKED: ATOM      5  O   UNL     1      37.036   8.905 121.166 -2.69 -0.00    +0.000 OA
DOCKED: ATOM      6  H   UNL     1      36.509   8.860 124.328 -0.34 -0.00    +0.000 HD
DOCKED: BRANCH   3   7
DOCKED: ATOM      7  O   UNL     1      37.441   7.324 123.380 -1.94 -0.00    +0.000 OA
DOCKED: ATOM      8  H   UNL     1      37.723   7.165 122.465 -0.29 -0.00    +0.000 HD
DOCKED: ENDBRANCH   3   7
DOCKED: ENDBRANCH   2   4
DOCKED: ENDBRANCH   1   2
DOCKED: BRANCH   1   9
DOCKED: ATOM      9  C   UNL     1      36.289  13.008 123.270 -0.62 -0.00    +0.000 C 
DOCKED: BRANCH   9  10
DOCKED: ATOM     10  C   UNL     1      37.367  13.678 122.461 -0.45 -0.00    +0.000 A 
DOCKED: ATOM     11  C   UNL     1      37.520  13.379 121.097 -0.41 -0.00    +0.000 A 
DOCKED: ATOM     12  C   UNL     1      38.542  13.978 120.354 -0.26 -0.00    +0.000 A 
DOCKED: ATOM     13  C   UNL     1      39.423  14.872 120.968 -0.26 -0.00    +0.000 A 
DOCKED: ATOM     14  C   UNL     1      39.285  15.165 122.328 -0.35 -0.00    +0.000 A 
DOCKED: ATOM     15  C   UNL     1      38.265  14.568 123.075 -0.36 -0.00    +0.000 A 
DOCKED: ATOM     16  CM  UNL     1      38.401  14.273 121.714 +0.00 -0.00    +0.000 AC
DOCKED: ENDBRANCH   9  10
DOCKED: ENDBRANCH   1   9
DOCKED: TORSDOF 5DOCKED: TER
DOCKED: ENDMDL
________________________________________________________________________________


	BEGINNING GENETIC ALGORITHM DOCKING 84 of 100
Run: 84 Seed: 1091732294 1772110146 [ Run 84 of 100 GA/GALS ]
Beginning LAMARCKIAN GENETIC ALGORITHM (LGA), with a maximum of 2500000 energy evaluations.

Final-Value: -11.868


	FINAL GENETIC ALGORITHM DOCKED STATE
	_______________________________________________


Detailed state:  trans 35.398 11.174 123.153 quatxyzw 0.464160 0.124080 -0.539544 -0.691413 center 0.725 -0.143 0.203 ntor 5 -168.3823 26.8183 -52.7463 178.4261 -80.8448
State:	 35.398  11.174 123.153   0.642  0.172 -0.747 -92.516   -168.38   26.82  -52.75  178.43  -80.84

DOCKED: MODEL       84
DOCKED: USER    Run = 84
DOCKED: USER    DPF = ligand_dock.biased.dpf
DOCKED: USER  
DOCKED: USER    Estimated Free Energy of Binding    =   -9.49 kcal/mol  [=(1)+(2)+(3)-(4)]
DOCKED: USER    Estimated Inhibition Constant, Ki   =  110.91 nM (nanomolar)  [Temperature = 298.15 K]
DOCKED: USER    
DOCKED: USER    (1) Final Intermolecular Energy     =  -10.98 kcal/mol
DOCKED: USER        vdW + Hbond + desolv Energy     =  -10.98 kcal/mol
DOCKED: USER        Electrostatic Energy            =   +0.00 kcal/mol
DOCKED: USER    (2) Final Total Internal Energy     =   -0.89 kcal/mol
DOCKED: USER    (3) Torsional Free Energy           =   +1.49 kcal/mol
DOCKED: USER    (4) Unbound System's Energy  [=(2)] =   -0.89 kcal/mol
DOCKED: USER    
DOCKED: USER    
DOCKED: USER    NEWDPF move ligand.dum.pdbqt
DOCKED: USER    NEWDPF about 0.725000 -0.143000 0.203000
DOCKED: USER    NEWDPF tran0 35.397729 11.173538 123.152516
DOCKED: USER    NEWDPF quaternion0 0.464160 0.124080 -0.539544 -0.691413
DOCKED: USER    NEWDPF axisangle0 0.642472 0.171747 -0.746815 -92.515915
DOCKED: USER    NEWDPF quat0 0.642472 0.171747 -0.746815 -92.515915
DOCKED: USER    NEWDPF dihe0 -168.38 26.82 -52.75 178.43 -80.84 
DOCKED: USER  keepresnum = 1 
DOCKED: USER  
DOCKED: REMARK  Name = 
DOCKED: REMARK  5 active torsions:
DOCKED: REMARK  status: ('A' for Active; 'I' for Inactive)
DOCKED: REMARK    1  A    between atoms: O_1  and  N_2
DOCKED: REMARK    2  A    between atoms: C_3  and  C_4
DOCKED: REMARK    3  A    between atoms: C_4  and  C_5
DOCKED: REMARK    4  A    between atoms: C_5  and  C_6
DOCKED: REMARK    5  A    between atoms: C_6  and  C_7
DOCKED: REMARK                            x       y       z     vdW  Elec       q    Type
DOCKED: REMARK                         _______ _______ _______ _____ _____    ______ ____
DOCKED: USER                              x       y       z     vdW  Elec       q    Type
DOCKED: USER                           _______ _______ _______ _____ _____    ______ ____
DOCKED: ROOT
DOCKED: ATOM      1  C   UNL     1      35.852  11.503 122.859 -0.64 -0.00    +0.000 C 
DOCKED: ENDROOT
DOCKED: BRANCH   1   2
DOCKED: ATOM      2  C   UNL     1      37.009  11.001 121.992 -0.56 -0.00    +0.000 C 
DOCKED: BRANCH   2   4
DOCKED: ATOM      3  N   UNL     1      37.074   8.740 123.150 -0.69 -0.00    +0.000 N 
DOCKED: ATOM      4  C   UNL     1      37.015   9.502 121.942 -0.63 -0.00    +0.000 C 
DOCKED: ATOM      5  O   UNL     1      36.927   8.914 120.830 -2.68 -0.00    +0.000 OA
DOCKED: ATOM      6  H   UNL     1      37.117   9.203 124.017 -0.53 -0.00    +0.000 HD
DOCKED: BRANCH   3   7
DOCKED: ATOM      7  O   UNL     1      37.071   7.386 123.111 -2.18 -0.00    +0.000 OA
DOCKED: ATOM      8  H   UNL     1      37.211   7.089 122.197 -0.15 -0.00    +0.000 HD
DOCKED: ENDBRANCH   3   7
DOCKED: ENDBRANCH   2   4
DOCKED: ENDBRANCH   1   2
DOCKED: BRANCH   1   9
DOCKED: ATOM      9  C   UNL     1      36.351  12.471 123.937 -0.61 -0.00    +0.000 C 
DOCKED: BRANCH   9  10
DOCKED: ATOM     10  C   UNL     1      36.123  13.897 123.513 -0.50 -0.00    +0.000 A 
DOCKED: ATOM     11  C   UNL     1      37.132  14.608 122.843 -0.40 -0.00    +0.000 A 
DOCKED: ATOM     12  C   UNL     1      36.931  15.943 122.478 -0.27 -0.00    +0.000 A 
DOCKED: ATOM     13  C   UNL     1      35.725  16.579 122.788 -0.30 -0.00    +0.000 A 
DOCKED: ATOM     14  C   UNL     1      34.721  15.882 123.465 -0.45 -0.00    +0.000 A 
DOCKED: ATOM     15  C   UNL     1      34.918  14.547 123.833 -0.42 -0.00    +0.000 A 
DOCKED: ATOM     16  CM  UNL     1      35.925  15.242 123.154 +0.00 -0.00    +0.000 AC
DOCKED: ENDBRANCH   9  10
DOCKED: ENDBRANCH   1   9
DOCKED: TORSDOF 5DOCKED: TER
DOCKED: ENDMDL
________________________________________________________________________________


	BEGINNING GENETIC ALGORITHM DOCKING 85 of 100
Run: 85 Seed: 300090794 566150772 [ Run 85 of 100 GA/GALS ]
Beginning LAMARCKIAN GENETIC ALGORITHM (LGA), with a maximum of 2500000 energy evaluations.

Final-Value: -11.202


	FINAL GENETIC ALGORITHM DOCKED STATE
	_______________________________________________


Detailed state:  trans 37.532 11.278 120.117 quatxyzw -0.534024 0.772533 -0.132901 0.316778 center 0.725 -0.143 0.203 ntor 5 -157.7022 -126.4747 -16.1272 164.7649 -108.3428
State:	 37.532  11.278 120.117  -0.563  0.814 -0.140 143.064   -157.70 -126.47  -16.13  164.76 -108.34

DOCKED: MODEL       85
DOCKED: USER    Run = 85
DOCKED: USER    DPF = ligand_dock.biased.dpf
DOCKED: USER  
DOCKED: USER    Estimated Free Energy of Binding    =   -8.87 kcal/mol  [=(1)+(2)+(3)-(4)]
DOCKED: USER    Estimated Inhibition Constant, Ki   =  316.12 nM (nanomolar)  [Temperature = 298.15 K]
DOCKED: USER    
DOCKED: USER    (1) Final Intermolecular Energy     =  -10.36 kcal/mol
DOCKED: USER        vdW + Hbond + desolv Energy     =  -10.36 kcal/mol
DOCKED: USER        Electrostatic Energy            =   +0.00 kcal/mol
DOCKED: USER    (2) Final Total Internal Energy     =   -0.84 kcal/mol
DOCKED: USER    (3) Torsional Free Energy           =   +1.49 kcal/mol
DOCKED: USER    (4) Unbound System's Energy  [=(2)] =   -0.84 kcal/mol
DOCKED: USER    
DOCKED: USER    
DOCKED: USER    NEWDPF move ligand.dum.pdbqt
DOCKED: USER    NEWDPF about 0.725000 -0.143000 0.203000
DOCKED: USER    NEWDPF tran0 37.532117 11.278114 120.116973
DOCKED: USER    NEWDPF quaternion0 -0.534024 0.772533 -0.132901 0.316778
DOCKED: USER    NEWDPF axisangle0 -0.563020 0.814479 -0.140117 143.063589
DOCKED: USER    NEWDPF quat0 -0.563020 0.814479 -0.140117 143.063589
DOCKED: USER    NEWDPF dihe0 -157.70 -126.47 -16.13 164.76 -108.34 
DOCKED: USER  keepresnum = 1 
DOCKED: USER  
DOCKED: REMARK  Name = 
DOCKED: REMARK  5 active torsions:
DOCKED: REMARK  status: ('A' for Active; 'I' for Inactive)
DOCKED: REMARK    1  A    between atoms: O_1  and  N_2
DOCKED: REMARK    2  A    between atoms: C_3  and  C_4
DOCKED: REMARK    3  A    between atoms: C_4  and  C_5
DOCKED: REMARK    4  A    between atoms: C_5  and  C_6
DOCKED: REMARK    5  A    between atoms: C_6  and  C_7
DOCKED: REMARK                            x       y       z     vdW  Elec       q    Type
DOCKED: REMARK                         _______ _______ _______ _____ _____    ______ ____
DOCKED: USER                              x       y       z     vdW  Elec       q    Type
DOCKED: USER                           _______ _______ _______ _____ _____    ______ ____
DOCKED: ROOT
DOCKED: ATOM      1  C   UNL     1      37.474  11.556 120.683 -0.45 -0.00    +0.000 C 
DOCKED: ENDROOT
DOCKED: BRANCH   1   2
DOCKED: ATOM      2  C   UNL     1      36.812  11.028 121.959 -0.60 -0.00    +0.000 C 
DOCKED: BRANCH   2   4
DOCKED: ATOM      3  N   UNL     1      37.052   8.916 123.350 -0.62 -0.00    +0.000 N 
DOCKED: ATOM      4  C   UNL     1      36.990   9.544 122.067 -0.63 -0.00    +0.000 C 
DOCKED: ATOM      5  O   UNL     1      37.044   8.843 121.020 -2.70 -0.00    +0.000 OA
DOCKED: ATOM      6  H   UNL     1      36.985   9.464 124.165 -0.55 -0.00    +0.000 HD
DOCKED: BRANCH   3   7
DOCKED: ATOM      7  O   UNL     1      37.205   7.574 123.454 -2.18 -0.00    +0.000 OA
DOCKED: ATOM      8  H   UNL     1      37.599   7.230 122.636 -0.28 -0.00    +0.000 HD
DOCKED: ENDBRANCH   3   7
DOCKED: ENDBRANCH   2   4
DOCKED: ENDBRANCH   1   2
DOCKED: BRANCH   1   9
DOCKED: ATOM      9  C   UNL     1      36.974  12.965 120.346 -0.44 -0.00    +0.000 C 
DOCKED: BRANCH   9  10
DOCKED: ATOM     10  C   UNL     1      37.532  13.969 121.318 -0.36 -0.00    +0.000 A 
DOCKED: ATOM     11  C   UNL     1      36.708  14.536 122.304 -0.32 -0.00    +0.000 A 
DOCKED: ATOM     12  C   UNL     1      37.220  15.493 123.187 -0.33 -0.00    +0.000 A 
DOCKED: ATOM     13  C   UNL     1      38.553  15.898 123.084 -0.26 -0.00    +0.000 A 
DOCKED: ATOM     14  C   UNL     1      39.377  15.347 122.097 -0.32 -0.00    +0.000 A 
DOCKED: ATOM     15  C   UNL     1      38.869  14.391 121.213 -0.32 -0.00    +0.000 A 
DOCKED: ATOM     16  CM  UNL     1      38.043  14.939 122.200 +0.00 -0.00    +0.000 AC
DOCKED: ENDBRANCH   9  10
DOCKED: ENDBRANCH   1   9
DOCKED: TORSDOF 5DOCKED: TER
DOCKED: ENDMDL
________________________________________________________________________________


	BEGINNING GENETIC ALGORITHM DOCKING 86 of 100
Run: 86 Seed: 77042429 145869329 [ Run 86 of 100 GA/GALS ]
Beginning LAMARCKIAN GENETIC ALGORITHM (LGA), with a maximum of 2500000 energy evaluations.

Final-Value: -11.872


	FINAL GENETIC ALGORITHM DOCKED STATE
	_______________________________________________


Detailed state:  trans 35.889 11.076 124.170 quatxyzw -0.128350 -0.348543 0.784841 0.496054 center 0.725 -0.143 0.203 ntor 5 -177.9402 120.0246 -102.0338 120.9357 -78.0694
State:	 35.889  11.076 124.170  -0.148 -0.401  0.904 120.521   -177.94  120.02 -102.03  120.94  -78.07

DOCKED: MODEL       86
DOCKED: USER    Run = 86
DOCKED: USER    DPF = ligand_dock.biased.dpf
DOCKED: USER  
DOCKED: USER    Estimated Free Energy of Binding    =   -9.41 kcal/mol  [=(1)+(2)+(3)-(4)]
DOCKED: USER    Estimated Inhibition Constant, Ki   =  127.07 nM (nanomolar)  [Temperature = 298.15 K]
DOCKED: USER    
DOCKED: USER    (1) Final Intermolecular Energy     =  -10.90 kcal/mol
DOCKED: USER        vdW + Hbond + desolv Energy     =  -10.90 kcal/mol
DOCKED: USER        Electrostatic Energy            =   +0.00 kcal/mol
DOCKED: USER    (2) Final Total Internal Energy     =   -0.97 kcal/mol
DOCKED: USER    (3) Torsional Free Energy           =   +1.49 kcal/mol
DOCKED: USER    (4) Unbound System's Energy  [=(2)] =   -0.97 kcal/mol
DOCKED: USER    
DOCKED: USER    
DOCKED: USER    NEWDPF move ligand.dum.pdbqt
DOCKED: USER    NEWDPF about 0.725000 -0.143000 0.203000
DOCKED: USER    NEWDPF tran0 35.888933 11.076478 124.170453
DOCKED: USER    NEWDPF quaternion0 -0.128350 -0.348543 0.784841 0.496054
DOCKED: USER    NEWDPF axisangle0 -0.147819 -0.401412 0.903890 120.521468
DOCKED: USER    NEWDPF quat0 -0.147819 -0.401412 0.903890 120.521468
DOCKED: USER    NEWDPF dihe0 -177.94 120.02 -102.03 120.94 -78.07 
DOCKED: USER  keepresnum = 1 
DOCKED: USER  
DOCKED: REMARK  Name = 
DOCKED: REMARK  5 active torsions:
DOCKED: REMARK  status: ('A' for Active; 'I' for Inactive)
DOCKED: REMARK    1  A    between atoms: O_1  and  N_2
DOCKED: REMARK    2  A    between atoms: C_3  and  C_4
DOCKED: REMARK    3  A    between atoms: C_4  and  C_5
DOCKED: REMARK    4  A    between atoms: C_5  and  C_6
DOCKED: REMARK    5  A    between atoms: C_6  and  C_7
DOCKED: REMARK                            x       y       z     vdW  Elec       q    Type
DOCKED: REMARK                         _______ _______ _______ _____ _____    ______ ____
DOCKED: USER                              x       y       z     vdW  Elec       q    Type
DOCKED: USER                           _______ _______ _______ _____ _____    ______ ____
DOCKED: ROOT
DOCKED: ATOM      1  C   UNL     1      35.936  11.279 123.573 -0.66 -0.00    +0.000 C 
DOCKED: ENDROOT
DOCKED: BRANCH   1   2
DOCKED: ATOM      2  C   UNL     1      35.718  10.510 122.267 -0.61 -0.00    +0.000 C 
DOCKED: BRANCH   2   4
DOCKED: ATOM      3  N   UNL     1      36.712   8.498 123.458 -0.65 -0.00    +0.000 N 
DOCKED: ATOM      4  C   UNL     1      36.534   9.252 122.257 -0.72 -0.00    +0.000 C 
DOCKED: ATOM      5  O   UNL     1      37.029   8.838 121.174 -2.68 -0.00    +0.000 OA
DOCKED: ATOM      6  H   UNL     1      36.302   8.811 124.296 -0.28 -0.00    +0.000 HD
DOCKED: BRANCH   3   7
DOCKED: ATOM      7  O   UNL     1      37.441   7.356 123.453 -1.98 -0.00    +0.000 OA
DOCKED: ATOM      8  H   UNL     1      37.799   7.206 122.564 -0.34 -0.00    +0.000 HD
DOCKED: ENDBRANCH   3   7
DOCKED: ENDBRANCH   2   4
DOCKED: ENDBRANCH   1   2
DOCKED: BRANCH   1   9
DOCKED: ATOM      9  C   UNL     1      37.268  12.037 123.550 -0.59 -0.00    +0.000 C 
DOCKED: BRANCH   9  10
DOCKED: ATOM     10  C   UNL     1      37.039  13.498 123.270 -0.50 -0.00    +0.000 A 
DOCKED: ATOM     11  C   UNL     1      38.020  14.255 122.608 -0.42 -0.00    +0.000 A 
DOCKED: ATOM     12  C   UNL     1      37.820  15.620 122.378 -0.28 -0.00    +0.000 A 
DOCKED: ATOM     13  C   UNL     1      36.646  16.240 122.815 -0.28 -0.00    +0.000 A 
DOCKED: ATOM     14  C   UNL     1      35.671  15.495 123.485 -0.42 -0.00    +0.000 A 
DOCKED: ATOM     15  C   UNL     1      35.867  14.131 123.718 -0.49 -0.00    +0.000 A 
DOCKED: ATOM     16  CM  UNL     1      36.844  14.873 123.046 +0.00 -0.00    +0.000 AC
DOCKED: ENDBRANCH   9  10
DOCKED: ENDBRANCH   1   9
DOCKED: TORSDOF 5DOCKED: TER
DOCKED: ENDMDL
________________________________________________________________________________


	BEGINNING GENETIC ALGORITHM DOCKING 87 of 100
Run: 87 Seed: 2051415620 1493832615 [ Run 87 of 100 GA/GALS ]
Beginning LAMARCKIAN GENETIC ALGORITHM (LGA), with a maximum of 2500000 energy evaluations.

Final-Value: -11.774


	FINAL GENETIC ALGORITHM DOCKED STATE
	_______________________________________________


Detailed state:  trans 37.383 12.478 121.067 quatxyzw 0.355486 -0.839457 -0.405330 -0.068186 center 0.725 -0.143 0.203 ntor 5 -177.5783 -156.7708 65.4931 174.4195 106.5618
State:	 37.383  12.478 121.067   0.356 -0.841 -0.406 -172.180   -177.58 -156.77   65.49  174.42  106.56

DOCKED: MODEL       87
DOCKED: USER    Run = 87
DOCKED: USER    DPF = ligand_dock.biased.dpf
DOCKED: USER  
DOCKED: USER    Estimated Free Energy of Binding    =   -9.35 kcal/mol  [=(1)+(2)+(3)-(4)]
DOCKED: USER    Estimated Inhibition Constant, Ki   =  140.26 nM (nanomolar)  [Temperature = 298.15 K]
DOCKED: USER    
DOCKED: USER    (1) Final Intermolecular Energy     =  -10.84 kcal/mol
DOCKED: USER        vdW + Hbond + desolv Energy     =  -10.84 kcal/mol
DOCKED: USER        Electrostatic Energy            =   +0.00 kcal/mol
DOCKED: USER    (2) Final Total Internal Energy     =   -0.93 kcal/mol
DOCKED: USER    (3) Torsional Free Energy           =   +1.49 kcal/mol
DOCKED: USER    (4) Unbound System's Energy  [=(2)] =   -0.93 kcal/mol
DOCKED: USER    
DOCKED: USER    
DOCKED: USER    NEWDPF move ligand.dum.pdbqt
DOCKED: USER    NEWDPF about 0.725000 -0.143000 0.203000
DOCKED: USER    NEWDPF tran0 37.383331 12.478015 121.066929
DOCKED: USER    NEWDPF quaternion0 0.355486 -0.839457 -0.405330 -0.068186
DOCKED: USER    NEWDPF axisangle0 0.356316 -0.841415 -0.406275 -172.180339
DOCKED: USER    NEWDPF quat0 0.356316 -0.841415 -0.406275 -172.180339
DOCKED: USER    NEWDPF dihe0 -177.58 -156.77 65.49 174.42 106.56 
DOCKED: USER  keepresnum = 1 
DOCKED: USER  
DOCKED: REMARK  Name = 
DOCKED: REMARK  5 active torsions:
DOCKED: REMARK  status: ('A' for Active; 'I' for Inactive)
DOCKED: REMARK    1  A    between atoms: O_1  and  N_2
DOCKED: REMARK    2  A    between atoms: C_3  and  C_4
DOCKED: REMARK    3  A    between atoms: C_4  and  C_5
DOCKED: REMARK    4  A    between atoms: C_5  and  C_6
DOCKED: REMARK    5  A    between atoms: C_6  and  C_7
DOCKED: REMARK                            x       y       z     vdW  Elec       q    Type
DOCKED: REMARK                         _______ _______ _______ _____ _____    ______ ____
DOCKED: USER                              x       y       z     vdW  Elec       q    Type
DOCKED: USER                           _______ _______ _______ _____ _____    ______ ____
DOCKED: ROOT
DOCKED: ATOM      1  C   UNL     1      37.359  12.114 121.585 -0.51 -0.00    +0.000 C 
DOCKED: ENDROOT
DOCKED: BRANCH   1   2
DOCKED: ATOM      2  C   UNL     1      36.244  11.181 122.064 -0.61 -0.00    +0.000 C 
DOCKED: BRANCH   2   4
DOCKED: ATOM      3  N   UNL     1      36.724   8.998 123.272 -0.62 -0.00    +0.000 N 
DOCKED: ATOM      4  C   UNL     1      36.713   9.758 122.060 -0.67 -0.00    +0.000 C 
DOCKED: ATOM      5  O   UNL     1      37.059   9.217 120.975 -2.74 -0.00    +0.000 OA
DOCKED: ATOM      6  H   UNL     1      36.429   9.416 124.112 -0.38 -0.00    +0.000 HD
DOCKED: BRANCH   3   7
DOCKED: ATOM      7  O   UNL     1      37.138   7.708 123.273 -2.29 -0.00    +0.000 OA
DOCKED: ATOM      8  H   UNL     1      37.430   7.463 122.380 -0.14 -0.00    +0.000 HD
DOCKED: ENDBRANCH   3   7
DOCKED: ENDBRANCH   2   4
DOCKED: ENDBRANCH   1   2
DOCKED: BRANCH   1   9
DOCKED: ATOM      9  C   UNL     1      37.814  13.051 122.708 -0.47 -0.00    +0.000 C 
DOCKED: BRANCH   9  10
DOCKED: ATOM     10  C   UNL     1      36.778  14.113 122.962 -0.45 -0.00    +0.000 A 
DOCKED: ATOM     11  C   UNL     1      36.907  15.384 122.377 -0.30 -0.00    +0.000 A 
DOCKED: ATOM     12  C   UNL     1      35.961  16.380 122.639 -0.28 -0.00    +0.000 A 
DOCKED: ATOM     13  C   UNL     1      34.887  16.118 123.494 -0.43 -0.00    +0.000 A 
DOCKED: ATOM     14  C   UNL     1      34.759  14.860 124.089 -0.47 -0.00    +0.000 A 
DOCKED: ATOM     15  C   UNL     1      35.702  13.861 123.831 -0.48 -0.00    +0.000 A 
DOCKED: ATOM     16  CM  UNL     1      35.832  15.119 123.232 +0.00 -0.00    +0.000 AC
DOCKED: ENDBRANCH   9  10
DOCKED: ENDBRANCH   1   9
DOCKED: TORSDOF 5DOCKED: TER
DOCKED: ENDMDL
________________________________________________________________________________


	BEGINNING GENETIC ALGORITHM DOCKING 88 of 100
Run: 88 Seed: 330905606 1693403104 [ Run 88 of 100 GA/GALS ]
Beginning LAMARCKIAN GENETIC ALGORITHM (LGA), with a maximum of 2500000 energy evaluations.

Final-Value: -11.852


	FINAL GENETIC ALGORITHM DOCKED STATE
	_______________________________________________


Detailed state:  trans 36.931 12.302 121.693 quatxyzw -0.435829 0.758037 0.485122 -0.009468 center 0.725 -0.143 0.203 ntor 5 -162.3358 -171.0034 79.6192 -179.6643 64.5324
State:	 36.931  12.302 121.693  -0.436  0.758  0.485 -178.915   -162.34 -171.00   79.62 -179.66   64.53

DOCKED: MODEL       88
DOCKED: USER    Run = 88
DOCKED: USER    DPF = ligand_dock.biased.dpf
DOCKED: USER  
DOCKED: USER    Estimated Free Energy of Binding    =   -9.51 kcal/mol  [=(1)+(2)+(3)-(4)]
DOCKED: USER    Estimated Inhibition Constant, Ki   =  107.20 nM (nanomolar)  [Temperature = 298.15 K]
DOCKED: USER    
DOCKED: USER    (1) Final Intermolecular Energy     =  -11.00 kcal/mol
DOCKED: USER        vdW + Hbond + desolv Energy     =  -11.00 kcal/mol
DOCKED: USER        Electrostatic Energy            =   +0.00 kcal/mol
DOCKED: USER    (2) Final Total Internal Energy     =   -0.85 kcal/mol
DOCKED: USER    (3) Torsional Free Energy           =   +1.49 kcal/mol
DOCKED: USER    (4) Unbound System's Energy  [=(2)] =   -0.85 kcal/mol
DOCKED: USER    
DOCKED: USER    
DOCKED: USER    NEWDPF move ligand.dum.pdbqt
DOCKED: USER    NEWDPF about 0.725000 -0.143000 0.203000
DOCKED: USER    NEWDPF tran0 36.930891 12.301564 121.693108
DOCKED: USER    NEWDPF quaternion0 -0.435829 0.758037 0.485122 -0.009468
DOCKED: USER    NEWDPF axisangle0 -0.435848 0.758071 0.485144 -178.915009
DOCKED: USER    NEWDPF quat0 -0.435848 0.758071 0.485144 -178.915009
DOCKED: USER    NEWDPF dihe0 -162.34 -171.00 79.62 -179.66 64.53 
DOCKED: USER  keepresnum = 1 
DOCKED: USER  
DOCKED: REMARK  Name = 
DOCKED: REMARK  5 active torsions:
DOCKED: REMARK  status: ('A' for Active; 'I' for Inactive)
DOCKED: REMARK    1  A    between atoms: O_1  and  N_2
DOCKED: REMARK    2  A    between atoms: C_3  and  C_4
DOCKED: REMARK    3  A    between atoms: C_4  and  C_5
DOCKED: REMARK    4  A    between atoms: C_5  and  C_6
DOCKED: REMARK    5  A    between atoms: C_6  and  C_7
DOCKED: REMARK                            x       y       z     vdW  Elec       q    Type
DOCKED: REMARK                         _______ _______ _______ _____ _____    ______ ____
DOCKED: USER                              x       y       z     vdW  Elec       q    Type
DOCKED: USER                           _______ _______ _______ _____ _____    ______ ____
DOCKED: ROOT
DOCKED: ATOM      1  C   UNL     1      36.899  11.811 122.092 -0.60 -0.00    +0.000 C 
DOCKED: ENDROOT
DOCKED: BRANCH   1   2
DOCKED: ATOM      2  C   UNL     1      35.873  10.676 122.154 -0.58 -0.00    +0.000 C 
DOCKED: BRANCH   2   4
DOCKED: ATOM      3  N   UNL     1      36.614   8.598 123.414 -0.63 -0.00    +0.000 N 
DOCKED: ATOM      4  C   UNL     1      36.564   9.346 122.197 -0.71 -0.00    +0.000 C 
DOCKED: ATOM      5  O   UNL     1      37.066   8.869 121.143 -2.70 -0.00    +0.000 OA
DOCKED: ATOM      6  H   UNL     1      36.199   8.963 124.228 -0.27 -0.00    +0.000 HD
DOCKED: BRANCH   3   7
DOCKED: ATOM      7  O   UNL     1      37.230   7.391 123.456 -2.07 -0.00    +0.000 OA
DOCKED: ATOM      8  H   UNL     1      37.813   7.300 122.686 -0.40 -0.00    +0.000 HD
DOCKED: ENDBRANCH   3   7
DOCKED: ENDBRANCH   2   4
DOCKED: ENDBRANCH   1   2
DOCKED: BRANCH   1   9
DOCKED: ATOM      9  C   UNL     1      37.097  12.450 123.470 -0.65 -0.00    +0.000 C 
DOCKED: BRANCH   9  10
DOCKED: ATOM     10  C   UNL     1      36.636  13.883 123.459 -0.49 -0.00    +0.000 A 
DOCKED: ATOM     11  C   UNL     1      37.537  14.915 123.150 -0.37 -0.00    +0.000 A 
DOCKED: ATOM     12  C   UNL     1      37.116  16.249 123.171 -0.27 -0.00    +0.000 A 
DOCKED: ATOM     13  C   UNL     1      35.796  16.561 123.510 -0.33 -0.00    +0.000 A 
DOCKED: ATOM     14  C   UNL     1      34.897  15.539 123.831 -0.50 -0.00    +0.000 A 
DOCKED: ATOM     15  C   UNL     1      35.314  14.205 123.812 -0.44 -0.00    +0.000 A 
DOCKED: ATOM     16  CM  UNL     1      36.216  15.225 123.489 +0.00 -0.00    +0.000 AC
DOCKED: ENDBRANCH   9  10
DOCKED: ENDBRANCH   1   9
DOCKED: TORSDOF 5DOCKED: TER
DOCKED: ENDMDL
________________________________________________________________________________


	BEGINNING GENETIC ALGORITHM DOCKING 89 of 100
Run: 89 Seed: 2037421058 154588940 [ Run 89 of 100 GA/GALS ]
Beginning LAMARCKIAN GENETIC ALGORITHM (LGA), with a maximum of 2500000 energy evaluations.

Final-Value: -12.028


	FINAL GENETIC ALGORITHM DOCKED STATE
	_______________________________________________


Detailed state:  trans 37.447 11.671 123.820 quatxyzw -0.139362 0.580549 -0.588620 -0.545038 center 0.725 -0.143 0.203 ntor 5 -179.6461 116.5904 -44.3652 -66.2793 -87.1145
State:	 37.447  11.671 123.820  -0.166  0.692 -0.702 -113.945   -179.65  116.59  -44.37  -66.28  -87.11

DOCKED: MODEL       89
DOCKED: USER    Run = 89
DOCKED: USER    DPF = ligand_dock.biased.dpf
DOCKED: USER  
DOCKED: USER    Estimated Free Energy of Binding    =   -9.62 kcal/mol  [=(1)+(2)+(3)-(4)]
DOCKED: USER    Estimated Inhibition Constant, Ki   =   89.55 nM (nanomolar)  [Temperature = 298.15 K]
DOCKED: USER    
DOCKED: USER    (1) Final Intermolecular Energy     =  -11.11 kcal/mol
DOCKED: USER        vdW + Hbond + desolv Energy     =  -11.11 kcal/mol
DOCKED: USER        Electrostatic Energy            =   +0.00 kcal/mol
DOCKED: USER    (2) Final Total Internal Energy     =   -0.92 kcal/mol
DOCKED: USER    (3) Torsional Free Energy           =   +1.49 kcal/mol
DOCKED: USER    (4) Unbound System's Energy  [=(2)] =   -0.92 kcal/mol
DOCKED: USER    
DOCKED: USER    
DOCKED: USER    NEWDPF move ligand.dum.pdbqt
DOCKED: USER    NEWDPF about 0.725000 -0.143000 0.203000
DOCKED: USER    NEWDPF tran0 37.447233 11.670817 123.820191
DOCKED: USER    NEWDPF quaternion0 -0.139362 0.580549 -0.588620 -0.545038
DOCKED: USER    NEWDPF axisangle0 -0.166222 0.692440 -0.702066 -113.945447
DOCKED: USER    NEWDPF quat0 -0.166222 0.692440 -0.702066 -113.945447
DOCKED: USER    NEWDPF dihe0 -179.65 116.59 -44.37 -66.28 -87.11 
DOCKED: USER  keepresnum = 1 
DOCKED: USER  
DOCKED: REMARK  Name = 
DOCKED: REMARK  5 active torsions:
DOCKED: REMARK  status: ('A' for Active; 'I' for Inactive)
DOCKED: REMARK    1  A    between atoms: O_1  and  N_2
DOCKED: REMARK    2  A    between atoms: C_3  and  C_4
DOCKED: REMARK    3  A    between atoms: C_4  and  C_5
DOCKED: REMARK    4  A    between atoms: C_5  and  C_6
DOCKED: REMARK    5  A    between atoms: C_6  and  C_7
DOCKED: REMARK                            x       y       z     vdW  Elec       q    Type
DOCKED: REMARK                         _______ _______ _______ _____ _____    ______ ____
DOCKED: USER                              x       y       z     vdW  Elec       q    Type
DOCKED: USER                           _______ _______ _______ _____ _____    ______ ____
DOCKED: ROOT
DOCKED: ATOM      1  C   UNL     1      37.052  11.901 123.382 -0.68 -0.00    +0.000 C 
DOCKED: ENDROOT
DOCKED: BRANCH   1   2
DOCKED: ATOM      2  C   UNL     1      36.463  11.213 122.149 -0.64 -0.00    +0.000 C 
DOCKED: BRANCH   2   4
DOCKED: ATOM      3  N   UNL     1      36.983   9.034 123.347 -0.60 -0.00    +0.000 N 
DOCKED: ATOM      4  C   UNL     1      36.842   9.763 122.125 -0.64 -0.00    +0.000 C 
DOCKED: ATOM      5  O   UNL     1      36.998   9.176 121.020 -2.71 -0.00    +0.000 OA
DOCKED: ATOM      6  H   UNL     1      36.836   9.490 124.206 -0.52 -0.00    +0.000 HD
DOCKED: BRANCH   3   7
DOCKED: ATOM      7  O   UNL     1      37.318   7.721 123.331 -2.22 -0.00    +0.000 OA
DOCKED: ATOM      8  H   UNL     1      37.432   7.428 122.413 -0.15 -0.00    +0.000 HD
DOCKED: ENDBRANCH   3   7
DOCKED: ENDBRANCH   2   4
DOCKED: ENDBRANCH   1   2
DOCKED: BRANCH   1   9
DOCKED: ATOM      9  C   UNL     1      37.667  13.256 123.015 -0.54 -0.00    +0.000 C 
DOCKED: BRANCH   9  10
DOCKED: ATOM     10  C   UNL     1      36.661  14.360 123.200 -0.44 -0.00    +0.000 A 
DOCKED: ATOM     11  C   UNL     1      35.565  14.184 124.061 -0.45 -0.00    +0.000 A 
DOCKED: ATOM     12  C   UNL     1      34.614  15.199 124.207 -0.52 -0.00    +0.000 A 
DOCKED: ATOM     13  C   UNL     1      34.744  16.390 123.488 -0.43 -0.00    +0.000 A 
DOCKED: ATOM     14  C   UNL     1      35.825  16.567 122.620 -0.28 -0.00    +0.000 A 
DOCKED: ATOM     15  C   UNL     1      36.778  15.556 122.470 -0.29 -0.00    +0.000 A 
DOCKED: ATOM     16  CM  UNL     1      35.698  15.376 123.341 +0.00 -0.00    +0.000 AC
DOCKED: ENDBRANCH   9  10
DOCKED: ENDBRANCH   1   9
DOCKED: TORSDOF 5DOCKED: TER
DOCKED: ENDMDL
________________________________________________________________________________


	BEGINNING GENETIC ALGORITHM DOCKING 90 of 100
Run: 90 Seed: 417519746 1529387626 [ Run 90 of 100 GA/GALS ]
Beginning LAMARCKIAN GENETIC ALGORITHM (LGA), with a maximum of 2500000 energy evaluations.

Final-Value: -11.849


	FINAL GENETIC ALGORITHM DOCKED STATE
	_______________________________________________


Detailed state:  trans 36.711 11.642 123.551 quatxyzw 0.079733 0.346408 -0.633070 -0.687653 center 0.725 -0.143 0.203 ntor 5 -151.8302 73.1283 -39.0380 -85.3378 -47.6533
State:	 36.711  11.642 123.551   0.110  0.477 -0.872 -93.111   -151.83   73.13  -39.04  -85.34  -47.65

DOCKED: MODEL       90
DOCKED: USER    Run = 90
DOCKED: USER    DPF = ligand_dock.biased.dpf
DOCKED: USER  
DOCKED: USER    Estimated Free Energy of Binding    =   -9.61 kcal/mol  [=(1)+(2)+(3)-(4)]
DOCKED: USER    Estimated Inhibition Constant, Ki   =   90.35 nM (nanomolar)  [Temperature = 298.15 K]
DOCKED: USER    
DOCKED: USER    (1) Final Intermolecular Energy     =  -11.10 kcal/mol
DOCKED: USER        vdW + Hbond + desolv Energy     =  -11.10 kcal/mol
DOCKED: USER        Electrostatic Energy            =   +0.00 kcal/mol
DOCKED: USER    (2) Final Total Internal Energy     =   -0.75 kcal/mol
DOCKED: USER    (3) Torsional Free Energy           =   +1.49 kcal/mol
DOCKED: USER    (4) Unbound System's Energy  [=(2)] =   -0.75 kcal/mol
DOCKED: USER    
DOCKED: USER    
DOCKED: USER    NEWDPF move ligand.dum.pdbqt
DOCKED: USER    NEWDPF about 0.725000 -0.143000 0.203000
DOCKED: USER    NEWDPF tran0 36.711151 11.642099 123.550615
DOCKED: USER    NEWDPF quaternion0 0.079733 0.346408 -0.633070 -0.687653
DOCKED: USER    NEWDPF axisangle0 0.109818 0.477120 -0.871950 -93.110795
DOCKED: USER    NEWDPF quat0 0.109818 0.477120 -0.871950 -93.110795
DOCKED: USER    NEWDPF dihe0 -151.83 73.13 -39.04 -85.34 -47.65 
DOCKED: USER  keepresnum = 1 
DOCKED: USER  
DOCKED: REMARK  Name = 
DOCKED: REMARK  5 active torsions:
DOCKED: REMARK  status: ('A' for Active; 'I' for Inactive)
DOCKED: REMARK    1  A    between atoms: O_1  and  N_2
DOCKED: REMARK    2  A    between atoms: C_3  and  C_4
DOCKED: REMARK    3  A    between atoms: C_4  and  C_5
DOCKED: REMARK    4  A    between atoms: C_5  and  C_6
DOCKED: REMARK    5  A    between atoms: C_6  and  C_7
DOCKED: REMARK                            x       y       z     vdW  Elec       q    Type
DOCKED: REMARK                         _______ _______ _______ _____ _____    ______ ____
DOCKED: USER                              x       y       z     vdW  Elec       q    Type
DOCKED: USER                           _______ _______ _______ _____ _____    ______ ____
DOCKED: ROOT
DOCKED: ATOM      1  C   UNL     1      36.713  11.860 122.956 -0.67 -0.00    +0.000 C 
DOCKED: ENDROOT
DOCKED: BRANCH   1   2
DOCKED: ATOM      2  C   UNL     1      37.007  11.117 121.651 -0.54 -0.00    +0.000 C 
DOCKED: BRANCH   2   4
DOCKED: ATOM      3  N   UNL     1      37.067   9.122 123.223 -0.63 -0.00    +0.000 N 
DOCKED: ATOM      4  C   UNL     1      37.063   9.638 121.890 -0.60 -0.00    +0.000 C 
DOCKED: ATOM      5  O   UNL     1      37.065   8.846 120.909 -2.71 -0.00    +0.000 OA
DOCKED: ATOM      6  H   UNL     1      37.039   9.743 123.986 -0.49 -0.00    +0.000 HD
DOCKED: BRANCH   3   7
DOCKED: ATOM      7  O   UNL     1      37.109   7.787 123.445 -2.26 -0.00    +0.000 OA
DOCKED: ATOM      8  H   UNL     1      37.563   7.351 122.706 -0.25 -0.00    +0.000 HD
DOCKED: ENDBRANCH   3   7
DOCKED: ENDBRANCH   2   4
DOCKED: ENDBRANCH   1   2
DOCKED: BRANCH   1   9
DOCKED: ATOM      9  C   UNL     1      37.528  13.155 123.048 -0.56 -0.00    +0.000 C 
DOCKED: BRANCH   9  10
DOCKED: ATOM     10  C   UNL     1      36.648  14.305 123.458 -0.45 -0.00    +0.000 A 
DOCKED: ATOM     11  C   UNL     1      35.295  14.088 123.765 -0.39 -0.00    +0.000 A 
DOCKED: ATOM     12  C   UNL     1      34.470  15.162 124.115 -0.51 -0.00    +0.000 A 
DOCKED: ATOM     13  C   UNL     1      34.988  16.460 124.152 -0.43 -0.00    +0.000 A 
DOCKED: ATOM     14  C   UNL     1      36.331  16.685 123.836 -0.29 -0.00    +0.000 A 
DOCKED: ATOM     15  C   UNL     1      37.159  15.614 123.485 -0.31 -0.00    +0.000 A 
DOCKED: ATOM     16  CM  UNL     1      35.816  15.385 123.801 +0.00 -0.00    +0.000 AC
DOCKED: ENDBRANCH   9  10
DOCKED: ENDBRANCH   1   9
DOCKED: TORSDOF 5DOCKED: TER
DOCKED: ENDMDL
________________________________________________________________________________


	BEGINNING GENETIC ALGORITHM DOCKING 91 of 100
Run: 91 Seed: 160316035 1144806507 [ Run 91 of 100 GA/GALS ]
Beginning LAMARCKIAN GENETIC ALGORITHM (LGA), with a maximum of 2500000 energy evaluations.

Final-Value: -11.222


	FINAL GENETIC ALGORITHM DOCKED STATE
	_______________________________________________


Detailed state:  trans 37.449 11.781 123.006 quatxyzw 0.395332 -0.552028 0.648229 0.344640 center 0.725 -0.143 0.203 ntor 5 180.0000 176.1875 -66.0080 -157.8889 -17.7590
State:	 37.449  11.781 123.006   0.421 -0.588  0.691 139.680    180.00  176.19  -66.01 -157.89  -17.76

DOCKED: MODEL       91
DOCKED: USER    Run = 91
DOCKED: USER    DPF = ligand_dock.biased.dpf
DOCKED: USER  
DOCKED: USER    Estimated Free Energy of Binding    =   -8.87 kcal/mol  [=(1)+(2)+(3)-(4)]
DOCKED: USER    Estimated Inhibition Constant, Ki   =  317.45 nM (nanomolar)  [Temperature = 298.15 K]
DOCKED: USER    
DOCKED: USER    (1) Final Intermolecular Energy     =  -10.36 kcal/mol
DOCKED: USER        vdW + Hbond + desolv Energy     =  -10.36 kcal/mol
DOCKED: USER        Electrostatic Energy            =   +0.00 kcal/mol
DOCKED: USER    (2) Final Total Internal Energy     =   -0.86 kcal/mol
DOCKED: USER    (3) Torsional Free Energy           =   +1.49 kcal/mol
DOCKED: USER    (4) Unbound System's Energy  [=(2)] =   -0.86 kcal/mol
DOCKED: USER    
DOCKED: USER    
DOCKED: USER    NEWDPF move ligand.dum.pdbqt
DOCKED: USER    NEWDPF about 0.725000 -0.143000 0.203000
DOCKED: USER    NEWDPF tran0 37.449043 11.780826 123.005805
DOCKED: USER    NEWDPF quaternion0 0.395332 -0.552028 0.648229 0.344640
DOCKED: USER    NEWDPF axisangle0 0.421133 -0.588055 0.690535 139.680414
DOCKED: USER    NEWDPF quat0 0.421133 -0.588055 0.690535 139.680414
DOCKED: USER    NEWDPF dihe0 180.00 176.19 -66.01 -157.89 -17.76 
DOCKED: USER  keepresnum = 1 
DOCKED: USER  
DOCKED: REMARK  Name = 
DOCKED: REMARK  5 active torsions:
DOCKED: REMARK  status: ('A' for Active; 'I' for Inactive)
DOCKED: REMARK    1  A    between atoms: O_1  and  N_2
DOCKED: REMARK    2  A    between atoms: C_3  and  C_4
DOCKED: REMARK    3  A    between atoms: C_4  and  C_5
DOCKED: REMARK    4  A    between atoms: C_5  and  C_6
DOCKED: REMARK    5  A    between atoms: C_6  and  C_7
DOCKED: REMARK                            x       y       z     vdW  Elec       q    Type
DOCKED: REMARK                         _______ _______ _______ _____ _____    ______ ____
DOCKED: USER                              x       y       z     vdW  Elec       q    Type
DOCKED: USER                           _______ _______ _______ _____ _____    ______ ____
DOCKED: ROOT
DOCKED: ATOM      1  C   UNL     1      36.874  11.848 122.749 -0.65 -0.00    +0.000 C 
DOCKED: ENDROOT
DOCKED: BRANCH   1   2
DOCKED: ATOM      2  C   UNL     1      35.865  10.774 122.334 -0.65 -0.00    +0.000 C 
DOCKED: BRANCH   2   4
DOCKED: ATOM      3  N   UNL     1      36.530   8.551 123.369 -0.64 -0.00    +0.000 N 
DOCKED: ATOM      4  C   UNL     1      36.531   9.434 122.245 -0.71 -0.00    +0.000 C 
DOCKED: ATOM      5  O   UNL     1      37.058   9.070 121.159 -2.72 -0.00    +0.000 OA
DOCKED: ATOM      6  H   UNL     1      36.095   8.829 124.207 -0.25 -0.00    +0.000 HD
DOCKED: BRANCH   3   7
DOCKED: ATOM      7  O   UNL     1      37.123   7.336 123.291 -2.10 -0.00    +0.000 OA
DOCKED: ATOM      8  H   UNL     1      37.501   7.218 122.405 -0.20 -0.00    +0.000 HD
DOCKED: ENDBRANCH   3   7
DOCKED: ENDBRANCH   2   4
DOCKED: ENDBRANCH   1   2
DOCKED: BRANCH   1   9
DOCKED: ATOM      9  C   UNL     1      37.099  12.858 121.618 -0.51 -0.00    +0.000 C 
DOCKED: BRANCH   9  10
DOCKED: ATOM     10  C   UNL     1      37.731  14.116 122.152 -0.40 -0.00    +0.000 A 
DOCKED: ATOM     11  C   UNL     1      36.999  14.978 122.985 -0.38 -0.00    +0.000 A 
DOCKED: ATOM     12  C   UNL     1      37.576  16.163 123.454 -0.27 -0.00    +0.000 A 
DOCKED: ATOM     13  C   UNL     1      38.882  16.499 123.087 -0.23 -0.00    +0.000 A 
DOCKED: ATOM     14  C   UNL     1      39.612  15.651 122.248 -0.30 -0.00    +0.000 A 
DOCKED: ATOM     15  C   UNL     1      39.039  14.467 121.776 -0.35 -0.00    +0.000 A 
DOCKED: ATOM     16  CM  UNL     1      38.307  15.312 122.616 +0.00 -0.00    +0.000 AC
DOCKED: ENDBRANCH   9  10
DOCKED: ENDBRANCH   1   9
DOCKED: TORSDOF 5DOCKED: TER
DOCKED: ENDMDL
________________________________________________________________________________


	BEGINNING GENETIC ALGORITHM DOCKING 92 of 100
Run: 92 Seed: 1064835940 1027908155 [ Run 92 of 100 GA/GALS ]
Beginning LAMARCKIAN GENETIC ALGORITHM (LGA), with a maximum of 2500000 energy evaluations.

Final-Value: -11.893


	FINAL GENETIC ALGORITHM DOCKED STATE
	_______________________________________________


Detailed state:  trans 37.526 12.303 122.399 quatxyzw -0.519908 0.737236 0.293573 -0.316219 center 0.725 -0.143 0.203 ntor 5 -153.8304 150.0789 64.0256 -117.2822 70.9695
State:	 37.526  12.303 122.399  -0.548  0.777  0.309 -143.131   -153.83  150.08   64.03 -117.28   70.97

DOCKED: MODEL       92
DOCKED: USER    Run = 92
DOCKED: USER    DPF = ligand_dock.biased.dpf
DOCKED: USER  
DOCKED: USER    Estimated Free Energy of Binding    =   -9.61 kcal/mol  [=(1)+(2)+(3)-(4)]
DOCKED: USER    Estimated Inhibition Constant, Ki   =   89.61 nM (nanomolar)  [Temperature = 298.15 K]
DOCKED: USER    
DOCKED: USER    (1) Final Intermolecular Energy     =  -11.11 kcal/mol
DOCKED: USER        vdW + Hbond + desolv Energy     =  -11.11 kcal/mol
DOCKED: USER        Electrostatic Energy            =   +0.00 kcal/mol
DOCKED: USER    (2) Final Total Internal Energy     =   -0.79 kcal/mol
DOCKED: USER    (3) Torsional Free Energy           =   +1.49 kcal/mol
DOCKED: USER    (4) Unbound System's Energy  [=(2)] =   -0.79 kcal/mol
DOCKED: USER    
DOCKED: USER    
DOCKED: USER    NEWDPF move ligand.dum.pdbqt
DOCKED: USER    NEWDPF about 0.725000 -0.143000 0.203000
DOCKED: USER    NEWDPF tran0 37.526122 12.303153 122.398926
DOCKED: USER    NEWDPF quaternion0 -0.519908 0.737236 0.293573 -0.316219
DOCKED: USER    NEWDPF axisangle0 -0.548029 0.777112 0.309452 -143.131220
DOCKED: USER    NEWDPF quat0 -0.548029 0.777112 0.309452 -143.131220
DOCKED: USER    NEWDPF dihe0 -153.83 150.08 64.03 -117.28 70.97 
DOCKED: USER  keepresnum = 1 
DOCKED: USER  
DOCKED: REMARK  Name = 
DOCKED: REMARK  5 active torsions:
DOCKED: REMARK  status: ('A' for Active; 'I' for Inactive)
DOCKED: REMARK    1  A    between atoms: O_1  and  N_2
DOCKED: REMARK    2  A    between atoms: C_3  and  C_4
DOCKED: REMARK    3  A    between atoms: C_4  and  C_5
DOCKED: REMARK    4  A    between atoms: C_5  and  C_6
DOCKED: REMARK    5  A    between atoms: C_6  and  C_7
DOCKED: REMARK                            x       y       z     vdW  Elec       q    Type
DOCKED: REMARK                         _______ _______ _______ _____ _____    ______ ____
DOCKED: USER                              x       y       z     vdW  Elec       q    Type
DOCKED: USER                           _______ _______ _______ _____ _____    ______ ____
DOCKED: ROOT
DOCKED: ATOM      1  C   UNL     1      37.166  11.847 122.650 -0.57 -0.00    +0.000 C 
DOCKED: ENDROOT
DOCKED: BRANCH   1   2
DOCKED: ATOM      2  C   UNL     1      36.207  10.876 121.956 -0.58 -0.00    +0.000 C 
DOCKED: BRANCH   2   4
DOCKED: ATOM      3  N   UNL     1      36.763   8.821 123.341 -0.62 -0.00    +0.000 N 
DOCKED: ATOM      4  C   UNL     1      36.711   9.469 122.068 -0.70 -0.00    +0.000 C 
DOCKED: ATOM      5  O   UNL     1      37.052   8.843 121.028 -2.70 -0.00    +0.000 OA
DOCKED: ATOM      6  H   UNL     1      36.472   9.304 124.147 -0.40 -0.00    +0.000 HD
DOCKED: BRANCH   3   7
DOCKED: ATOM      7  O   UNL     1      37.210   7.546 123.447 -2.16 -0.00    +0.000 OA
DOCKED: ATOM      8  H   UNL     1      37.817   7.356 122.715 -0.39 -0.00    +0.000 HD
DOCKED: ENDBRANCH   3   7
DOCKED: ENDBRANCH   2   4
DOCKED: ENDBRANCH   1   2
DOCKED: BRANCH   1   9
DOCKED: ATOM      9  C   UNL     1      36.489  12.532 123.841 -0.64 -0.00    +0.000 C 
DOCKED: BRANCH   9  10
DOCKED: ATOM     10  C   UNL     1      36.227  13.983 123.537 -0.49 -0.00    +0.000 A 
DOCKED: ATOM     11  C   UNL     1      37.057  14.681 122.645 -0.38 -0.00    +0.000 A 
DOCKED: ATOM     12  C   UNL     1      36.831  16.037 122.387 -0.25 -0.00    +0.000 A 
DOCKED: ATOM     13  C   UNL     1      35.783  16.707 123.025 -0.30 -0.00    +0.000 A 
DOCKED: ATOM     14  C   UNL     1      34.961  16.021 123.924 -0.46 -0.00    +0.000 A 
DOCKED: ATOM     15  C   UNL     1      35.183  14.666 124.185 -0.46 -0.00    +0.000 A 
DOCKED: ATOM     16  CM  UNL     1      36.007  15.349 123.284 +0.00 -0.00    +0.000 AC
DOCKED: ENDBRANCH   9  10
DOCKED: ENDBRANCH   1   9
DOCKED: TORSDOF 5DOCKED: TER
DOCKED: ENDMDL
________________________________________________________________________________


	BEGINNING GENETIC ALGORITHM DOCKING 93 of 100
Run: 93 Seed: 1968405018 1470228885 [ Run 93 of 100 GA/GALS ]
Beginning LAMARCKIAN GENETIC ALGORITHM (LGA), with a maximum of 2500000 energy evaluations.

Final-Value: -11.867


	FINAL GENETIC ALGORITHM DOCKED STATE
	_______________________________________________


Detailed state:  trans 35.698 11.178 123.967 quatxyzw 0.240168 0.342400 -0.715165 -0.560019 center 0.725 -0.143 0.203 ntor 5 -173.7754 84.1737 -85.9770 -21.1448 -88.8565
State:	 35.698  11.178 123.967   0.290  0.413 -0.863 -111.886   -173.78   84.17  -85.98  -21.14  -88.86

DOCKED: MODEL       93
DOCKED: USER    Run = 93
DOCKED: USER    DPF = ligand_dock.biased.dpf
DOCKED: USER  
DOCKED: USER    Estimated Free Energy of Binding    =   -9.42 kcal/mol  [=(1)+(2)+(3)-(4)]
DOCKED: USER    Estimated Inhibition Constant, Ki   =  124.31 nM (nanomolar)  [Temperature = 298.15 K]
DOCKED: USER    
DOCKED: USER    (1) Final Intermolecular Energy     =  -10.91 kcal/mol
DOCKED: USER        vdW + Hbond + desolv Energy     =  -10.91 kcal/mol
DOCKED: USER        Electrostatic Energy            =   +0.00 kcal/mol
DOCKED: USER    (2) Final Total Internal Energy     =   -0.95 kcal/mol
DOCKED: USER    (3) Torsional Free Energy           =   +1.49 kcal/mol
DOCKED: USER    (4) Unbound System's Energy  [=(2)] =   -0.95 kcal/mol
DOCKED: USER    
DOCKED: USER    
DOCKED: USER    NEWDPF move ligand.dum.pdbqt
DOCKED: USER    NEWDPF about 0.725000 -0.143000 0.203000
DOCKED: USER    NEWDPF tran0 35.698086 11.178463 123.967449
DOCKED: USER    NEWDPF quaternion0 0.240168 0.342400 -0.715165 -0.560019
DOCKED: USER    NEWDPF axisangle0 0.289889 0.413287 -0.863225 -111.885841
DOCKED: USER    NEWDPF quat0 0.289889 0.413287 -0.863225 -111.885841
DOCKED: USER    NEWDPF dihe0 -173.78 84.17 -85.98 -21.14 -88.86 
DOCKED: USER  keepresnum = 1 
DOCKED: USER  
DOCKED: REMARK  Name = 
DOCKED: REMARK  5 active torsions:
DOCKED: REMARK  status: ('A' for Active; 'I' for Inactive)
DOCKED: REMARK    1  A    between atoms: O_1  and  N_2
DOCKED: REMARK    2  A    between atoms: C_3  and  C_4
DOCKED: REMARK    3  A    between atoms: C_4  and  C_5
DOCKED: REMARK    4  A    between atoms: C_5  and  C_6
DOCKED: REMARK    5  A    between atoms: C_6  and  C_7
DOCKED: REMARK                            x       y       z     vdW  Elec       q    Type
DOCKED: REMARK                         _______ _______ _______ _____ _____    ______ ____
DOCKED: USER                              x       y       z     vdW  Elec       q    Type
DOCKED: USER                           _______ _______ _______ _____ _____    ______ ____
DOCKED: ROOT
DOCKED: ATOM      1  C   UNL     1      35.863  11.468 123.429 -0.67 -0.00    +0.000 C 
DOCKED: ENDROOT
DOCKED: BRANCH   1   2
DOCKED: ATOM      2  C   UNL     1      36.041  10.879 122.027 -0.57 -0.00    +0.000 C 
DOCKED: BRANCH   2   4
DOCKED: ATOM      3  N   UNL     1      36.914   8.912 123.376 -0.61 -0.00    +0.000 N 
DOCKED: ATOM      4  C   UNL     1      36.627   9.502 122.106 -0.69 -0.00    +0.000 C 
DOCKED: ATOM      5  O   UNL     1      36.829   8.847 121.048 -2.65 -0.00    +0.000 OA
DOCKED: ATOM      6  H   UNL     1      36.731   9.416 124.201 -0.49 -0.00    +0.000 HD
DOCKED: BRANCH   3   7
DOCKED: ATOM      7  O   UNL     1      37.435   7.664 123.455 -2.16 -0.00    +0.000 OA
DOCKED: ATOM      8  H   UNL     1      37.646   7.346 122.562 -0.23 -0.00    +0.000 HD
DOCKED: ENDBRANCH   3   7
DOCKED: ENDBRANCH   2   4
DOCKED: ENDBRANCH   1   2
DOCKED: BRANCH   1   9
DOCKED: ATOM      9  C   UNL     1      37.075  12.315 123.828 -0.59 -0.00    +0.000 C 
DOCKED: BRANCH   9  10
DOCKED: ATOM     10  C   UNL     1      36.866  13.754 123.436 -0.49 -0.00    +0.000 A 
DOCKED: ATOM     11  C   UNL     1      35.881  14.526 124.073 -0.45 -0.00    +0.000 A 
DOCKED: ATOM     12  C   UNL     1      35.665  15.853 123.685 -0.41 -0.00    +0.000 A 
DOCKED: ATOM     13  C   UNL     1      36.424  16.413 122.654 -0.26 -0.00    +0.000 A 
DOCKED: ATOM     14  C   UNL     1      37.398  15.646 122.008 -0.25 -0.00    +0.000 A 
DOCKED: ATOM     15  C   UNL     1      37.617  14.320 122.391 -0.40 -0.00    +0.000 A 
DOCKED: ATOM     16  CM  UNL     1      36.642  15.085 123.041 +0.00 -0.00    +0.000 AC
DOCKED: ENDBRANCH   9  10
DOCKED: ENDBRANCH   1   9
DOCKED: TORSDOF 5DOCKED: TER
DOCKED: ENDMDL
________________________________________________________________________________


	BEGINNING GENETIC ALGORITHM DOCKING 94 of 100
Run: 94 Seed: 1909547679 1247562470 [ Run 94 of 100 GA/GALS ]
Beginning LAMARCKIAN GENETIC ALGORITHM (LGA), with a maximum of 2500000 energy evaluations.

Final-Value: -11.952


	FINAL GENETIC ALGORITHM DOCKED STATE
	_______________________________________________


Detailed state:  trans 37.569 11.784 123.552 quatxyzw -0.226836 0.611520 -0.584720 -0.482381 center 0.725 -0.143 0.203 ntor 5 -172.7302 137.2786 -45.6686 -89.6019 -80.7977
State:	 37.569  11.784 123.552  -0.259  0.698 -0.668 -122.318   -172.73  137.28  -45.67  -89.60  -80.80

DOCKED: MODEL       94
DOCKED: USER    Run = 94
DOCKED: USER    DPF = ligand_dock.biased.dpf
DOCKED: USER  
DOCKED: USER    Estimated Free Energy of Binding    =   -9.57 kcal/mol  [=(1)+(2)+(3)-(4)]
DOCKED: USER    Estimated Inhibition Constant, Ki   =   95.98 nM (nanomolar)  [Temperature = 298.15 K]
DOCKED: USER    
DOCKED: USER    (1) Final Intermolecular Energy     =  -11.07 kcal/mol
DOCKED: USER        vdW + Hbond + desolv Energy     =  -11.07 kcal/mol
DOCKED: USER        Electrostatic Energy            =   +0.00 kcal/mol
DOCKED: USER    (2) Final Total Internal Energy     =   -0.89 kcal/mol
DOCKED: USER    (3) Torsional Free Energy           =   +1.49 kcal/mol
DOCKED: USER    (4) Unbound System's Energy  [=(2)] =   -0.89 kcal/mol
DOCKED: USER    
DOCKED: USER    
DOCKED: USER    NEWDPF move ligand.dum.pdbqt
DOCKED: USER    NEWDPF about 0.725000 -0.143000 0.203000
DOCKED: USER    NEWDPF tran0 37.569466 11.784366 123.551874
DOCKED: USER    NEWDPF quaternion0 -0.226836 0.611520 -0.584720 -0.482381
DOCKED: USER    NEWDPF axisangle0 -0.258957 0.698113 -0.667518 -122.317990
DOCKED: USER    NEWDPF quat0 -0.258957 0.698113 -0.667518 -122.317990
DOCKED: USER    NEWDPF dihe0 -172.73 137.28 -45.67 -89.60 -80.80 
DOCKED: USER  keepresnum = 1 
DOCKED: USER  
DOCKED: REMARK  Name = 
DOCKED: REMARK  5 active torsions:
DOCKED: REMARK  status: ('A' for Active; 'I' for Inactive)
DOCKED: REMARK    1  A    between atoms: O_1  and  N_2
DOCKED: REMARK    2  A    between atoms: C_3  and  C_4
DOCKED: REMARK    3  A    between atoms: C_4  and  C_5
DOCKED: REMARK    4  A    between atoms: C_5  and  C_6
DOCKED: REMARK    5  A    between atoms: C_6  and  C_7
DOCKED: REMARK                            x       y       z     vdW  Elec       q    Type
DOCKED: REMARK                         _______ _______ _______ _____ _____    ______ ____
DOCKED: USER                              x       y       z     vdW  Elec       q    Type
DOCKED: USER                           _______ _______ _______ _____ _____    ______ ____
DOCKED: ROOT
DOCKED: ATOM      1  C   UNL     1      37.085  11.976 123.192 -0.66 -0.00    +0.000 C 
DOCKED: ENDROOT
DOCKED: BRANCH   1   2
DOCKED: ATOM      2  C   UNL     1      36.273  11.189 122.160 -0.63 -0.00    +0.000 C 
DOCKED: BRANCH   2   4
DOCKED: ATOM      3  N   UNL     1      36.720   8.983 123.339 -0.60 -0.00    +0.000 N 
DOCKED: ATOM      4  C   UNL     1      36.706   9.754 122.135 -0.68 -0.00    +0.000 C 
DOCKED: ATOM      5  O   UNL     1      37.019   9.215 121.039 -2.72 -0.00    +0.000 OA
DOCKED: ATOM      6  H   UNL     1      36.451   9.401 124.188 -0.39 -0.00    +0.000 HD
DOCKED: BRANCH   3   7
DOCKED: ATOM      7  O   UNL     1      37.102   7.683 123.321 -2.28 -0.00    +0.000 OA
DOCKED: ATOM      8  H   UNL     1      37.443   7.460 122.440 -0.14 -0.00    +0.000 HD
DOCKED: ENDBRANCH   3   7
DOCKED: ENDBRANCH   2   4
DOCKED: ENDBRANCH   1   2
DOCKED: BRANCH   1   9
DOCKED: ATOM      9  C   UNL     1      37.568  13.309 122.612 -0.53 -0.00    +0.000 C 
DOCKED: BRANCH   9  10
DOCKED: ATOM     10  C   UNL     1      36.672  14.434 123.056 -0.43 -0.00    +0.000 A 
DOCKED: ATOM     11  C   UNL     1      35.559  14.173 123.873 -0.48 -0.00    +0.000 A 
DOCKED: ATOM     12  C   UNL     1      34.709  15.215 124.258 -0.52 -0.00    +0.000 A 
DOCKED: ATOM     13  C   UNL     1      34.957  16.519 123.823 -0.42 -0.00    +0.000 A 
DOCKED: ATOM     14  C   UNL     1      36.055  16.784 123.000 -0.28 -0.00    +0.000 A 
DOCKED: ATOM     15  C   UNL     1      36.908  15.746 122.611 -0.29 -0.00    +0.000 A 
DOCKED: ATOM     16  CM  UNL     1      35.810  15.479 123.436 +0.00 -0.00    +0.000 AC
DOCKED: ENDBRANCH   9  10
DOCKED: ENDBRANCH   1   9
DOCKED: TORSDOF 5DOCKED: TER
DOCKED: ENDMDL
________________________________________________________________________________


	BEGINNING GENETIC ALGORITHM DOCKING 95 of 100
Run: 95 Seed: 1574733550 280597314 [ Run 95 of 100 GA/GALS ]
Beginning LAMARCKIAN GENETIC ALGORITHM (LGA), with a maximum of 2500000 energy evaluations.

Final-Value: -11.634


	FINAL GENETIC ALGORITHM DOCKED STATE
	_______________________________________________


Detailed state:  trans 37.699 11.768 123.039 quatxyzw 0.425103 -0.656432 0.528148 0.330823 center 0.725 -0.143 0.203 ntor 5 -178.9258 178.4324 -51.7430 -119.0118 -72.7869
State:	 37.699  11.768 123.039   0.450 -0.696  0.560 141.363   -178.93  178.43  -51.74 -119.01  -72.79

DOCKED: MODEL       95
DOCKED: USER    Run = 95
DOCKED: USER    DPF = ligand_dock.biased.dpf
DOCKED: USER  
DOCKED: USER    Estimated Free Energy of Binding    =   -9.26 kcal/mol  [=(1)+(2)+(3)-(4)]
DOCKED: USER    Estimated Inhibition Constant, Ki   =  162.36 nM (nanomolar)  [Temperature = 298.15 K]
DOCKED: USER    
DOCKED: USER    (1) Final Intermolecular Energy     =  -10.75 kcal/mol
DOCKED: USER        vdW + Hbond + desolv Energy     =  -10.75 kcal/mol
DOCKED: USER        Electrostatic Energy            =   +0.00 kcal/mol
DOCKED: USER    (2) Final Total Internal Energy     =   -0.88 kcal/mol
DOCKED: USER    (3) Torsional Free Energy           =   +1.49 kcal/mol
DOCKED: USER    (4) Unbound System's Energy  [=(2)] =   -0.88 kcal/mol
DOCKED: USER    
DOCKED: USER    
DOCKED: USER    NEWDPF move ligand.dum.pdbqt
DOCKED: USER    NEWDPF about 0.725000 -0.143000 0.203000
DOCKED: USER    NEWDPF tran0 37.699271 11.768320 123.039461
DOCKED: USER    NEWDPF quaternion0 0.425103 -0.656432 0.528148 0.330823
DOCKED: USER    NEWDPF axisangle0 0.450468 -0.695599 0.559661 141.362565
DOCKED: USER    NEWDPF quat0 0.450468 -0.695599 0.559661 141.362565
DOCKED: USER    NEWDPF dihe0 -178.93 178.43 -51.74 -119.01 -72.79 
DOCKED: USER  keepresnum = 1 
DOCKED: USER  
DOCKED: REMARK  Name = 
DOCKED: REMARK  5 active torsions:
DOCKED: REMARK  status: ('A' for Active; 'I' for Inactive)
DOCKED: REMARK    1  A    between atoms: O_1  and  N_2
DOCKED: REMARK    2  A    between atoms: C_3  and  C_4
DOCKED: REMARK    3  A    between atoms: C_4  and  C_5
DOCKED: REMARK    4  A    between atoms: C_5  and  C_6
DOCKED: REMARK    5  A    between atoms: C_6  and  C_7
DOCKED: REMARK                            x       y       z     vdW  Elec       q    Type
DOCKED: REMARK                         _______ _______ _______ _____ _____    ______ ____
DOCKED: USER                              x       y       z     vdW  Elec       q    Type
DOCKED: USER                           _______ _______ _______ _____ _____    ______ ____
DOCKED: ROOT
DOCKED: ATOM      1  C   UNL     1      37.083  11.870 122.936 -0.64 -0.00    +0.000 C 
DOCKED: ENDROOT
DOCKED: BRANCH   1   2
DOCKED: ATOM      2  C   UNL     1      35.995  10.881 122.509 -0.67 -0.00    +0.000 C 
DOCKED: BRANCH   2   4
DOCKED: ATOM      3  N   UNL     1      36.546   8.545 123.342 -0.65 -0.00    +0.000 N 
DOCKED: ATOM      4  C   UNL     1      36.580   9.517 122.295 -0.71 -0.00    +0.000 C 
DOCKED: ATOM      5  O   UNL     1      37.068   9.216 121.172 -2.74 -0.00    +0.000 OA
DOCKED: ATOM      6  H   UNL     1      36.142   8.776 124.209 -0.26 -0.00    +0.000 HD
DOCKED: BRANCH   3   7
DOCKED: ATOM      7  O   UNL     1      37.065   7.308 123.151 -2.12 -0.00    +0.000 OA
DOCKED: ATOM      8  H   UNL     1      37.437   7.249 122.257 -0.17 -0.00    +0.000 HD
DOCKED: ENDBRANCH   3   7
DOCKED: ENDBRANCH   2   4
DOCKED: ENDBRANCH   1   2
DOCKED: BRANCH   1   9
DOCKED: ATOM      9  C   UNL     1      37.065  13.122 122.053 -0.51 -0.00    +0.000 C 
DOCKED: BRANCH   9  10
DOCKED: ATOM     10  C   UNL     1      36.514  14.298 122.816 -0.40 -0.00    +0.000 A 
DOCKED: ATOM     11  C   UNL     1      35.559  14.102 123.827 -0.49 -0.00    +0.000 A 
DOCKED: ATOM     12  C   UNL     1      35.025  15.197 124.513 -0.46 -0.00    +0.000 A 
DOCKED: ATOM     13  C   UNL     1      35.432  16.494 124.188 -0.38 -0.00    +0.000 A 
DOCKED: ATOM     14  C   UNL     1      36.373  16.697 123.174 -0.27 -0.00    +0.000 A 
DOCKED: ATOM     15  C   UNL     1      36.910  15.605 122.485 -0.29 -0.00    +0.000 A 
DOCKED: ATOM     16  CM  UNL     1      35.969  15.399 123.500 +0.00 -0.00    +0.000 AC
DOCKED: ENDBRANCH   9  10
DOCKED: ENDBRANCH   1   9
DOCKED: TORSDOF 5DOCKED: TER
DOCKED: ENDMDL
________________________________________________________________________________


	BEGINNING GENETIC ALGORITHM DOCKING 96 of 100
Run: 96 Seed: 1646913347 492371192 [ Run 96 of 100 GA/GALS ]
Beginning LAMARCKIAN GENETIC ALGORITHM (LGA), with a maximum of 2500000 energy evaluations.

Final-Value: -11.133


	FINAL GENETIC ALGORITHM DOCKED STATE
	_______________________________________________


Detailed state:  trans 37.722 11.886 122.622 quatxyzw 0.503353 -0.752136 0.314338 0.286564 center 0.725 -0.143 0.203 ntor 5 -179.2351 -179.5464 -26.0700 21.1136 34.2663
State:	 37.722  11.886 122.622   0.525 -0.785  0.328 146.695   -179.24 -179.55  -26.07   21.11   34.27

DOCKED: MODEL       96
DOCKED: USER    Run = 96
DOCKED: USER    DPF = ligand_dock.biased.dpf
DOCKED: USER  
DOCKED: USER    Estimated Free Energy of Binding    =   -8.76 kcal/mol  [=(1)+(2)+(3)-(4)]
DOCKED: USER    Estimated Inhibition Constant, Ki   =  377.44 nM (nanomolar)  [Temperature = 298.15 K]
DOCKED: USER    
DOCKED: USER    (1) Final Intermolecular Energy     =  -10.25 kcal/mol
DOCKED: USER        vdW + Hbond + desolv Energy     =  -10.25 kcal/mol
DOCKED: USER        Electrostatic Energy            =   +0.00 kcal/mol
DOCKED: USER    (2) Final Total Internal Energy     =   -0.88 kcal/mol
DOCKED: USER    (3) Torsional Free Energy           =   +1.49 kcal/mol
DOCKED: USER    (4) Unbound System's Energy  [=(2)] =   -0.88 kcal/mol
DOCKED: USER    
DOCKED: USER    
DOCKED: USER    NEWDPF move ligand.dum.pdbqt
DOCKED: USER    NEWDPF about 0.725000 -0.143000 0.203000
DOCKED: USER    NEWDPF tran0 37.721633 11.886154 122.622141
DOCKED: USER    NEWDPF quaternion0 0.503353 -0.752136 0.314338 0.286564
DOCKED: USER    NEWDPF axisangle0 0.525387 -0.785061 0.328098 146.695325
DOCKED: USER    NEWDPF quat0 0.525387 -0.785061 0.328098 146.695325
DOCKED: USER    NEWDPF dihe0 -179.24 -179.55 -26.07 21.11 34.27 
DOCKED: USER  keepresnum = 1 
DOCKED: USER  
DOCKED: REMARK  Name = 
DOCKED: REMARK  5 active torsions:
DOCKED: REMARK  status: ('A' for Active; 'I' for Inactive)
DOCKED: REMARK    1  A    between atoms: O_1  and  N_2
DOCKED: REMARK    2  A    between atoms: C_3  and  C_4
DOCKED: REMARK    3  A    between atoms: C_4  and  C_5
DOCKED: REMARK    4  A    between atoms: C_5  and  C_6
DOCKED: REMARK    5  A    between atoms: C_6  and  C_7
DOCKED: REMARK                            x       y       z     vdW  Elec       q    Type
DOCKED: REMARK                         _______ _______ _______ _____ _____    ______ ____
DOCKED: USER                              x       y       z     vdW  Elec       q    Type
DOCKED: USER                           _______ _______ _______ _____ _____    ______ ____
DOCKED: ROOT
DOCKED: ATOM      1  C   UNL     1      37.109  11.906 122.781 -0.61 -0.00    +0.000 C 
DOCKED: ENDROOT
DOCKED: BRANCH   1   2
DOCKED: ATOM      2  C   UNL     1      35.998  10.893 122.490 -0.67 -0.00    +0.000 C 
DOCKED: BRANCH   2   4
DOCKED: ATOM      3  N   UNL     1      36.620   8.573 123.318 -0.65 -0.00    +0.000 N 
DOCKED: ATOM      4  C   UNL     1      36.578   9.530 122.257 -0.70 -0.00    +0.000 C 
DOCKED: ATOM      5  O   UNL     1      36.993   9.216 121.109 -2.72 -0.00    +0.000 OA
DOCKED: ATOM      6  H   UNL     1      36.272   8.814 124.206 -0.31 -0.00    +0.000 HD
DOCKED: BRANCH   3   7
DOCKED: ATOM      7  O   UNL     1      37.135   7.337 123.111 -2.11 -0.00    +0.000 OA
DOCKED: ATOM      8  H   UNL     1      37.443   7.266 122.193 -0.16 -0.00    +0.000 HD
DOCKED: ENDBRANCH   3   7
DOCKED: ENDBRANCH   2   4
DOCKED: ENDBRANCH   1   2
DOCKED: BRANCH   1   9
DOCKED: ATOM      9  C   UNL     1      36.678  13.323 122.391 -0.50 -0.00    +0.000 C 
DOCKED: BRANCH   9  10
DOCKED: ATOM     10  C   UNL     1      37.854  14.110 121.877 -0.39 -0.00    +0.000 A 
DOCKED: ATOM     11  C   UNL     1      37.941  14.446 120.516 -0.29 -0.00    +0.000 A 
DOCKED: ATOM     12  C   UNL     1      39.049  15.149 120.033 -0.18 -0.00    +0.000 A 
DOCKED: ATOM     13  C   UNL     1      40.081  15.513 120.903 -0.21 -0.00    +0.000 A 
DOCKED: ATOM     14  C   UNL     1      40.006  15.172 122.257 -0.37 -0.00    +0.000 A 
DOCKED: ATOM     15  C   UNL     1      38.901  14.468 122.744 -0.37 -0.00    +0.000 A 
DOCKED: ATOM     16  CM  UNL     1      38.972  14.809 121.389 +0.00 -0.00    +0.000 AC
DOCKED: ENDBRANCH   9  10
DOCKED: ENDBRANCH   1   9
DOCKED: TORSDOF 5DOCKED: TER
DOCKED: ENDMDL
________________________________________________________________________________


	BEGINNING GENETIC ALGORITHM DOCKING 97 of 100
Run: 97 Seed: 268349924 1095382187 [ Run 97 of 100 GA/GALS ]
Beginning LAMARCKIAN GENETIC ALGORITHM (LGA), with a maximum of 2500000 energy evaluations.

Final-Value: -11.151


	FINAL GENETIC ALGORITHM DOCKED STATE
	_______________________________________________


Detailed state:  trans 37.742 11.726 122.362 quatxyzw 0.529134 -0.675765 0.444203 0.256988 center 0.725 -0.143 0.203 ntor 5 -173.2967 178.5911 -38.1362 176.3231 -44.6935
State:	 37.742  11.726 122.362   0.548 -0.699  0.460 150.217   -173.30  178.59  -38.14  176.32  -44.69

DOCKED: MODEL       97
DOCKED: USER    Run = 97
DOCKED: USER    DPF = ligand_dock.biased.dpf
DOCKED: USER  
DOCKED: USER    Estimated Free Energy of Binding    =   -8.82 kcal/mol  [=(1)+(2)+(3)-(4)]
DOCKED: USER    Estimated Inhibition Constant, Ki   =  344.19 nM (nanomolar)  [Temperature = 298.15 K]
DOCKED: USER    
DOCKED: USER    (1) Final Intermolecular Energy     =  -10.31 kcal/mol
DOCKED: USER        vdW + Hbond + desolv Energy     =  -10.31 kcal/mol
DOCKED: USER        Electrostatic Energy            =   +0.00 kcal/mol
DOCKED: USER    (2) Final Total Internal Energy     =   -0.84 kcal/mol
DOCKED: USER    (3) Torsional Free Energy           =   +1.49 kcal/mol
DOCKED: USER    (4) Unbound System's Energy  [=(2)] =   -0.84 kcal/mol
DOCKED: USER    
DOCKED: USER    
DOCKED: USER    NEWDPF move ligand.dum.pdbqt
DOCKED: USER    NEWDPF about 0.725000 -0.143000 0.203000
DOCKED: USER    NEWDPF tran0 37.741648 11.725700 122.362443
DOCKED: USER    NEWDPF quaternion0 0.529134 -0.675765 0.444203 0.256988
DOCKED: USER    NEWDPF axisangle0 0.547523 -0.699249 0.459640 150.217160
DOCKED: USER    NEWDPF quat0 0.547523 -0.699249 0.459640 150.217160
DOCKED: USER    NEWDPF dihe0 -173.30 178.59 -38.14 176.32 -44.69 
DOCKED: USER  keepresnum = 1 
DOCKED: USER  
DOCKED: REMARK  Name = 
DOCKED: REMARK  5 active torsions:
DOCKED: REMARK  status: ('A' for Active; 'I' for Inactive)
DOCKED: REMARK    1  A    between atoms: O_1  and  N_2
DOCKED: REMARK    2  A    between atoms: C_3  and  C_4
DOCKED: REMARK    3  A    between atoms: C_4  and  C_5
DOCKED: REMARK    4  A    between atoms: C_5  and  C_6
DOCKED: REMARK    5  A    between atoms: C_6  and  C_7
DOCKED: REMARK                            x       y       z     vdW  Elec       q    Type
DOCKED: REMARK                         _______ _______ _______ _____ _____    ______ ____
DOCKED: USER                              x       y       z     vdW  Elec       q    Type
DOCKED: USER                           _______ _______ _______ _____ _____    ______ ____
DOCKED: ROOT
DOCKED: ATOM      1  C   UNL     1      37.115  11.766 122.442 -0.58 -0.00    +0.000 C 
DOCKED: ENDROOT
DOCKED: BRANCH   1   2
DOCKED: ATOM      2  C   UNL     1      36.051  10.670 122.333 -0.67 -0.00    +0.000 C 
DOCKED: BRANCH   2   4
DOCKED: ATOM      3  N   UNL     1      36.853   8.538 123.458 -0.65 -0.00    +0.000 N 
DOCKED: ATOM      4  C   UNL     1      36.695   9.318 122.270 -0.72 -0.00    +0.000 C 
DOCKED: ATOM      5  O   UNL     1      37.061   8.851 121.157 -2.69 -0.00    +0.000 OA
DOCKED: ATOM      6  H   UNL     1      36.542   8.895 124.321 -0.35 -0.00    +0.000 HD
DOCKED: BRANCH   3   7
DOCKED: ATOM      7  O   UNL     1      37.426   7.311 123.406 -1.94 -0.00    +0.000 OA
DOCKED: ATOM      8  H   UNL     1      37.769   7.154 122.512 -0.34 -0.00    +0.000 HD
DOCKED: ENDBRANCH   3   7
DOCKED: ENDBRANCH   2   4
DOCKED: ENDBRANCH   1   2
DOCKED: BRANCH   1   9
DOCKED: ATOM      9  C   UNL     1      36.723  12.997 121.618 -0.43 -0.00    +0.000 C 
DOCKED: BRANCH   9  10
DOCKED: ATOM     10  C   UNL     1      36.965  14.257 122.405 -0.38 -0.00    +0.000 A 
DOCKED: ATOM     11  C   UNL     1      35.921  14.848 123.137 -0.38 -0.00    +0.000 A 
DOCKED: ATOM     12  C   UNL     1      36.139  16.036 123.841 -0.35 -0.00    +0.000 A 
DOCKED: ATOM     13  C   UNL     1      37.396  16.647 123.812 -0.21 -0.00    +0.000 A 
DOCKED: ATOM     14  C   UNL     1      38.436  16.072 123.076 -0.26 -0.00    +0.000 A 
DOCKED: ATOM     15  C   UNL     1      38.222  14.885 122.370 -0.35 -0.00    +0.000 A 
DOCKED: ATOM     16  CM  UNL     1      37.180  15.457 123.107 +0.00 -0.00    +0.000 AC
DOCKED: ENDBRANCH   9  10
DOCKED: ENDBRANCH   1   9
DOCKED: TORSDOF 5DOCKED: TER
DOCKED: ENDMDL
________________________________________________________________________________


	BEGINNING GENETIC ALGORITHM DOCKING 98 of 100
Run: 98 Seed: 1421474105 2038883704 [ Run 98 of 100 GA/GALS ]
Beginning LAMARCKIAN GENETIC ALGORITHM (LGA), with a maximum of 2500000 energy evaluations.

Final-Value: -11.798


	FINAL GENETIC ALGORITHM DOCKED STATE
	_______________________________________________


Detailed state:  trans 36.956 12.482 121.311 quatxyzw 0.363025 -0.801180 -0.464270 -0.103811 center 0.725 -0.143 0.203 ntor 5 -180.0000 -150.7367 71.6735 180.0000 88.5466
State:	 36.956  12.482 121.311   0.365 -0.806 -0.467 -168.083   -180.00 -150.74   71.67  180.00   88.55

DOCKED: MODEL       98
DOCKED: USER    Run = 98
DOCKED: USER    DPF = ligand_dock.biased.dpf
DOCKED: USER  
DOCKED: USER    Estimated Free Energy of Binding    =   -9.38 kcal/mol  [=(1)+(2)+(3)-(4)]
DOCKED: USER    Estimated Inhibition Constant, Ki   =  132.91 nM (nanomolar)  [Temperature = 298.15 K]
DOCKED: USER    
DOCKED: USER    (1) Final Intermolecular Energy     =  -10.87 kcal/mol
DOCKED: USER        vdW + Hbond + desolv Energy     =  -10.87 kcal/mol
DOCKED: USER        Electrostatic Energy            =   +0.00 kcal/mol
DOCKED: USER    (2) Final Total Internal Energy     =   -0.93 kcal/mol
DOCKED: USER    (3) Torsional Free Energy           =   +1.49 kcal/mol
DOCKED: USER    (4) Unbound System's Energy  [=(2)] =   -0.93 kcal/mol
DOCKED: USER    
DOCKED: USER    
DOCKED: USER    NEWDPF move ligand.dum.pdbqt
DOCKED: USER    NEWDPF about 0.725000 -0.143000 0.203000
DOCKED: USER    NEWDPF tran0 36.955802 12.481593 121.310605
DOCKED: USER    NEWDPF quaternion0 0.363025 -0.801180 -0.464270 -0.103811
DOCKED: USER    NEWDPF axisangle0 0.364997 -0.805532 -0.466793 -168.082662
DOCKED: USER    NEWDPF quat0 0.364997 -0.805532 -0.466793 -168.082662
DOCKED: USER    NEWDPF dihe0 -180.00 -150.74 71.67 180.00 88.55 
DOCKED: USER  keepresnum = 1 
DOCKED: USER  
DOCKED: REMARK  Name = 
DOCKED: REMARK  5 active torsions:
DOCKED: REMARK  status: ('A' for Active; 'I' for Inactive)
DOCKED: REMARK    1  A    between atoms: O_1  and  N_2
DOCKED: REMARK    2  A    between atoms: C_3  and  C_4
DOCKED: REMARK    3  A    between atoms: C_4  and  C_5
DOCKED: REMARK    4  A    between atoms: C_5  and  C_6
DOCKED: REMARK    5  A    between atoms: C_6  and  C_7
DOCKED: REMARK                            x       y       z     vdW  Elec       q    Type
DOCKED: REMARK                         _______ _______ _______ _____ _____    ______ ____
DOCKED: USER                              x       y       z     vdW  Elec       q    Type
DOCKED: USER                           _______ _______ _______ _____ _____    ______ ____
DOCKED: ROOT
DOCKED: ATOM      1  C   UNL     1      37.006  12.066 121.786 -0.57 -0.00    +0.000 C 
DOCKED: ENDROOT
DOCKED: BRANCH   1   2
DOCKED: ATOM      2  C   UNL     1      35.999  11.018 122.267 -0.64 -0.00    +0.000 C 
DOCKED: BRANCH   2   4
DOCKED: ATOM      3  N   UNL     1      36.605   8.806 123.361 -0.61 -0.00    +0.000 N 
DOCKED: ATOM      4  C   UNL     1      36.600   9.646 122.204 -0.69 -0.00    +0.000 C 
DOCKED: ATOM      5  O   UNL     1      37.064   9.217 121.113 -2.74 -0.00    +0.000 OA
DOCKED: ATOM      6  H   UNL     1      36.218   9.135 124.204 -0.30 -0.00    +0.000 HD
DOCKED: BRANCH   3   7
DOCKED: ATOM      7  O   UNL     1      37.138   7.561 123.307 -2.21 -0.00    +0.000 OA
DOCKED: ATOM      8  H   UNL     1      37.474   7.393 122.412 -0.15 -0.00    +0.000 HD
DOCKED: ENDBRANCH   3   7
DOCKED: ENDBRANCH   2   4
DOCKED: ENDBRANCH   1   2
DOCKED: BRANCH   1   9
DOCKED: ATOM      9  C   UNL     1      37.522  12.911 122.955 -0.55 -0.00    +0.000 C 
DOCKED: BRANCH   9  10
DOCKED: ATOM     10  C   UNL     1      36.669  14.138 123.137 -0.46 -0.00    +0.000 A 
DOCKED: ATOM     11  C   UNL     1      37.001  15.336 122.485 -0.31 -0.00    +0.000 A 
DOCKED: ATOM     12  C   UNL     1      36.226  16.484 122.681 -0.27 -0.00    +0.000 A 
DOCKED: ATOM     13  C   UNL     1      35.121  16.445 123.536 -0.40 -0.00    +0.000 A 
DOCKED: ATOM     14  C   UNL     1      34.791  15.258 124.198 -0.53 -0.00    +0.000 A 
DOCKED: ATOM     15  C   UNL     1      35.564  14.109 124.005 -0.45 -0.00    +0.000 A 
DOCKED: ATOM     16  CM  UNL     1      35.895  15.295 123.341 +0.00 -0.00    +0.000 AC
DOCKED: ENDBRANCH   9  10
DOCKED: ENDBRANCH   1   9
DOCKED: TORSDOF 5DOCKED: TER
DOCKED: ENDMDL
________________________________________________________________________________


	BEGINNING GENETIC ALGORITHM DOCKING 99 of 100
Run: 99 Seed: 421253070 252326225 [ Run 99 of 100 GA/GALS ]
Beginning LAMARCKIAN GENETIC ALGORITHM (LGA), with a maximum of 2500000 energy evaluations.

Final-Value: -10.911


	FINAL GENETIC ALGORITHM DOCKED STATE
	_______________________________________________


Detailed state:  trans 26.237 9.650 119.253 quatxyzw -0.337792 -0.670090 -0.280921 -0.598297 center 0.725 -0.143 0.203 ntor 5 -179.6529 -81.4640 51.4672 166.3040 -29.2098
State:	 26.237   9.650 119.253  -0.422 -0.836 -0.351 -106.504   -179.65  -81.46   51.47  166.30  -29.21

DOCKED: MODEL       99
DOCKED: USER    Run = 99
DOCKED: USER    DPF = ligand_dock.biased.dpf
DOCKED: USER  
DOCKED: USER    Estimated Free Energy of Binding    =   -8.51 kcal/mol  [=(1)+(2)+(3)-(4)]
DOCKED: USER    Estimated Inhibition Constant, Ki   =  575.93 nM (nanomolar)  [Temperature = 298.15 K]
DOCKED: USER    
DOCKED: USER    (1) Final Intermolecular Energy     =  -10.00 kcal/mol
DOCKED: USER        vdW + Hbond + desolv Energy     =  -10.00 kcal/mol
DOCKED: USER        Electrostatic Energy            =   +0.00 kcal/mol
DOCKED: USER    (2) Final Total Internal Energy     =   -0.91 kcal/mol
DOCKED: USER    (3) Torsional Free Energy           =   +1.49 kcal/mol
DOCKED: USER    (4) Unbound System's Energy  [=(2)] =   -0.91 kcal/mol
DOCKED: USER    
DOCKED: USER    
DOCKED: USER    NEWDPF move ligand.dum.pdbqt
DOCKED: USER    NEWDPF about 0.725000 -0.143000 0.203000
DOCKED: USER    NEWDPF tran0 26.237456 9.649820 119.253337
DOCKED: USER    NEWDPF quaternion0 -0.337792 -0.670090 -0.280921 -0.598297
DOCKED: USER    NEWDPF axisangle0 -0.421568 -0.836281 -0.350593 -106.503922
DOCKED: USER    NEWDPF quat0 -0.421568 -0.836281 -0.350593 -106.503922
DOCKED: USER    NEWDPF dihe0 -179.65 -81.46 51.47 166.30 -29.21 
DOCKED: USER  keepresnum = 1 
DOCKED: USER  
DOCKED: REMARK  Name = 
DOCKED: REMARK  5 active torsions:
DOCKED: REMARK  status: ('A' for Active; 'I' for Inactive)
DOCKED: REMARK    1  A    between atoms: O_1  and  N_2
DOCKED: REMARK    2  A    between atoms: C_3  and  C_4
DOCKED: REMARK    3  A    between atoms: C_4  and  C_5
DOCKED: REMARK    4  A    between atoms: C_5  and  C_6
DOCKED: REMARK    5  A    between atoms: C_6  and  C_7
DOCKED: REMARK                            x       y       z     vdW  Elec       q    Type
DOCKED: REMARK                         _______ _______ _______ _____ _____    ______ ____
DOCKED: USER                              x       y       z     vdW  Elec       q    Type
DOCKED: USER                           _______ _______ _______ _____ _____    ______ ____
DOCKED: ROOT
DOCKED: ATOM      1  C   UNL     1      26.761   9.376 119.481 -0.65 +0.00    +0.000 C 
DOCKED: ENDROOT
DOCKED: BRANCH   1   2
DOCKED: ATOM      2  C   UNL     1      27.410   9.521 120.860 -0.69 +0.00    +0.000 C 
DOCKED: BRANCH   2   4
DOCKED: ATOM      3  N   UNL     1      27.284   8.402 123.138 -0.72 -0.00    +0.000 N 
DOCKED: ATOM      4  C   UNL     1      27.075   8.343 121.725 -0.76 -0.00    +0.000 C 
DOCKED: ATOM      5  O   UNL     1      26.570   7.311 121.206 -0.55 -0.00    +0.000 OA
DOCKED: ATOM      6  H   UNL     1      27.655   9.219 123.542 -0.52 -0.00    +0.000 HD
DOCKED: BRANCH   3   7
DOCKED: ATOM      7  O   UNL     1      26.976   7.343 123.925 -1.44 -0.00    +0.000 OA
DOCKED: ATOM      8  H   UNL     1      26.629   6.623 123.375 -0.06 -0.00    +0.000 HD
DOCKED: ENDBRANCH   3   7
DOCKED: ENDBRANCH   2   4
DOCKED: ENDBRANCH   1   2
DOCKED: BRANCH   1   9
DOCKED: ATOM      9  C   UNL     1      27.791   9.573 118.365 -0.70 +0.00    +0.000 C 
DOCKED: BRANCH   9  10
DOCKED: ATOM     10  C   UNL     1      27.404   8.783 117.143 -0.66 +0.00    +0.000 A 
DOCKED: ATOM     11  C   UNL     1      28.088   7.599 116.819 -0.56 -0.00    +0.000 A 
DOCKED: ATOM     12  C   UNL     1      27.749   6.883 115.667 -0.61 -0.00    +0.000 A 
DOCKED: ATOM     13  C   UNL     1      26.733   7.347 114.827 -0.51 -0.00    +0.000 A 
DOCKED: ATOM     14  C   UNL     1      26.056   8.530 115.137 -0.82 -0.00    +0.000 A 
DOCKED: ATOM     15  C   UNL     1      26.392   9.250 116.287 -0.74 +0.00    +0.000 A 
DOCKED: ATOM     16  CM  UNL     1      27.070   8.066 115.980 +0.00 -0.00    +0.000 AC
DOCKED: ENDBRANCH   9  10
DOCKED: ENDBRANCH   1   9
DOCKED: TORSDOF 5DOCKED: TER
DOCKED: ENDMDL
________________________________________________________________________________


	BEGINNING GENETIC ALGORITHM DOCKING 100 of 100
Run: 100 Seed: 714149936 878600965 [ Run 100 of 100 GA/GALS ]
Beginning LAMARCKIAN GENETIC ALGORITHM (LGA), with a maximum of 2500000 energy evaluations.

Final-Value: -11.103


	FINAL GENETIC ALGORITHM DOCKED STATE
	_______________________________________________


Detailed state:  trans 37.715 11.829 122.774 quatxyzw 0.488080 -0.648854 0.522844 0.259617 center 0.725 -0.143 0.203 ntor 5 -179.7830 -178.4515 -56.8401 -9.1582 -25.9132
State:	 37.715  11.829 122.774   0.505 -0.672  0.541 149.905   -179.78 -178.45  -56.84   -9.16  -25.91

DOCKED: MODEL      100
DOCKED: USER    Run = 100
DOCKED: USER    DPF = ligand_dock.biased.dpf
DOCKED: USER  
DOCKED: USER    Estimated Free Energy of Binding    =   -8.75 kcal/mol  [=(1)+(2)+(3)-(4)]
DOCKED: USER    Estimated Inhibition Constant, Ki   =  384.82 nM (nanomolar)  [Temperature = 298.15 K]
DOCKED: USER    
DOCKED: USER    (1) Final Intermolecular Energy     =  -10.24 kcal/mol
DOCKED: USER        vdW + Hbond + desolv Energy     =  -10.24 kcal/mol
DOCKED: USER        Electrostatic Energy            =   +0.00 kcal/mol
DOCKED: USER    (2) Final Total Internal Energy     =   -0.86 kcal/mol
DOCKED: USER    (3) Torsional Free Energy           =   +1.49 kcal/mol
DOCKED: USER    (4) Unbound System's Energy  [=(2)] =   -0.86 kcal/mol
DOCKED: USER    
DOCKED: USER    
DOCKED: USER    NEWDPF move ligand.dum.pdbqt
DOCKED: USER    NEWDPF about 0.725000 -0.143000 0.203000
DOCKED: USER    NEWDPF tran0 37.715145 11.828848 122.773950
DOCKED: USER    NEWDPF quaternion0 0.488080 -0.648854 0.522844 0.259617
DOCKED: USER    NEWDPF axisangle0 0.505410 -0.671892 0.541408 149.905308
DOCKED: USER    NEWDPF quat0 0.505410 -0.671892 0.541408 149.905308
DOCKED: USER    NEWDPF dihe0 -179.78 -178.45 -56.84 -9.16 -25.91 
DOCKED: USER  keepresnum = 1 
DOCKED: USER  
DOCKED: REMARK  Name = 
DOCKED: REMARK  5 active torsions:
DOCKED: REMARK  status: ('A' for Active; 'I' for Inactive)
DOCKED: REMARK    1  A    between atoms: O_1  and  N_2
DOCKED: REMARK    2  A    between atoms: C_3  and  C_4
DOCKED: REMARK    3  A    between atoms: C_4  and  C_5
DOCKED: REMARK    4  A    between atoms: C_5  and  C_6
DOCKED: REMARK    5  A    between atoms: C_6  and  C_7
DOCKED: REMARK                            x       y       z     vdW  Elec       q    Type
DOCKED: REMARK                         _______ _______ _______ _____ _____    ______ ____
DOCKED: USER                              x       y       z     vdW  Elec       q    Type
DOCKED: USER                           _______ _______ _______ _____ _____    ______ ____
DOCKED: ROOT
DOCKED: ATOM      1  C   UNL     1      37.088  11.913 122.760 -0.62 -0.00    +0.000 C 
DOCKED: ENDROOT
DOCKED: BRANCH   1   2
DOCKED: ATOM      2  C   UNL     1      35.972  10.875 122.615 -0.68 -0.00    +0.000 C 
DOCKED: BRANCH   2   4
DOCKED: ATOM      3  N   UNL     1      36.716   8.570 123.379 -0.65 -0.00    +0.000 N 
DOCKED: ATOM      4  C   UNL     1      36.548   9.522 122.326 -0.71 -0.00    +0.000 C 
DOCKED: ATOM      5  O   UNL     1      36.847   9.210 121.142 -2.67 -0.00    +0.000 OA
DOCKED: ATOM      6  H   UNL     1      36.458   8.808 124.298 -0.33 -0.00    +0.000 HD
DOCKED: BRANCH   3   7
DOCKED: ATOM      7  O   UNL     1      37.229   7.342 123.123 -2.06 -0.00    +0.000 OA
DOCKED: ATOM      8  H   UNL     1      37.433   7.269 122.177 -0.15 -0.00    +0.000 HD
DOCKED: ENDBRANCH   3   7
DOCKED: ENDBRANCH   2   4
DOCKED: ENDBRANCH   1   2
DOCKED: BRANCH   1   9
DOCKED: ATOM      9  C   UNL     1      36.899  13.067 121.769 -0.47 -0.00    +0.000 C 
DOCKED: BRANCH   9  10
DOCKED: ATOM     10  C   UNL     1      37.549  14.321 122.289 -0.39 -0.00    +0.000 A 
DOCKED: ATOM     11  C   UNL     1      38.937  14.501 122.170 -0.38 -0.00    +0.000 A 
DOCKED: ATOM     12  C   UNL     1      39.545  15.652 122.681 -0.30 -0.00    +0.000 A 
DOCKED: ATOM     13  C   UNL     1      38.774  16.625 123.323 -0.21 -0.00    +0.000 A 
DOCKED: ATOM     14  C   UNL     1      37.394  16.447 123.456 -0.26 -0.00    +0.000 A 
DOCKED: ATOM     15  C   UNL     1      36.782  15.298 122.947 -0.35 -0.00    +0.000 A 
DOCKED: ATOM     16  CM  UNL     1      38.163  15.474 122.811 +0.00 -0.00    +0.000 AC
DOCKED: ENDBRANCH   9  10
DOCKED: ENDBRANCH   1   9
DOCKED: TORSDOF 5DOCKED: TER
DOCKED: ENDMDL
________________________________________________________________________________

DPF> analysis                             # perform a ranked cluster analysis


		CLUSTER ANALYSIS OF CONFORMATIONS
		_________________________________

Number of conformations = 100

RMSD cluster analysis will be performed using the ligand atoms only (16 / 16 total atoms).

Outputting structurally similar clusters, ranked in order of increasing energy.


________________________________________________________________________________

Number of distinct conformational clusters found = 4,  out of 100 runs,
Using an rmsd-tolerance of 2.0 A


	CLUSTERING HISTOGRAM
	____________________

________________________________________________________________________________
     |           |     |           |     |                                    
Clus | Lowest    | Run | Mean      | Num | Histogram                          
-ter | Binding   |     | Binding   | in  |                                    
Rank | Energy    |     | Energy    | Clus|    5    10   15   20   25   30   35
_____|___________|_____|___________|_____|____:____|____:____|____:____|____:___
   1 |     -9.80 |  56 |     -9.27 |  96 |################################################################################################
   2 |     -8.84 |  69 |     -8.84 |   1 |#
   3 |     -8.73 |  55 |     -8.69 |   2 |##
   4 |     -8.51 |  99 |     -8.51 |   1 |#
_____|___________|_____|___________|_____|______________________________________


Number of multi-member conformational clusters found = 2, out of 100 runs.

	RMSD TABLE
	__________

_____________________________________________________________________
     |      |      |           |         |                 |
Rank | Sub- | Run  | Binding   | Cluster | Reference       | Grep
     | Rank |      | Energy    | RMSD    | RMSD            | Pattern
_____|______|______|___________|_________|_________________|___________
   1      1     56       -9.80      0.00    127.86           RANKING
   1      2      6       -9.71      0.12    127.92           RANKING
   1      3     68       -9.69      0.54    127.95           RANKING
   1      4     16       -9.67      0.57    127.90           RANKING
   1      5     38       -9.64      0.93    127.91           RANKING
   1      6     34       -9.64      0.60    127.98           RANKING
   1      7     45       -9.64      0.45    127.88           RANKING
   1      8     72       -9.63      0.54    127.88           RANKING
   1      9     21       -9.62      0.55    127.82           RANKING
   1     10     89       -9.62      0.54    127.86           RANKING
   1     11     92       -9.61      0.36    127.85           RANKING
   1     12     42       -9.61      0.46    127.92           RANKING
   1     13     90       -9.61      0.66    128.01           RANKING
   1     14     94       -9.57      0.57    127.87           RANKING
   1     15     71       -9.57      0.36    127.92           RANKING
   1     16     29       -9.56      0.68    127.99           RANKING
   1     17     67       -9.55      0.56    127.85           RANKING
   1     18      5       -9.55      0.50    127.93           RANKING
   1     19     77       -9.54      0.43    127.90           RANKING
   1     20     62       -9.54      0.61    127.90           RANKING
   1     21      8       -9.54      0.59    127.80           RANKING
   1     22     53       -9.51      1.00    127.98           RANKING
   1     23     88       -9.51      0.65    127.92           RANKING
   1     24     58       -9.51      0.82    127.99           RANKING
   1     25     54       -9.51      0.62    127.94           RANKING
   1     26     50       -9.49      0.55    127.87           RANKING
   1     27     44       -9.49      0.56    127.82           RANKING
   1     28     84       -9.49      0.48    127.70           RANKING
   1     29      9       -9.49      0.43    127.79           RANKING
   1     30     25       -9.49      0.57    127.79           RANKING
   1     31     51       -9.49      0.72    128.03           RANKING
   1     32     60       -9.48      0.37    127.87           RANKING
   1     33     17       -9.48      0.66    127.96           RANKING
   1     34      7       -9.47      0.61    127.91           RANKING
   1     35     75       -9.47      0.64    127.94           RANKING
   1     36     26       -9.46      0.53    127.88           RANKING
   1     37     33       -9.46      0.45    127.87           RANKING
   1     38     66       -9.45      0.70    128.01           RANKING
   1     39     79       -9.44      0.60    127.73           RANKING
   1     40     59       -9.44      0.62    127.90           RANKING
   1     41     93       -9.42      0.65    127.86           RANKING
   1     42     47       -9.41      0.65    127.86           RANKING
   1     43     48       -9.41      0.60    127.76           RANKING
   1     44     19       -9.41      0.56    127.76           RANKING
   1     45     86       -9.41      0.81    127.89           RANKING
   1     46     14       -9.41      0.67    127.97           RANKING
   1     47     76       -9.41      0.59    127.88           RANKING
   1     48     80       -9.40      0.64    127.84           RANKING
   1     49     98       -9.38      0.63    127.76           RANKING
   1     50      1       -9.38      0.65    127.88           RANKING
   1     51     15       -9.36      0.44    127.78           RANKING
   1     52     20       -9.36      0.71    127.82           RANKING
   1     53     23       -9.35      0.57    127.72           RANKING
   1     54     28       -9.35      0.61    127.85           RANKING
   1     55     87       -9.35      0.62    127.66           RANKING
   1     56     24       -9.32      0.69    127.89           RANKING
   1     57     40       -9.30      1.08    127.97           RANKING
   1     58     37       -9.29      0.82    128.02           RANKING
   1     59     35       -9.26      0.82    127.97           RANKING
   1     60      2       -9.26      0.66    127.89           RANKING
   1     61     95       -9.26      0.76    127.85           RANKING
   1     62     74       -9.24      1.63    127.44           RANKING
   1     63     18       -9.24      0.79    127.89           RANKING
   1     64     83       -9.22      1.64    127.51           RANKING
   1     65     61       -9.16      1.05    128.01           RANKING
   1     66     70       -9.15      1.11    127.99           RANKING
   1     67      4       -9.13      0.95    127.97           RANKING
   1     68      3       -9.12      1.18    127.93           RANKING
   1     69     43       -9.11      1.01    127.86           RANKING
   1     70     32       -9.10      0.80    127.75           RANKING
   1     71     11       -9.08      1.07    127.84           RANKING
   1     72     27       -9.06      1.12    127.92           RANKING
   1     73     10       -9.02      1.71    127.49           RANKING
   1     74     81       -9.00      0.74    127.70           RANKING
   1     75     78       -8.96      1.06    127.78           RANKING
   1     76     41       -8.93      1.34    127.37           RANKING
   1     77     36       -8.90      1.37    127.43           RANKING
   1     78     52       -8.87      0.85    127.63           RANKING
   1     79     85       -8.87      1.42    127.36           RANKING
   1     80     91       -8.87      1.39    127.75           RANKING
   1     81     31       -8.86      1.78    127.39           RANKING
   1     82     13       -8.86      0.82    127.68           RANKING
   1     83     22       -8.83      1.37    127.66           RANKING
   1     84     97       -8.82      1.03    127.84           RANKING
   1     85     57       -8.79      1.42    127.81           RANKING
   1     86     73       -8.78      1.48    127.94           RANKING
   1     87     96       -8.76      1.97    127.34           RANKING
   1     88    100       -8.75      1.35    127.84           RANKING
   1     89     12       -8.70      1.69    127.38           RANKING
   1     90     46       -8.68      1.66    127.82           RANKING
   1     91     64       -8.68      1.76    127.38           RANKING
   1     92     39       -8.68      1.61    127.44           RANKING
   1     93     65       -8.67      1.27    127.73           RANKING
   1     94     49       -8.56      1.39    127.48           RANKING
   1     95     30       -8.51      1.96    126.90           RANKING
   1     96     82       -8.38      1.97    127.23           RANKING
   2      1     69       -8.84      0.00    118.48           RANKING
   3      1     55       -8.73      0.00    126.60           RANKING
   3      2     63       -8.65      1.79    127.29           RANKING
   4      1     99       -8.51      0.00    121.58           RANKING
_______________________________________________________________________



	INFORMATION ENTROPY ANALYSIS FOR THIS CLUSTERING
	________________________________________________


Information entropy for this clustering = 0.05  (rmstol = 2.00 Angstrom)

_______________________________________________________________________


	STATISTICAL MECHANICAL ANALYSIS
	_______________________________


Partition function, Q =   101.57            at Temperature, T = 298.15 K
Free energy,        A ~ -2737.72 kcal/mol   at Temperature, T = 298.15 K
Internal energy,    U =    -9.25 kcal/mol   at Temperature, T = 298.15 K
Entropy,            S =     9.15 kcal/mol/K at Temperature, T = 298.15 K

_______________________________________________________________________


	LOWEST ENERGY DOCKED CONFORMATION from EACH CLUSTER
	___________________________________________________



Keeping original residue number (specified in the input PDBQ file) for outputting.

MODEL       56
USER    Run = 56
USER    Cluster Rank = 1
USER    Number of conformations in this cluster = 96
USER  
USER    RMSD from reference structure       = 127.864 A
USER  
USER    Estimated Free Energy of Binding    =   -9.80 kcal/mol  [=(1)+(2)+(3)-(4)]
USER    Estimated Inhibition Constant, Ki   =   65.67 nM (nanomolar)  [Temperature = 298.15 K]
USER    
USER    (1) Final Intermolecular Energy     =  -11.29 kcal/mol
USER        vdW + Hbond + desolv Energy     =  -11.29 kcal/mol
USER        Electrostatic Energy            =   +0.00 kcal/mol
USER    (2) Final Total Internal Energy     =   -0.75 kcal/mol
USER    (3) Torsional Free Energy           =   +1.49 kcal/mol
USER    (4) Unbound System's Energy  [=(2)] =   -0.75 kcal/mol
USER    
USER    
USER  
USER    DPF = ligand_dock.biased.dpf
USER    NEWDPF move	ligand.dum.pdbqt
USER    NEWDPF about	0.725000 -0.143000 0.203000
USER    NEWDPF tran0	37.623664 12.190381 123.307461
USER    NEWDPF axisangle0	0.631015 -0.758392 -0.163283 107.033936
USER    NEWDPF quaternion0	0.507357 -0.609772 -0.131285 0.594585
USER    NEWDPF dihe0	-147.75 104.33 61.80 84.87 78.93 
USER  
USER                              x       y       z    vdW   Elec        q     RMS 
ATOM      1  C   UNL     1      37.143  11.791 123.206 -0.62 -0.00    +0.000    127.864
ATOM      2  C   UNL     1      36.734  11.072 121.918 -0.61 -0.00    +0.000    127.864
ATOM      3  N   UNL     1      37.057   8.988 123.335 -0.62 -0.00    +0.000    127.864
ATOM      4  C   UNL     1      36.966   9.597 122.044 -0.63 -0.00    +0.000    127.864
ATOM      5  O   UNL     1      37.041   8.884 121.007 -2.70 -0.00    +0.000    127.864
ATOM      6  H   UNL     1      36.973   9.544 124.143 -0.54 -0.00    +0.000    127.864
ATOM      7  O   UNL     1      37.258   7.654 123.456 -2.20 -0.00    +0.000    127.864
ATOM      8  H   UNL     1      37.800   7.341 122.714 -0.39 -0.00    +0.000    127.864
ATOM      9  C   UNL     1      35.943  12.499 123.845 -0.61 -0.00    +0.000    127.864
ATOM     10  C   UNL     1      35.973  13.972 123.536 -0.49 -0.00    +0.000    127.864
ATOM     11  C   UNL     1      34.897  14.796 123.907 -0.48 -0.00    +0.000    127.864
ATOM     12  C   UNL     1      34.912  16.158 123.591 -0.44 -0.00    +0.000    127.864
ATOM     13  C   UNL     1      35.994  16.705 122.895 -0.28 -0.00    +0.000    127.864
ATOM     14  C   UNL     1      37.063  15.888 122.513 -0.27 -0.00    +0.000    127.864
ATOM     15  C   UNL     1      37.052  14.526 122.826 -0.40 -0.00    +0.000    127.864
ATOM     16  CM  UNL     1      35.982  15.341 123.211 +0.00 -0.00    +0.000    127.864
TER
ENDMDL
MODEL       69
USER    Run = 69
USER    Cluster Rank = 2
USER    Number of conformations in this cluster = 1
USER  
USER    RMSD from reference structure       = 118.483 A
USER  
USER    Estimated Free Energy of Binding    =   -8.84 kcal/mol  [=(1)+(2)+(3)-(4)]
USER    Estimated Inhibition Constant, Ki   =  333.84 nM (nanomolar)  [Temperature = 298.15 K]
USER    
USER    (1) Final Intermolecular Energy     =  -10.33 kcal/mol
USER        vdW + Hbond + desolv Energy     =  -10.33 kcal/mol
USER        Electrostatic Energy            =   +0.00 kcal/mol
USER    (2) Final Total Internal Energy     =   -0.83 kcal/mol
USER    (3) Torsional Free Energy           =   +1.49 kcal/mol
USER    (4) Unbound System's Energy  [=(2)] =   -0.83 kcal/mol
USER    
USER    
USER  
USER    DPF = ligand_dock.biased.dpf
USER    NEWDPF move	ligand.dum.pdbqt
USER    NEWDPF about	0.725000 -0.143000 0.203000
USER    NEWDPF tran0	28.617597 6.950956 117.133165
USER    NEWDPF axisangle0	0.155894 -0.354605 0.921928 -108.678540
USER    NEWDPF quaternion0	0.126662 -0.288111 0.749051 -0.582984
USER    NEWDPF dihe0	-144.86 -176.08 -169.57 132.26 36.72 
USER  
USER                              x       y       z    vdW   Elec        q     RMS 
ATOM      1  C   UNL     1      28.427   7.372 116.701 -0.59 -0.00    +0.000    118.483
ATOM      2  C   UNL     1      27.573   8.630 116.882 -0.72 +0.00    +0.000    118.483
ATOM      3  N   UNL     1      25.081   8.177 116.685 -0.66 -0.00    +0.000    118.483
ATOM      4  C   UNL     1      26.319   8.535 116.066 -0.87 -0.00    +0.000    118.483
ATOM      5  O   UNL     1      26.352   8.812 114.837 -1.50 -0.00    +0.000    118.483
ATOM      6  H   UNL     1      25.055   7.986 117.649 -0.04 -0.00    +0.000    118.483
ATOM      7  O   UNL     1      23.943   8.098 115.953 -1.40 -0.00    +0.000    118.483
ATOM      8  H   UNL     1      24.152   7.763 115.067 -0.38 -0.00    +0.000    118.483
ATOM      9  C   UNL     1      27.892   6.504 115.558 -0.71 -0.00    +0.000    118.483
ATOM     10  C   UNL     1      28.041   5.043 115.891 -0.62 -0.00    +0.000    118.483
ATOM     11  C   UNL     1      28.455   4.130 114.906 -0.62 -0.00    +0.000    118.483
ATOM     12  C   UNL     1      28.562   2.769 115.208 -0.51 +0.00    +0.000    118.483
ATOM     13  C   UNL     1      28.247   2.309 116.490 -0.55 +0.00    +0.000    118.483
ATOM     14  C   UNL     1      27.823   3.210 117.471 -0.62 -0.00    +0.000    118.483
ATOM     15  C   UNL     1      27.714   4.571 117.174 -0.54 -0.00    +0.000    118.483
ATOM     16  CM  UNL     1      28.140   3.672 116.190 +0.00 +0.00    +0.000    118.483
TER
ENDMDL
MODEL       55
USER    Run = 55
USER    Cluster Rank = 3
USER    Number of conformations in this cluster = 2
USER  
USER    RMSD from reference structure       = 126.601 A
USER  
USER    Estimated Free Energy of Binding    =   -8.73 kcal/mol  [=(1)+(2)+(3)-(4)]
USER    Estimated Inhibition Constant, Ki   =  396.74 nM (nanomolar)  [Temperature = 298.15 K]
USER    
USER    (1) Final Intermolecular Energy     =  -10.22 kcal/mol
USER        vdW + Hbond + desolv Energy     =  -10.22 kcal/mol
USER        Electrostatic Energy            =   +0.00 kcal/mol
USER    (2) Final Total Internal Energy     =   -0.98 kcal/mol
USER    (3) Torsional Free Energy           =   +1.49 kcal/mol
USER    (4) Unbound System's Energy  [=(2)] =   -0.98 kcal/mol
USER    
USER    
USER  
USER    DPF = ligand_dock.biased.dpf
USER    NEWDPF move	ligand.dum.pdbqt
USER    NEWDPF about	0.725000 -0.143000 0.203000
USER    NEWDPF tran0	37.831174 11.769711 122.772673
USER    NEWDPF axisangle0	0.508832 -0.813825 0.280675 150.040510
USER    NEWDPF quaternion0	0.491540 -0.786169 0.271137 0.258478
USER    NEWDPF dihe0	-177.82 -179.96 -25.25 122.36 84.99 
USER  
USER                              x       y       z    vdW   Elec        q     RMS 
ATOM      1  C   UNL     1      37.238  11.804 122.993 -0.56 -0.00    +0.000    126.601
ATOM      2  C   UNL     1      36.058  10.860 122.750 -0.69 -0.00    +0.000    126.601
ATOM      3  N   UNL     1      36.641   8.474 123.399 -0.66 -0.00    +0.000    126.601
ATOM      4  C   UNL     1      36.546   9.488 122.396 -0.72 -0.00    +0.000    126.601
ATOM      5  O   UNL     1      36.835   9.218 121.198 -2.67 -0.00    +0.000    126.601
ATOM      6  H   UNL     1      36.390   8.682 124.327 -0.29 -0.00    +0.000    126.601
ATOM      7  O   UNL     1      37.074   7.230 123.082 -2.05 -0.00    +0.000    126.601
ATOM      8  H   UNL     1      37.311   7.201 122.142 -0.14 -0.00    +0.000    126.601
ATOM      9  C   UNL     1      36.840  13.261 122.737 -0.56 -0.00    +0.000    126.601
ATOM     10  C   UNL     1      37.196  13.667 121.331 -0.36 -0.00    +0.000    126.601
ATOM     11  C   UNL     1      37.545  14.997 121.045 -0.26 -0.00    +0.000    126.601
ATOM     12  C   UNL     1      37.845  15.380 119.733 -0.19 -0.00    +0.000    126.601
ATOM     13  C   UNL     1      37.789  14.441 118.699 -0.26 -0.00    +0.000    126.601
ATOM     14  C   UNL     1      37.430  13.118 118.976 -0.39 -0.00    +0.000    126.601
ATOM     15  C   UNL     1      37.129  12.731 120.285 -0.43 -0.00    +0.000    126.601
ATOM     16  CM  UNL     1      37.489  14.055 120.012 +0.00 -0.00    +0.000    126.601
TER
ENDMDL
MODEL       99
USER    Run = 99
USER    Cluster Rank = 4
USER    Number of conformations in this cluster = 1
USER  
USER    RMSD from reference structure       = 121.578 A
USER  
USER    Estimated Free Energy of Binding    =   -8.51 kcal/mol  [=(1)+(2)+(3)-(4)]
USER    Estimated Inhibition Constant, Ki   =  575.93 nM (nanomolar)  [Temperature = 298.15 K]
USER    
USER    (1) Final Intermolecular Energy     =  -10.00 kcal/mol
USER        vdW + Hbond + desolv Energy     =  -10.00 kcal/mol
USER        Electrostatic Energy            =   +0.00 kcal/mol
USER    (2) Final Total Internal Energy     =   -0.91 kcal/mol
USER    (3) Torsional Free Energy           =   +1.49 kcal/mol
USER    (4) Unbound System's Energy  [=(2)] =   -0.91 kcal/mol
USER    
USER    
USER  
USER    DPF = ligand_dock.biased.dpf
USER    NEWDPF move	ligand.dum.pdbqt
USER    NEWDPF about	0.725000 -0.143000 0.203000
USER    NEWDPF tran0	26.237456 9.649820 119.253337
USER    NEWDPF axisangle0	-0.421568 -0.836281 -0.350593 -106.503922
USER    NEWDPF quaternion0	-0.337792 -0.670090 -0.280921 -0.598297
USER    NEWDPF dihe0	-179.65 -81.46 51.47 166.30 -29.21 
USER  
USER                              x       y       z    vdW   Elec        q     RMS 
ATOM      1  C   UNL     1      26.761   9.376 119.481 -0.65 +0.00    +0.000    121.578
ATOM      2  C   UNL     1      27.410   9.521 120.860 -0.69 +0.00    +0.000    121.578
ATOM      3  N   UNL     1      27.284   8.402 123.138 -0.72 -0.00    +0.000    121.578
ATOM      4  C   UNL     1      27.075   8.343 121.725 -0.76 -0.00    +0.000    121.578
ATOM      5  O   UNL     1      26.570   7.311 121.206 -0.55 -0.00    +0.000    121.578
ATOM      6  H   UNL     1      27.655   9.219 123.542 -0.52 -0.00    +0.000    121.578
ATOM      7  O   UNL     1      26.976   7.343 123.925 -1.44 -0.00    +0.000    121.578
ATOM      8  H   UNL     1      26.629   6.623 123.375 -0.06 -0.00    +0.000    121.578
ATOM      9  C   UNL     1      27.791   9.573 118.365 -0.70 +0.00    +0.000    121.578
ATOM     10  C   UNL     1      27.404   8.783 117.143 -0.66 +0.00    +0.000    121.578
ATOM     11  C   UNL     1      28.088   7.599 116.819 -0.56 -0.00    +0.000    121.578
ATOM     12  C   UNL     1      27.749   6.883 115.667 -0.61 -0.00    +0.000    121.578
ATOM     13  C   UNL     1      26.733   7.347 114.827 -0.51 -0.00    +0.000    121.578
ATOM     14  C   UNL     1      26.056   8.530 115.137 -0.82 -0.00    +0.000    121.578
ATOM     15  C   UNL     1      26.392   9.250 116.287 -0.74 +0.00    +0.000    121.578
ATOM     16  CM  UNL     1      27.070   8.066 115.980 +0.00 -0.00    +0.000    121.578
TER
ENDMDL


AVSFLD: # AVS field file
AVSFLD: #
AVSFLD: # Created by AutoDock
AVSFLD: #
AVSFLD: ndim=2           # number of dimensions in the field
AVSFLD: nspace=1         # number of physical coordinates
AVSFLD: veclen=7         # vector size
AVSFLD: dim1=16          # atoms
AVSFLD: dim2=4           # conformations
AVSFLD: data=Real       # data type (byte,integer,Real,double)
AVSFLD: field=uniform    # field coordinate layout
AVSFLD: label= x y z vdW Elec q RMS
AVSFLD: variable 1 file = ligand_dock.biased.dlg.pdb filetype = ascii offset = 5 stride = 12
AVSFLD: variable 2 file = ligand_dock.biased.dlg.pdb filetype = ascii offset = 6 stride = 12
AVSFLD: variable 3 file = ligand_dock.biased.dlg.pdb filetype = ascii offset = 7 stride = 12
AVSFLD: variable 4 file = ligand_dock.biased.dlg.pdb filetype = ascii offset = 8 stride = 12
AVSFLD: variable 5 file = ligand_dock.biased.dlg.pdb filetype = ascii offset = 9 stride = 12
AVSFLD: variable 6 file = ligand_dock.biased.dlg.pdb filetype = ascii offset = 10 stride = 12
AVSFLD: variable 7 file = ligand_dock.biased.dlg.pdb filetype = ascii offset = 11 stride = 12
AVSFLD: # end of file

>>> Closing the docking parameter file (DPF)...
This docking finished at:			6:47 04" p.m., 11/08/2024


________________________________________________________________________________

autodock4: Successful Completion on "ThinkStation-P620"

Real= 7m 57.20s,  CPU= 7m 56.92s,  System= 0.19s
________________________________________________________________________________

