REMARK  Name = 
REMARK  11 active torsions:
REMARK  status: ('A' for Active; 'I' for Inactive)
REMARK    1  A    between atoms: C_2  and  O_3
REMARK    2  A    between atoms: O_3  and  C_4
REMARK    3  A    between atoms: C_4  and  C_5
REMARK    4  A    between atoms: C_10  and  C_11
REMARK    5  A    between atoms: C_11  and  N_12
REMARK    6  A    between atoms: N_12  and  C_13
REMARK    7  A    between atoms: N_12  and  C_15
REMARK    8  A    between atoms: C_13  and  C_14
REMARK    9  A    between atoms: C_15  and  C_16
REMARK   10  A    between atoms: N_21  and  C_22
REMARK   11  A    between atoms: C_25  and  C_26
REMARK                            x       y       z     vdW  Elec       q    Type
REMARK                         _______ _______ _______ _____ _____    ______ ____
ROOT
ATOM      1  C   UNL     1       1.787   3.974   0.268  0.00  0.00    +0.000 C 
ENDROOT
BRANCH   1   2
ATOM      2  C   UNL     1       0.675   3.012  -0.052  0.00  0.00    +0.000 A 
ATOM      3  C   UNL     1       0.353   2.712  -1.385  0.00  0.00    +0.000 A 
ATOM      4  C   UNL     1      -0.666   1.802  -1.680  0.00  0.00    +0.000 A 
ATOM      5  C   UNL     1      -1.375   1.177  -0.644  0.00  0.00    +0.000 A 
ATOM      6  C   UNL     1      -2.396   0.258  -0.931  0.00  0.00    +0.000 A 
ATOM      7  C   UNL     1      -3.099  -0.369   0.109  0.00  0.00    +0.000 A 
ATOM      8  C   UNL     1      -2.781  -0.065   1.442  0.00  0.00    +0.000 A 
ATOM      9  C   UNL     1      -1.766   0.849   1.737  0.00  0.00    +0.000 A 
ATOM     10  C   UNL     1      -1.057   1.474   0.702  0.00  0.00    +0.000 A 
ATOM     11  C   UNL     1      -0.034   2.391   0.988  0.00  0.00    +0.000 A 
BRANCH   7  12
ATOM     12  C   UNL     1      -4.205  -1.342  -0.210  0.00  0.00    +0.000 C 
BRANCH  12  13
ATOM     13  N   UNL     1      -5.357  -0.651  -0.829  0.00  0.00    +0.000 N 
ATOM     14  H   UNL     1      -4.907  -0.053  -1.522  0.00  0.00    +0.000 HD
BRANCH  13  15
ATOM     15  C   UNL     1      -6.244  -1.511  -1.648  0.00  0.00    +0.000 C 
ATOM     16  C   UNL     1      -6.542  -2.890  -1.037  0.00  0.00    +0.000 C 
ENDBRANCH  13  15
BRANCH  13  17
ATOM     17  C   UNL     1      -6.059   0.323   0.041  0.00  0.00    +0.000 C 
ATOM     18  C   UNL     1      -6.917  -0.314   1.137  0.00  0.00    +0.000 C 
ENDBRANCH  13  17
ENDBRANCH  12  13
ENDBRANCH   7  12
ENDBRANCH   1   2
BRANCH   1  19
ATOM     19  O   UNL     1       2.843   3.305   0.956  0.00  0.00    +0.000 OA
BRANCH  19  21
ATOM     20  O   UNL     1       3.552   2.089  -0.876  0.00  0.00    +0.000 OA
ATOM     21  C   UNL     1       3.671   2.352   0.353  0.00  0.00    +0.000 C 
ATOM     22  N   UNL     1       4.683   1.710   1.139  0.00  0.00    +0.000 N 
ATOM     23  H   UNL     1       4.890   2.092   2.022  0.00  0.00    +0.000 HD
BRANCH  22  24
ATOM     24  C   UNL     1       5.415   0.545   0.722  0.00  0.00    +0.000 A 
ATOM     25  C   UNL     1       6.731   0.364   1.167  0.00  0.00    +0.000 A 
ATOM     26  C   UNL     1       7.456  -0.774   0.799  0.00  0.00    +0.000 A 
ATOM     27  C   UNL     1       6.871  -1.761  -0.013  0.00  0.00    +0.000 A 
ATOM     28  C   UNL     1       5.539  -1.594  -0.430  0.00  0.00    +0.000 A 
ATOM     29  C   UNL     1       4.816  -0.454  -0.066  0.00  0.00    +0.000 A 
BRANCH  27  30
ATOM     30  C   UNL     1       7.622  -2.981  -0.401  0.00  0.00    +0.000 C 
ATOM     31  N   UNL     1       9.053  -2.997  -0.432  0.00  0.00    +0.000 N 
ATOM     32  O   UNL     1       9.714  -4.149  -0.690  0.00  0.00    +0.000 OA
ATOM     33  O   UNL     1       6.989  -4.023  -0.725  0.00  0.00    +0.000 OA
ATOM     34  H   UNL     1       9.558  -2.168  -0.265  0.00  0.00    +0.000 HD
ENDBRANCH  27  30
ENDBRANCH  22  24
ENDBRANCH  19  21
ENDBRANCH   1  19
TORSDOF 9
