          AutoDock 4.2 Release 4.2.6   
         (C) 1989-2012 The Scripps Research Institute
        AutoDock comes with ABSOLUTELY NO WARRANTY.
        AutoDock is free software, and you are welcome
        to redistribute it under certain conditions;
        for details type 'autodock4 -C'

                     main.cc  $Revision: 1.213 $

                   Compiled on Feb 20 2022 at 09:48:33


This file was created at:			11:05 18" a.m., 11/08/2024
                   on host:		"ThinkStation-P620"
Current Working Directory = "/home/antonio/Documenti/buccheri/IDROSSAMICO HDAC/HDAC 2/DP/Ligand_7"

      ________________________________________________________________

                   SETTING UP DEFAULT PARAMETER LIBRARY
      ________________________________________________________________


Random number generator was seeded with values 333846, 1731060318.
Docking parameter file (DPF) used for this docking:		ligand_dock.biased.dpf
DPF> autodock_parameter_version 4.2       # used by autodock to validate parameter set

	Autodock parameter version 4.2.
DPF> outlev 1                             # diagnostic output level

Output Level = 1  ADT-COMPATIBLE OUTPUT DURING DOCKING.
DPF> intelec                              # calculate internal electrostatics

Electrostatic energies will be calculated for all non-bonds between moving atoms.
DPF> seed pid time                        # seeds for random generator

Random number generator was seeded with values 333846, 1731060318.
DPF> ligand_types A C OA HD N             # atoms types in ligand

DPF> fld receptor.maps.fld                # grid_data_file

Opening Grid Map Dimensions file:		receptor.maps.fld
Grid Point Spacing =				0.375 Angstroms

Even Number of User-specified Grid Points =	70 x-points
						70 y-points
						70 z-points

Coordinates of Central Grid Point of Maps =	(24.757, -16.735, 0.794)
Macromolecule file used to create Grid Maps =	receptor.pdbqt
Grid Parameter file used to create Grid Maps =	receptor.gpf
Minimum coordinates in grid = (11.632, -29.860, -12.331)
Maximum coordinates in grid = (37.882, -3.610, 13.919)

DPF> map receptor.A.map                   # atom-specific affinity map

DPF> map receptor.C.map                   # atom-specific affinity map

DPF> map receptor.OA.biased.map

DPF> map receptor.HD.biased.map

DPF> map receptor.N.map                   # atom-specific affinity map

DPF> elecmap receptor.e.map               # electrostatics map

DPF> desolvmap receptor.d.map             # desolvation map

DPF> move ligand.pdbqt                    # small molecule

1,4-interactions will be _ignored_ in the non-bonded internal energy calculation.

Ligand PDBQT file = "ligand.pdbqt"

INPUT LIGAND PDBQT FILE:
________________________

INPUT-LIGAND-PDBQT: REMARK  Name = 
INPUT-LIGAND-PDBQT: REMARK  11 active torsions:
INPUT-LIGAND-PDBQT: REMARK  status: ('A' for Active; 'I' for Inactive)
INPUT-LIGAND-PDBQT: REMARK    1  A    between atoms: C_2  and  O_3
INPUT-LIGAND-PDBQT: REMARK    2  A    between atoms: O_3  and  C_4
INPUT-LIGAND-PDBQT: REMARK    3  A    between atoms: C_4  and  C_5
INPUT-LIGAND-PDBQT: REMARK    4  A    between atoms: C_10  and  C_11
INPUT-LIGAND-PDBQT: REMARK    5  A    between atoms: C_11  and  N_12
INPUT-LIGAND-PDBQT: REMARK    6  A    between atoms: N_12  and  C_13
INPUT-LIGAND-PDBQT: REMARK    7  A    between atoms: N_12  and  C_15
INPUT-LIGAND-PDBQT: REMARK    8  A    between atoms: C_13  and  C_14
INPUT-LIGAND-PDBQT: REMARK    9  A    between atoms: C_15  and  C_16
INPUT-LIGAND-PDBQT: REMARK   10  A    between atoms: N_21  and  C_22
INPUT-LIGAND-PDBQT: REMARK   11  A    between atoms: C_25  and  C_26
INPUT-LIGAND-PDBQT: REMARK                            x       y       z     vdW  Elec       q    Type
INPUT-LIGAND-PDBQT: REMARK                         _______ _______ _______ _____ _____    ______ ____
INPUT-LIGAND-PDBQT: ROOT
INPUT-LIGAND-PDBQT: ATOM      1  C   UNL     1       1.787   3.974   0.268  0.00  0.00    +0.000 C 
INPUT-LIGAND-PDBQT: ENDROOT
INPUT-LIGAND-PDBQT: BRANCH   1   2
INPUT-LIGAND-PDBQT: ATOM      2  C   UNL     1       0.675   3.012  -0.052  0.00  0.00    +0.000 A 
INPUT-LIGAND-PDBQT: ATOM      3  C   UNL     1       0.353   2.712  -1.385  0.00  0.00    +0.000 A 
INPUT-LIGAND-PDBQT: ATOM      4  C   UNL     1      -0.666   1.802  -1.680  0.00  0.00    +0.000 A 
INPUT-LIGAND-PDBQT: ATOM      5  C   UNL     1      -1.375   1.177  -0.644  0.00  0.00    +0.000 A 
INPUT-LIGAND-PDBQT: ATOM      6  C   UNL     1      -2.396   0.258  -0.931  0.00  0.00    +0.000 A 
INPUT-LIGAND-PDBQT: ATOM      7  C   UNL     1      -3.099  -0.369   0.109  0.00  0.00    +0.000 A 
INPUT-LIGAND-PDBQT: ATOM      8  C   UNL     1      -2.781  -0.065   1.442  0.00  0.00    +0.000 A 
INPUT-LIGAND-PDBQT: ATOM      9  C   UNL     1      -1.766   0.849   1.737  0.00  0.00    +0.000 A 
INPUT-LIGAND-PDBQT: ATOM     10  C   UNL     1      -1.057   1.474   0.702  0.00  0.00    +0.000 A 
INPUT-LIGAND-PDBQT: ATOM     11  C   UNL     1      -0.034   2.391   0.988  0.00  0.00    +0.000 A 
INPUT-LIGAND-PDBQT: BRANCH   7  12
INPUT-LIGAND-PDBQT: ATOM     12  C   UNL     1      -4.205  -1.342  -0.210  0.00  0.00    +0.000 C 
INPUT-LIGAND-PDBQT: BRANCH  12  13
INPUT-LIGAND-PDBQT: ATOM     13  N   UNL     1      -5.357  -0.651  -0.829  0.00  0.00    +0.000 N 
INPUT-LIGAND-PDBQT: ATOM     14  H   UNL     1      -4.907  -0.053  -1.522  0.00  0.00    +0.000 HD
INPUT-LIGAND-PDBQT: BRANCH  13  15
INPUT-LIGAND-PDBQT: ATOM     15  C   UNL     1      -6.244  -1.511  -1.648  0.00  0.00    +0.000 C 
INPUT-LIGAND-PDBQT: ATOM     16  C   UNL     1      -6.542  -2.890  -1.037  0.00  0.00    +0.000 C 
INPUT-LIGAND-PDBQT: ENDBRANCH  13  15
INPUT-LIGAND-PDBQT: BRANCH  13  17
INPUT-LIGAND-PDBQT: ATOM     17  C   UNL     1      -6.059   0.323   0.041  0.00  0.00    +0.000 C 
INPUT-LIGAND-PDBQT: ATOM     18  C   UNL     1      -6.917  -0.314   1.137  0.00  0.00    +0.000 C 
INPUT-LIGAND-PDBQT: ENDBRANCH  13  17
INPUT-LIGAND-PDBQT: ENDBRANCH  12  13
INPUT-LIGAND-PDBQT: ENDBRANCH   7  12
INPUT-LIGAND-PDBQT: ENDBRANCH   1   2
INPUT-LIGAND-PDBQT: BRANCH   1  19
INPUT-LIGAND-PDBQT: ATOM     19  O   UNL     1       2.843   3.305   0.956  0.00  0.00    +0.000 OA
INPUT-LIGAND-PDBQT: BRANCH  19  21
INPUT-LIGAND-PDBQT: ATOM     20  O   UNL     1       3.552   2.089  -0.876  0.00  0.00    +0.000 OA
INPUT-LIGAND-PDBQT: ATOM     21  C   UNL     1       3.671   2.352   0.353  0.00  0.00    +0.000 C 
INPUT-LIGAND-PDBQT: ATOM     22  N   UNL     1       4.683   1.710   1.139  0.00  0.00    +0.000 N 
INPUT-LIGAND-PDBQT: ATOM     23  H   UNL     1       4.890   2.092   2.022  0.00  0.00    +0.000 HD
INPUT-LIGAND-PDBQT: BRANCH  22  24
INPUT-LIGAND-PDBQT: ATOM     24  C   UNL     1       5.415   0.545   0.722  0.00  0.00    +0.000 A 
INPUT-LIGAND-PDBQT: ATOM     25  C   UNL     1       6.731   0.364   1.167  0.00  0.00    +0.000 A 
INPUT-LIGAND-PDBQT: ATOM     26  C   UNL     1       7.456  -0.774   0.799  0.00  0.00    +0.000 A 
INPUT-LIGAND-PDBQT: ATOM     27  C   UNL     1       6.871  -1.761  -0.013  0.00  0.00    +0.000 A 
INPUT-LIGAND-PDBQT: ATOM     28  C   UNL     1       5.539  -1.594  -0.430  0.00  0.00    +0.000 A 
INPUT-LIGAND-PDBQT: ATOM     29  C   UNL     1       4.816  -0.454  -0.066  0.00  0.00    +0.000 A 
INPUT-LIGAND-PDBQT: BRANCH  27  30
INPUT-LIGAND-PDBQT: ATOM     30  C   UNL     1       7.622  -2.981  -0.401  0.00  0.00    +0.000 C 
INPUT-LIGAND-PDBQT: ATOM     31  N   UNL     1       9.053  -2.997  -0.432  0.00  0.00    +0.000 N 
INPUT-LIGAND-PDBQT: ATOM     32  O   UNL     1       9.714  -4.149  -0.690  0.00  0.00    +0.000 OA
INPUT-LIGAND-PDBQT: ATOM     33  O   UNL     1       6.989  -4.023  -0.725  0.00  0.00    +0.000 OA
INPUT-LIGAND-PDBQT: ATOM     34  H   UNL     1       9.558  -2.168  -0.265  0.00  0.00    +0.000 HD
INPUT-LIGAND-PDBQT: ENDBRANCH  27  30
INPUT-LIGAND-PDBQT: ENDBRANCH  22  24
INPUT-LIGAND-PDBQT: ENDBRANCH  19  21
INPUT-LIGAND-PDBQT: ENDBRANCH   1  19
INPUT-LIGAND-PDBQT: TORSDOF 9
________________________________________________________________________________

Total charge on ligand                               =	+0.000 e
REMARK  Name = 
REMARK  11 active torsions:
REMARK  status: ('A' for Active; 'I' for Inactive)
REMARK    1  A    between atoms: C_2  and  O_3
REMARK    2  A    between atoms: O_3  and  C_4
REMARK    3  A    between atoms: C_4  and  C_5
REMARK    4  A    between atoms: C_10  and  C_11
REMARK    5  A    between atoms: C_11  and  N_12
REMARK    6  A    between atoms: N_12  and  C_13
REMARK    7  A    between atoms: N_12  and  C_15
REMARK    8  A    between atoms: C_13  and  C_14
REMARK    9  A    between atoms: C_15  and  C_16
REMARK   10  A    between atoms: N_21  and  C_22
REMARK   11  A    between atoms: C_25  and  C_26
REMARK                            x       y       z     vdW  Elec       q    Type
REMARK                         _______ _______ _______ _____ _____    ______ ____


Number of Rotatable Bonds in Small Molecule =	9 torsions
Number of atoms in ligand:  34

Number of non-hydrogen atoms in ligand:  31

Number of vibrational degrees of freedom of ligand:  96


Number of torsional degrees of freedom = 9
Estimated loss of torsional free energy upon binding = +2.6847 kcal/mol


DPF> about 1.436 0.069 -0.007            # small molecule center

Small molecule center of rotation =	(+1.436, +0.069, -0.007)

DPF> tran0 random                         # initial coordinates/A or random

Initial translation =			(35.072, -14.031, 3.931) Angstroms
DPF> quaternion0 random                   # initial orientation

Each run will begin with a new, random initial orientation.
Initial quaternion,  (x,y,z,w) =	( -0.111, -0.263, -0.942, 0.177 ),
DPF> dihe0 random                         # initial dihedrals (relative) or random

DPF> torsdof 9                            # torsional degrees of freedom

Number of torsional degrees of freedom = 9
Free energy coefficient for torsional degrees of freedom = 0.2983, the factory default value.

Estimated loss of torsional free energy upon binding = +2.6847 kcal/mol

DPF> rmstol 2.0                           # cluster_tolerance/A

Maximum RMS tolerance for conformational cluster analysis = 2.00 Angstroms
DPF> extnrg 1000.0                        # external grid energy

External grid energy (beyond grid map walls) = 1000.00

DPF> e0max 0.0 10000                      # max initial energy; max number of retries

Using user-specified maximum number of retries for simanneal initialization, 10000 retries.
If the simanneal initial energy is greater than e0max, 0.000,
then a new, random initial state will be created.

DPF> ga_pop_size 150                      # number of individuals in population

A population of 150 individuals will be used
DPF> ga_num_evals 2500000                 # maximum number of energy evaluations

There will be at most 2500000 function evaluations used.
DPF> ga_num_generations 27000             # maximum number of generations

The GA will run for at most 27000 generations.
DPF> ga_elitism 1                         # number of top individuals to survive to next generation

The 1 best will be preserved each GA generation.
DPF> ga_mutation_rate 0.02                # rate of gene mutation

The mutation rate is 0.020000.
DPF> ga_crossover_rate 0.8                # rate of crossover

The crossover rate is 0.800000.
DPF> ga_window_size 10                    # 

The GA's selection window is 10 generations.
DPF> ga_cauchy_alpha 0.0                  # Alpha parameter of Cauchy distribution

The alpha parameter (for the Cauchy distribution) is being set to 0.000000.
DPF> ga_cauchy_beta 1.0                   # Beta parameter Cauchy distribution

The beta parameter (for the Cauchy distribution) is being set to 1.000000.
DPF> set_ga                               # set the above parameters for GA or LGA

DPF> sw_max_its 300                       # iterations of Solis & Wets local search

Solis & Wets algorithms will perform at most 300 iterations.
DPF> sw_max_succ 4                        # consecutive successes before changing rho

Solis & Wets algorithms expand rho every 4 in a row successes.
DPF> sw_max_fail 4                        # consecutive failures before changing rho

Solis & Wets algorithms contract rho every 4 in a row failures.
DPF> sw_rho 1.0                           # size of local search space to sample

rho is set to 1.000000.
DPF> sw_lb_rho 0.01                       # lower bound on rho

rho will never get smaller than 0.010000.
DPF> ls_search_freq 0.06                  # probability of performing local search on individual

Local search will be performed with frequency 0.060000.
DPF> set_psw1                             # set the above pseudo-Solis & Wets parameters

Creating a new Local Search object using the pseudo-Solis-Wets algorithm (pSW1) with the current settings.

DPF> unbound_model bound                  # state of unbound ligand

DPF> ga_run 100

centering ligand on specified point: 1.436 0.069 -0.007
Furthest true ligand atom from "about" center is 9.316 Angstroms (maxrad).
Number of requested GA dockings = 100 runs
Unbound model to be used is 'same as bound' [AutoDock 4.2 default].

	BEGINNING GENETIC ALGORITHM DOCKING 1 of 100
Run: 1 Seed: 1283300695 497536213 [ Run 1 of 100 GA/GALS ]
Beginning LAMARCKIAN GENETIC ALGORITHM (LGA), with a maximum of 2500000 energy evaluations.

Final-Value: -15.378


	FINAL GENETIC ALGORITHM DOCKED STATE
	_______________________________________________


Detailed state:  trans 27.314 -16.577 -4.443 quatxyzw -0.404586 0.374684 0.406798 0.728311 center 1.436 0.069 -0.007 ntor 9 34.7894 46.3468 107.6644 -68.6055 -1.7473 162.8106 -116.2629 -156.2265 82.4762
State:	 27.314 -16.577  -4.443  -0.590  0.547  0.594 86.510     34.79   46.35  107.66  -68.61   -1.75  162.81 -116.26 -156.23   82.48

DOCKED: MODEL        1
DOCKED: USER    Run = 1
DOCKED: USER    DPF = ligand_dock.biased.dpf
DOCKED: USER  
DOCKED: USER    Estimated Free Energy of Binding    =  -10.97 kcal/mol  [=(1)+(2)+(3)-(4)]
DOCKED: USER    Estimated Inhibition Constant, Ki   =    9.09 nM (nanomolar)  [Temperature = 298.15 K]
DOCKED: USER    
DOCKED: USER    (1) Final Intermolecular Energy     =  -13.65 kcal/mol
DOCKED: USER        vdW + Hbond + desolv Energy     =  -13.65 kcal/mol
DOCKED: USER        Electrostatic Energy            =   +0.00 kcal/mol
DOCKED: USER    (2) Final Total Internal Energy     =   -1.72 kcal/mol
DOCKED: USER    (3) Torsional Free Energy           =   +2.68 kcal/mol
DOCKED: USER    (4) Unbound System's Energy  [=(2)] =   -1.72 kcal/mol
DOCKED: USER    
DOCKED: USER    
DOCKED: USER    NEWDPF move ligand.pdbqt
DOCKED: USER    NEWDPF about 1.436000 0.069000 -0.007000
DOCKED: USER    NEWDPF tran0 27.314172 -16.577009 -4.443233
DOCKED: USER    NEWDPF quaternion0 -0.404586 0.374684 0.406798 0.728311
DOCKED: USER    NEWDPF axisangle0 -0.590424 0.546788 0.593652 86.509961
DOCKED: USER    NEWDPF quat0 -0.590424 0.546788 0.593652 86.509961
DOCKED: USER    NEWDPF dihe0 34.79 46.35 107.66 -68.61 -1.75 162.81 -116.26 -156.23 82.48 
DOCKED: USER  keepresnum = 1 
DOCKED: USER  
DOCKED: REMARK  Name = 
DOCKED: REMARK  11 active torsions:
DOCKED: REMARK  status: ('A' for Active; 'I' for Inactive)
DOCKED: REMARK    1  A    between atoms: C_2  and  O_3
DOCKED: REMARK    2  A    between atoms: O_3  and  C_4
DOCKED: REMARK    3  A    between atoms: C_4  and  C_5
DOCKED: REMARK    4  A    between atoms: C_10  and  C_11
DOCKED: REMARK    5  A    between atoms: C_11  and  N_12
DOCKED: REMARK    6  A    between atoms: N_12  and  C_13
DOCKED: REMARK    7  A    between atoms: N_12  and  C_15
DOCKED: REMARK    8  A    between atoms: C_13  and  C_14
DOCKED: REMARK    9  A    between atoms: C_15  and  C_16
DOCKED: REMARK   10  A    between atoms: N_21  and  C_22
DOCKED: REMARK   11  A    between atoms: C_25  and  C_26
DOCKED: REMARK                            x       y       z     vdW  Elec       q    Type
DOCKED: REMARK                         _______ _______ _______ _____ _____    ______ ____
DOCKED: USER                              x       y       z     vdW  Elec       q    Type
DOCKED: USER                           _______ _______ _______ _____ _____    ______ ____
DOCKED: ROOT
DOCKED: ATOM      1  C   UNL     1      28.340 -15.635  -0.768 -0.26 -0.00    +0.000 C 
DOCKED: ENDROOT
DOCKED: BRANCH   1   2
DOCKED: ATOM      2  C   UNL     1      27.910 -14.877  -1.994 -0.19 -0.00    +0.000 A 
DOCKED: ATOM      3  C   UNL     1      27.884 -15.506  -3.249 -0.26 -0.00    +0.000 A 
DOCKED: ATOM      4  C   UNL     1      27.464 -14.806  -4.384 -0.35 -0.00    +0.000 A 
DOCKED: ATOM      5  C   UNL     1      27.060 -13.467  -4.277 -0.27 -0.00    +0.000 A 
DOCKED: ATOM      6  C   UNL     1      26.632 -12.758  -5.410 +0.01 -0.00    +0.000 A 
DOCKED: ATOM      7  C   UNL     1      26.224 -11.421  -5.297 -0.24 -0.00    +0.000 A 
DOCKED: ATOM      8  C   UNL     1      26.254 -10.790  -4.043 -0.19 -0.00    +0.000 A 
DOCKED: ATOM      9  C   UNL     1      26.680 -11.488  -2.910 +0.04 -0.00    +0.000 A 
DOCKED: ATOM     10  C   UNL     1      27.083 -12.826  -3.016 -0.17 -0.00    +0.000 A 
DOCKED: ATOM     11  C   UNL     1      27.509 -13.536  -1.883 -0.15 -0.00    +0.000 A 
DOCKED: BRANCH   7  12
DOCKED: ATOM     12  C   UNL     1      25.781 -10.663  -6.523 -0.27 -0.00    +0.000 C 
DOCKED: BRANCH  12  13
DOCKED: ATOM     13  N   UNL     1      26.923 -10.403  -7.426 -0.15 -0.00    +0.000 N 
DOCKED: ATOM     14  H   UNL     1      27.721 -10.463  -6.794 +0.00 -0.00    +0.000 HD
DOCKED: BRANCH  13  15
DOCKED: ATOM     15  C   UNL     1      27.197 -11.467  -8.421 -0.22 -0.00    +0.000 C 
DOCKED: ATOM     16  C   UNL     1      26.232 -11.491  -9.617 -0.36 -0.00    +0.000 C 
DOCKED: ENDBRANCH  13  15
DOCKED: BRANCH  13  17
DOCKED: ATOM     17  C   UNL     1      27.020  -9.019  -7.949 -0.08 -0.00    +0.000 C 
DOCKED: ATOM     18  C   UNL     1      25.681  -8.283  -8.038 -0.11 -0.00    +0.000 C 
DOCKED: ENDBRANCH  13  17
DOCKED: ENDBRANCH  12  13
DOCKED: ENDBRANCH   7  12
DOCKED: ENDBRANCH   1   2
DOCKED: BRANCH   1  19
DOCKED: ATOM     19  O   UNL     1      27.954 -17.006  -0.868 -0.42 -0.00    +0.000 OA
DOCKED: BRANCH  19  21
DOCKED: ATOM     20  O   UNL     1      26.613 -18.262   0.532 -0.66 -0.00    +0.000 OA
DOCKED: ATOM     21  C   UNL     1      26.705 -17.485  -0.458 -0.57 -0.00    +0.000 C 
DOCKED: ATOM     22  N   UNL     1      25.529 -17.048  -1.151 -0.55 -0.00    +0.000 N 
DOCKED: ATOM     23  H   UNL     1      25.615 -16.284  -1.766 -0.01 -0.00    +0.000 HD
DOCKED: BRANCH  22  24
DOCKED: ATOM     24  C   UNL     1      24.233 -17.653  -1.008 -0.67 -0.00    +0.000 A 
DOCKED: ATOM     25  C   UNL     1      24.112 -19.046  -1.084 -0.49 -0.00    +0.000 A 
DOCKED: ATOM     26  C   UNL     1      22.867 -19.662  -0.921 -0.31 -0.00    +0.000 A 
DOCKED: ATOM     27  C   UNL     1      21.719 -18.893  -0.664 -0.76 -0.00    +0.000 A 
DOCKED: ATOM     28  C   UNL     1      21.848 -17.497  -0.553 -0.61 -0.00    +0.000 A 
DOCKED: ATOM     29  C   UNL     1      23.092 -16.882  -0.722 -0.48 -0.00    +0.000 A 
DOCKED: BRANCH  27  30
DOCKED: ATOM     30  C   UNL     1      20.392 -19.532  -0.474 -0.88 -0.00    +0.000 C 
DOCKED: ATOM     31  N   UNL     1      19.997 -20.065   0.794 -0.70 -0.00    +0.000 N 
DOCKED: ATOM     32  O   UNL     1      18.746 -20.550   0.967 -0.79 -0.00    +0.000 OA
DOCKED: ATOM     33  O   UNL     1      19.601 -19.622  -1.452 -2.08 -0.00    +0.000 OA
DOCKED: ATOM     34  H   UNL     1      20.636 -20.079   1.543 -0.47 -0.00    +0.000 HD
DOCKED: ENDBRANCH  27  30
DOCKED: ENDBRANCH  22  24
DOCKED: ENDBRANCH  19  21
DOCKED: ENDBRANCH   1  19
DOCKED: TORSDOF 9
DOCKED: TER
DOCKED: ENDMDL
________________________________________________________________________________


	BEGINNING GENETIC ALGORITHM DOCKING 2 of 100
Run: 2 Seed: 1917606571 1294979038 [ Run 2 of 100 GA/GALS ]
Beginning LAMARCKIAN GENETIC ALGORITHM (LGA), with a maximum of 2500000 energy evaluations.

Final-Value: -15.698


	FINAL GENETIC ALGORITHM DOCKED STATE
	_______________________________________________


Detailed state:  trans 28.964 -13.165 1.223 quatxyzw 0.656104 0.321371 -0.681767 -0.037974 center 1.436 0.069 -0.007 ntor 9 -141.6667 78.4680 140.1514 -59.1475 179.2554 163.2220 -118.5361 -166.3133 -61.7573
State:	 28.964 -13.165   1.223   0.657  0.322 -0.682 -175.647   -141.67   78.47  140.15  -59.15  179.26  163.22 -118.54 -166.31  -61.76

DOCKED: MODEL        2
DOCKED: USER    Run = 2
DOCKED: USER    DPF = ligand_dock.biased.dpf
DOCKED: USER  
DOCKED: USER    Estimated Free Energy of Binding    =  -11.28 kcal/mol  [=(1)+(2)+(3)-(4)]
DOCKED: USER    Estimated Inhibition Constant, Ki   =    5.43 nM (nanomolar)  [Temperature = 298.15 K]
DOCKED: USER    
DOCKED: USER    (1) Final Intermolecular Energy     =  -13.96 kcal/mol
DOCKED: USER        vdW + Hbond + desolv Energy     =  -13.96 kcal/mol
DOCKED: USER        Electrostatic Energy            =   +0.00 kcal/mol
DOCKED: USER    (2) Final Total Internal Energy     =   -1.74 kcal/mol
DOCKED: USER    (3) Torsional Free Energy           =   +2.68 kcal/mol
DOCKED: USER    (4) Unbound System's Energy  [=(2)] =   -1.74 kcal/mol
DOCKED: USER    
DOCKED: USER    
DOCKED: USER    NEWDPF move ligand.pdbqt
DOCKED: USER    NEWDPF about 1.436000 0.069000 -0.007000
DOCKED: USER    NEWDPF tran0 28.963924 -13.164572 1.222654
DOCKED: USER    NEWDPF quaternion0 0.656104 0.321371 -0.681767 -0.037974
DOCKED: USER    NEWDPF axisangle0 0.656577 0.321603 -0.682259 -175.647429
DOCKED: USER    NEWDPF quat0 0.656577 0.321603 -0.682259 -175.647429
DOCKED: USER    NEWDPF dihe0 -141.67 78.47 140.15 -59.15 179.26 163.22 -118.54 -166.31 -61.76 
DOCKED: USER  keepresnum = 1 
DOCKED: USER  
DOCKED: REMARK  Name = 
DOCKED: REMARK  11 active torsions:
DOCKED: REMARK  status: ('A' for Active; 'I' for Inactive)
DOCKED: REMARK    1  A    between atoms: C_2  and  O_3
DOCKED: REMARK    2  A    between atoms: O_3  and  C_4
DOCKED: REMARK    3  A    between atoms: C_4  and  C_5
DOCKED: REMARK    4  A    between atoms: C_10  and  C_11
DOCKED: REMARK    5  A    between atoms: C_11  and  N_12
DOCKED: REMARK    6  A    between atoms: N_12  and  C_13
DOCKED: REMARK    7  A    between atoms: N_12  and  C_15
DOCKED: REMARK    8  A    between atoms: C_13  and  C_14
DOCKED: REMARK    9  A    between atoms: C_15  and  C_16
DOCKED: REMARK   10  A    between atoms: N_21  and  C_22
DOCKED: REMARK   11  A    between atoms: C_25  and  C_26
DOCKED: REMARK                            x       y       z     vdW  Elec       q    Type
DOCKED: REMARK                         _______ _______ _______ _____ _____    ______ ____
DOCKED: USER                              x       y       z     vdW  Elec       q    Type
DOCKED: USER                           _______ _______ _______ _____ _____    ______ ____
DOCKED: ROOT
DOCKED: ATOM      1  C   UNL     1      30.526 -16.256  -0.635 -0.15 -0.00    +0.000 C 
DOCKED: ENDROOT
DOCKED: BRANCH   1   2
DOCKED: ATOM      2  C   UNL     1      30.500 -15.751   0.782 -0.01 -0.00    +0.000 A 
DOCKED: ATOM      3  C   UNL     1      31.485 -16.149   1.699 -0.08 -0.00    +0.000 A 
DOCKED: ATOM      4  C   UNL     1      31.472 -15.662   3.009 -0.20 -0.00    +0.000 A 
DOCKED: ATOM      5  C   UNL     1      30.474 -14.766   3.418 -0.22 -0.00    +0.000 A 
DOCKED: ATOM      6  C   UNL     1      30.456 -14.268   4.730 -0.25 -0.00    +0.000 A 
DOCKED: ATOM      7  C   UNL     1      29.458 -13.368   5.134 -0.31 -0.00    +0.000 A 
DOCKED: ATOM      8  C   UNL     1      28.470 -12.973   4.218 -0.31 -0.00    +0.000 A 
DOCKED: ATOM      9  C   UNL     1      28.480 -13.464   2.910 -0.25 -0.00    +0.000 A 
DOCKED: ATOM     10  C   UNL     1      29.477 -14.360   2.500 -0.14 -0.00    +0.000 A 
DOCKED: ATOM     11  C   UNL     1      29.497 -14.857   1.188 -0.07 -0.00    +0.000 A 
DOCKED: BRANCH   7  12
DOCKED: ATOM     12  C   UNL     1      29.438 -12.851   6.549 -0.37 -0.00    +0.000 C 
DOCKED: BRANCH  12  13
DOCKED: ATOM     13  N   UNL     1      29.765 -11.409   6.593 -0.19 -0.00    +0.000 N 
DOCKED: ATOM     14  H   UNL     1      30.132 -11.240   5.656 +0.01 -0.00    +0.000 HD
DOCKED: BRANCH  13  15
DOCKED: ATOM     15  C   UNL     1      28.598 -10.499   6.669 -0.32 +0.00    +0.000 C 
DOCKED: ATOM     16  C   UNL     1      28.190  -9.866   5.329 -0.32 +0.00    +0.000 C 
DOCKED: ENDBRANCH  13  15
DOCKED: BRANCH  13  17
DOCKED: ATOM     17  C   UNL     1      30.905 -11.039   7.465 -0.13 -0.00    +0.000 C 
DOCKED: ATOM     18  C   UNL     1      31.636 -12.232   8.087 -0.16 -0.00    +0.000 C 
DOCKED: ENDBRANCH  13  17
DOCKED: ENDBRANCH  12  13
DOCKED: ENDBRANCH   7  12
DOCKED: ENDBRANCH   1   2
DOCKED: BRANCH   1  19
DOCKED: ATOM     19  O   UNL     1      29.467 -15.672  -1.392 -0.15 -0.00    +0.000 OA
DOCKED: BRANCH  19  21
DOCKED: ATOM     20  O   UNL     1      27.907 -16.643  -2.793 -0.32 -0.00    +0.000 OA
DOCKED: ATOM     21  C   UNL     1      28.243 -16.311  -1.622 -0.31 -0.00    +0.000 C 
DOCKED: ATOM     22  N   UNL     1      27.398 -16.621  -0.507 -0.39 -0.00    +0.000 N 
DOCKED: ATOM     23  H   UNL     1      27.783 -16.549   0.395 -0.18 -0.00    +0.000 HD
DOCKED: BRANCH  22  24
DOCKED: ATOM     24  C   UNL     1      26.024 -17.030  -0.622 -0.51 -0.00    +0.000 A 
DOCKED: ATOM     25  C   UNL     1      25.159 -16.310  -1.455 -0.52 -0.00    +0.000 A 
DOCKED: ATOM     26  C   UNL     1      23.825 -16.703  -1.606 -0.20 -0.00    +0.000 A 
DOCKED: ATOM     27  C   UNL     1      23.335 -17.835  -0.933 -0.70 -0.00    +0.000 A 
DOCKED: ATOM     28  C   UNL     1      24.213 -18.576  -0.124 -0.52 -0.00    +0.000 A 
DOCKED: ATOM     29  C   UNL     1      25.545 -18.181   0.030 -0.59 -0.00    +0.000 A 
DOCKED: BRANCH  27  30
DOCKED: ATOM     30  C   UNL     1      21.926 -18.273  -1.093 -0.73 -0.00    +0.000 C 
DOCKED: ATOM     31  N   UNL     1      21.600 -19.532  -1.693 -0.52 -0.00    +0.000 N 
DOCKED: ATOM     32  O   UNL     1      20.315 -19.952  -1.735 -2.26 -0.00    +0.000 OA
DOCKED: ATOM     33  O   UNL     1      20.993 -17.518  -0.707 -2.08 -0.00    +0.000 OA
DOCKED: ATOM     34  H   UNL     1      22.313 -20.093  -2.077 -0.52 -0.00    +0.000 HD
DOCKED: ENDBRANCH  27  30
DOCKED: ENDBRANCH  22  24
DOCKED: ENDBRANCH  19  21
DOCKED: ENDBRANCH   1  19
DOCKED: TORSDOF 9
DOCKED: TER
DOCKED: ENDMDL
________________________________________________________________________________


	BEGINNING GENETIC ALGORITHM DOCKING 3 of 100
Run: 3 Seed: 1330346017 1210146481 [ Run 3 of 100 GA/GALS ]
Beginning LAMARCKIAN GENETIC ALGORITHM (LGA), with a maximum of 2500000 energy evaluations.

Final-Value: -16.760


	FINAL GENETIC ALGORITHM DOCKED STATE
	_______________________________________________


Detailed state:  trans 28.672 -16.549 2.594 quatxyzw -0.300338 0.814109 -0.372567 -0.328963 center 1.436 0.069 -0.007 ntor 9 -178.3361 116.5527 -64.9158 -180.0000 -180.0000 10.8477 -156.5601 31.5026 -135.3121
State:	 28.672 -16.549   2.594  -0.318  0.862 -0.395 -141.588   -178.34  116.55  -64.92 -180.00 -180.00   10.85 -156.56   31.50 -135.31

DOCKED: MODEL        3
DOCKED: USER    Run = 3
DOCKED: USER    DPF = ligand_dock.biased.dpf
DOCKED: USER  
DOCKED: USER    Estimated Free Energy of Binding    =  -12.57 kcal/mol  [=(1)+(2)+(3)-(4)]
DOCKED: USER    Estimated Inhibition Constant, Ki   =  615.71 pM (picomolar)  [Temperature = 298.15 K]
DOCKED: USER    
DOCKED: USER    (1) Final Intermolecular Energy     =  -15.25 kcal/mol
DOCKED: USER        vdW + Hbond + desolv Energy     =  -15.25 kcal/mol
DOCKED: USER        Electrostatic Energy            =   +0.00 kcal/mol
DOCKED: USER    (2) Final Total Internal Energy     =   -1.51 kcal/mol
DOCKED: USER    (3) Torsional Free Energy           =   +2.68 kcal/mol
DOCKED: USER    (4) Unbound System's Energy  [=(2)] =   -1.51 kcal/mol
DOCKED: USER    
DOCKED: USER    
DOCKED: USER    NEWDPF move ligand.pdbqt
DOCKED: USER    NEWDPF about 1.436000 0.069000 -0.007000
DOCKED: USER    NEWDPF tran0 28.672379 -16.548975 2.593975
DOCKED: USER    NEWDPF quaternion0 -0.300338 0.814109 -0.372567 -0.328963
DOCKED: USER    NEWDPF axisangle0 -0.318039 0.862091 -0.394526 -141.588344
DOCKED: USER    NEWDPF quat0 -0.318039 0.862091 -0.394526 -141.588344
DOCKED: USER    NEWDPF dihe0 -178.34 116.55 -64.92 -180.00 -180.00 10.85 -156.56 31.50 -135.31 
DOCKED: USER  keepresnum = 1 
DOCKED: USER  
DOCKED: REMARK  Name = 
DOCKED: REMARK  11 active torsions:
DOCKED: REMARK  status: ('A' for Active; 'I' for Inactive)
DOCKED: REMARK    1  A    between atoms: C_2  and  O_3
DOCKED: REMARK    2  A    between atoms: O_3  and  C_4
DOCKED: REMARK    3  A    between atoms: C_4  and  C_5
DOCKED: REMARK    4  A    between atoms: C_10  and  C_11
DOCKED: REMARK    5  A    between atoms: C_11  and  N_12
DOCKED: REMARK    6  A    between atoms: N_12  and  C_13
DOCKED: REMARK    7  A    between atoms: N_12  and  C_15
DOCKED: REMARK    8  A    between atoms: C_13  and  C_14
DOCKED: REMARK    9  A    between atoms: C_15  and  C_16
DOCKED: REMARK   10  A    between atoms: N_21  and  C_22
DOCKED: REMARK   11  A    between atoms: C_25  and  C_26
DOCKED: REMARK                            x       y       z     vdW  Elec       q    Type
DOCKED: REMARK                         _______ _______ _______ _____ _____    ______ ____
DOCKED: USER                              x       y       z     vdW  Elec       q    Type
DOCKED: USER                           _______ _______ _______ _____ _____    ______ ____
DOCKED: ROOT
DOCKED: ATOM      1  C   UNL     1      27.717 -14.803  -0.795 -0.24 -0.00    +0.000 C 
DOCKED: ENDROOT
DOCKED: BRANCH   1   2
DOCKED: ATOM      2  C   UNL     1      28.379 -14.377   0.487 -0.19 -0.00    +0.000 A 
DOCKED: ATOM      3  C   UNL     1      29.615 -13.711   0.465 -0.08 -0.00    +0.000 A 
DOCKED: ATOM      4  C   UNL     1      30.218 -13.297   1.656 -0.08 -0.00    +0.000 A 
DOCKED: ATOM      5  C   UNL     1      29.591 -13.542   2.886 -0.17 -0.00    +0.000 A 
DOCKED: ATOM      6  C   UNL     1      30.187 -13.125   4.086 -0.17 -0.00    +0.000 A 
DOCKED: ATOM      7  C   UNL     1      29.554 -13.368   5.314 -0.31 -0.00    +0.000 A 
DOCKED: ATOM      8  C   UNL     1      28.321 -14.039   5.338 -0.44 -0.00    +0.000 A 
DOCKED: ATOM      9  C   UNL     1      27.720 -14.457   4.147 -0.52 -0.00    +0.000 A 
DOCKED: ATOM     10  C   UNL     1      28.346 -14.213   2.917 -0.29 -0.00    +0.000 A 
DOCKED: ATOM     11  C   UNL     1      27.750 -14.627   1.717 -0.19 -0.00    +0.000 A 
DOCKED: BRANCH   7  12
DOCKED: ATOM     12  C   UNL     1      30.210 -12.931   6.599 -0.30 -0.00    +0.000 C 
DOCKED: BRANCH  12  13
DOCKED: ATOM     13  N   UNL     1      29.445 -11.840   7.242 -0.29 -0.00    +0.000 N 
DOCKED: ATOM     14  H   UNL     1      30.178 -11.178   7.494 +0.00 -0.00    +0.000 HD
DOCKED: BRANCH  13  15
DOCKED: ATOM     15  C   UNL     1      28.577 -11.056   6.331 -0.36 +0.00    +0.000 C 
DOCKED: ATOM     16  C   UNL     1      28.629  -9.535   6.549 -0.23 +0.00    +0.000 C 
DOCKED: ENDBRANCH  13  15
DOCKED: BRANCH  13  17
DOCKED: ATOM     17  C   UNL     1      28.837 -12.174   8.552 -0.41 -0.00    +0.000 C 
DOCKED: ATOM     18  C   UNL     1      29.754 -12.962   9.491 -0.36 -0.00    +0.000 C 
DOCKED: ENDBRANCH  13  17
DOCKED: ENDBRANCH  12  13
DOCKED: ENDBRANCH   7  12
DOCKED: ENDBRANCH   1   2
DOCKED: BRANCH   1  19
DOCKED: ATOM     19  O   UNL     1      27.766 -16.222  -0.934 -0.34 -0.00    +0.000 OA
DOCKED: BRANCH  19  21
DOCKED: ATOM     20  O   UNL     1      26.880 -18.256  -0.291 -0.64 -0.00    +0.000 OA
DOCKED: ATOM     21  C   UNL     1      26.684 -17.061  -0.645 -0.53 -0.00    +0.000 C 
DOCKED: ATOM     22  N   UNL     1      25.354 -16.532  -0.713 -0.49 -0.00    +0.000 N 
DOCKED: ATOM     23  H   UNL     1      25.250 -15.555  -0.776 -0.02 -0.00    +0.000 HD
DOCKED: BRANCH  22  24
DOCKED: ATOM     24  C   UNL     1      24.161 -17.335  -0.698 -0.63 -0.00    +0.000 A 
DOCKED: ATOM     25  C   UNL     1      22.939 -16.744  -0.352 -0.23 -0.00    +0.000 A 
DOCKED: ATOM     26  C   UNL     1      21.759 -17.496  -0.355 -0.53 -0.00    +0.000 A 
DOCKED: ATOM     27  C   UNL     1      21.780 -18.853  -0.719 -0.76 -0.00    +0.000 A 
DOCKED: ATOM     28  C   UNL     1      23.002 -19.435  -1.099 -0.56 -0.00    +0.000 A 
DOCKED: ATOM     29  C   UNL     1      24.181 -18.685  -1.091 -0.63 -0.00    +0.000 A 
DOCKED: BRANCH  27  30
DOCKED: ATOM     30  C   UNL     1      20.535 -19.661  -0.742 -0.86 -0.00    +0.000 C 
DOCKED: ATOM     31  N   UNL     1      20.082 -20.366   0.419 -0.71 -0.00    +0.000 N 
DOCKED: ATOM     32  O   UNL     1      18.893 -21.011   0.402 -0.85 -0.00    +0.000 OA
DOCKED: ATOM     33  O   UNL     1      19.867 -19.743  -1.809 -2.38 -0.00    +0.000 OA
DOCKED: ATOM     34  H   UNL     1      20.637 -20.381   1.233 -0.47 -0.00    +0.000 HD
DOCKED: ENDBRANCH  27  30
DOCKED: ENDBRANCH  22  24
DOCKED: ENDBRANCH  19  21
DOCKED: ENDBRANCH   1  19
DOCKED: TORSDOF 9
DOCKED: TER
DOCKED: ENDMDL
________________________________________________________________________________


	BEGINNING GENETIC ALGORITHM DOCKING 4 of 100
Run: 4 Seed: 1972407311 1674001949 [ Run 4 of 100 GA/GALS ]
Beginning LAMARCKIAN GENETIC ALGORITHM (LGA), with a maximum of 2500000 energy evaluations.

Final-Value: -16.129


	FINAL GENETIC ALGORITHM DOCKED STATE
	_______________________________________________


Detailed state:  trans 28.400 -15.986 3.586 quatxyzw 0.021279 0.793179 -0.478188 -0.376497 center 1.436 0.069 -0.007 ntor 9 -17.1987 140.6999 169.7817 -29.5726 -149.6281 -85.5475 -32.5944 23.3914 -139.1030
State:	 28.400 -15.986   3.586   0.023  0.856 -0.516 -135.766    -17.20  140.70  169.78  -29.57 -149.63  -85.55  -32.59   23.39 -139.10

DOCKED: MODEL        4
DOCKED: USER    Run = 4
DOCKED: USER    DPF = ligand_dock.biased.dpf
DOCKED: USER  
DOCKED: USER    Estimated Free Energy of Binding    =  -11.93 kcal/mol  [=(1)+(2)+(3)-(4)]
DOCKED: USER    Estimated Inhibition Constant, Ki   =    1.79 nM (nanomolar)  [Temperature = 298.15 K]
DOCKED: USER    
DOCKED: USER    (1) Final Intermolecular Energy     =  -14.62 kcal/mol
DOCKED: USER        vdW + Hbond + desolv Energy     =  -14.62 kcal/mol
DOCKED: USER        Electrostatic Energy            =   +0.00 kcal/mol
DOCKED: USER    (2) Final Total Internal Energy     =   -1.51 kcal/mol
DOCKED: USER    (3) Torsional Free Energy           =   +2.68 kcal/mol
DOCKED: USER    (4) Unbound System's Energy  [=(2)] =   -1.51 kcal/mol
DOCKED: USER    
DOCKED: USER    
DOCKED: USER    NEWDPF move ligand.pdbqt
DOCKED: USER    NEWDPF about 1.436000 0.069000 -0.007000
DOCKED: USER    NEWDPF tran0 28.399682 -15.985921 3.585581
DOCKED: USER    NEWDPF quaternion0 0.021279 0.793179 -0.478188 -0.376497
DOCKED: USER    NEWDPF axisangle0 0.022970 0.856179 -0.516169 -135.766217
DOCKED: USER    NEWDPF quat0 0.022970 0.856179 -0.516169 -135.766217
DOCKED: USER    NEWDPF dihe0 -17.20 140.70 169.78 -29.57 -149.63 -85.55 -32.59 23.39 -139.10 
DOCKED: USER  keepresnum = 1 
DOCKED: USER  
DOCKED: REMARK  Name = 
DOCKED: REMARK  11 active torsions:
DOCKED: REMARK  status: ('A' for Active; 'I' for Inactive)
DOCKED: REMARK    1  A    between atoms: C_2  and  O_3
DOCKED: REMARK    2  A    between atoms: O_3  and  C_4
DOCKED: REMARK    3  A    between atoms: C_4  and  C_5
DOCKED: REMARK    4  A    between atoms: C_10  and  C_11
DOCKED: REMARK    5  A    between atoms: C_11  and  N_12
DOCKED: REMARK    6  A    between atoms: N_12  and  C_13
DOCKED: REMARK    7  A    between atoms: N_12  and  C_15
DOCKED: REMARK    8  A    between atoms: C_13  and  C_14
DOCKED: REMARK    9  A    between atoms: C_15  and  C_16
DOCKED: REMARK   10  A    between atoms: N_21  and  C_22
DOCKED: REMARK   11  A    between atoms: C_25  and  C_26
DOCKED: REMARK                            x       y       z     vdW  Elec       q    Type
DOCKED: REMARK                         _______ _______ _______ _____ _____    ______ ____
DOCKED: USER                              x       y       z     vdW  Elec       q    Type
DOCKED: USER                           _______ _______ _______ _____ _____    ______ ____
DOCKED: ROOT
DOCKED: ATOM      1  C   UNL     1      29.845 -14.198   0.398 -0.11 -0.00    +0.000 C 
DOCKED: ENDROOT
DOCKED: BRANCH   1   2
DOCKED: ATOM      2  C   UNL     1      30.077 -14.108   1.882 -0.13 -0.00    +0.000 A 
DOCKED: ATOM      3  C   UNL     1      31.367 -14.269   2.413 -0.12 -0.00    +0.000 A 
DOCKED: ATOM      4  C   UNL     1      31.584 -14.165   3.790 -0.18 -0.00    +0.000 A 
DOCKED: ATOM      5  C   UNL     1      30.513 -13.894   4.654 -0.25 -0.00    +0.000 A 
DOCKED: ATOM      6  C   UNL     1      30.723 -13.782   6.037 -0.15 -0.00    +0.000 A 
DOCKED: ATOM      7  C   UNL     1      29.650 -13.506   6.897 -0.29 -0.00    +0.000 A 
DOCKED: ATOM      8  C   UNL     1      28.359 -13.350   6.367 -0.20 -0.00    +0.000 A 
DOCKED: ATOM      9  C   UNL     1      28.141 -13.460   4.991 -0.46 -0.00    +0.000 A 
DOCKED: ATOM     10  C   UNL     1      29.211 -13.731   4.127 -0.31 -0.00    +0.000 A 
DOCKED: ATOM     11  C   UNL     1      29.002 -13.840   2.744 -0.22 -0.00    +0.000 A 
DOCKED: BRANCH   7  12
DOCKED: ATOM     12  C   UNL     1      29.883 -13.404   8.383 -0.39 -0.00    +0.000 C 
DOCKED: BRANCH  12  13
DOCKED: ATOM     13  N   UNL     1      29.044 -12.342   8.980 -0.39 -0.00    +0.000 N 
DOCKED: ATOM     14  H   UNL     1      28.350 -12.176   8.251 -0.05 +0.00    +0.000 HD
DOCKED: BRANCH  13  15
DOCKED: ATOM     15  C   UNL     1      28.223 -12.762  10.140 -0.44 -0.00    +0.000 C 
DOCKED: ATOM     16  C   UNL     1      28.770 -13.979  10.905 -0.49 -0.00    +0.000 C 
DOCKED: ENDBRANCH  13  15
DOCKED: BRANCH  13  17
DOCKED: ATOM     17  C   UNL     1      29.696 -11.018   9.121 -0.23 -0.00    +0.000 C 
DOCKED: ATOM     18  C   UNL     1      30.009 -10.323   7.793 -0.23 -0.00    +0.000 C 
DOCKED: ENDBRANCH  13  17
DOCKED: ENDBRANCH  12  13
DOCKED: ENDBRANCH   7  12
DOCKED: ENDBRANCH   1   2
DOCKED: BRANCH   1  19
DOCKED: ATOM     19  O   UNL     1      29.223 -15.438   0.064 -0.21 -0.00    +0.000 OA
DOCKED: BRANCH  19  21
DOCKED: ATOM     20  O   UNL     1      27.062 -14.890   0.672 -0.35 -0.00    +0.000 OA
DOCKED: ATOM     21  C   UNL     1      27.836 -15.603  -0.026 -0.31 -0.00    +0.000 C 
DOCKED: ATOM     22  N   UNL     1      27.306 -16.561  -0.951 -0.38 -0.00    +0.000 N 
DOCKED: ATOM     23  H   UNL     1      27.918 -16.935  -1.625 -0.02 -0.00    +0.000 HD
DOCKED: BRANCH  22  24
DOCKED: ATOM     24  C   UNL     1      25.941 -17.011  -0.957 -0.52 -0.00    +0.000 A 
DOCKED: ATOM     25  C   UNL     1      24.916 -16.095  -1.228 -0.41 -0.00    +0.000 A 
DOCKED: ATOM     26  C   UNL     1      23.582 -16.512  -1.268 +0.07 -0.00    +0.000 A 
DOCKED: ATOM     27  C   UNL     1      23.249 -17.860  -1.050 -0.69 -0.00    +0.000 A 
DOCKED: ATOM     28  C   UNL     1      24.281 -18.784  -0.812 -0.60 -0.00    +0.000 A 
DOCKED: ATOM     29  C   UNL     1      25.615 -18.366  -0.768 -0.52 -0.00    +0.000 A 
DOCKED: BRANCH  27  30
DOCKED: ATOM     30  C   UNL     1      21.839 -18.321  -1.102 -0.71 -0.00    +0.000 C 
DOCKED: ATOM     31  N   UNL     1      21.497 -19.617  -1.604 -0.54 -0.00    +0.000 N 
DOCKED: ATOM     32  O   UNL     1      20.217 -20.052  -1.547 -2.21 -0.00    +0.000 OA
DOCKED: ATOM     33  O   UNL     1      20.919 -17.552  -0.711 -2.10 +0.00    +0.000 OA
DOCKED: ATOM     34  H   UNL     1      22.195 -20.194  -1.992 -0.48 -0.00    +0.000 HD
DOCKED: ENDBRANCH  27  30
DOCKED: ENDBRANCH  22  24
DOCKED: ENDBRANCH  19  21
DOCKED: ENDBRANCH   1  19
DOCKED: TORSDOF 9
DOCKED: TER
DOCKED: ENDMDL
________________________________________________________________________________


	BEGINNING GENETIC ALGORITHM DOCKING 5 of 100
Run: 5 Seed: 695598170 704668689 [ Run 5 of 100 GA/GALS ]
Beginning LAMARCKIAN GENETIC ALGORITHM (LGA), with a maximum of 2500000 energy evaluations.

Final-Value: -15.756


	FINAL GENETIC ALGORITHM DOCKED STATE
	_______________________________________________


Detailed state:  trans 26.588 -15.283 -2.074 quatxyzw -0.278514 -0.281636 -0.745770 -0.535666 center 1.436 0.069 -0.007 ntor 9 71.6785 -146.3689 158.3756 35.0925 -178.1630 -73.4337 -134.8795 -38.7408 23.2024
State:	 26.588 -15.283  -2.074  -0.330 -0.334 -0.883 -115.222     71.68 -146.37  158.38   35.09 -178.16  -73.43 -134.88  -38.74   23.20

DOCKED: MODEL        5
DOCKED: USER    Run = 5
DOCKED: USER    DPF = ligand_dock.biased.dpf
DOCKED: USER  
DOCKED: USER    Estimated Free Energy of Binding    =  -11.15 kcal/mol  [=(1)+(2)+(3)-(4)]
DOCKED: USER    Estimated Inhibition Constant, Ki   =    6.67 nM (nanomolar)  [Temperature = 298.15 K]
DOCKED: USER    
DOCKED: USER    (1) Final Intermolecular Energy     =  -13.84 kcal/mol
DOCKED: USER        vdW + Hbond + desolv Energy     =  -13.84 kcal/mol
DOCKED: USER        Electrostatic Energy            =   +0.00 kcal/mol
DOCKED: USER    (2) Final Total Internal Energy     =   -1.92 kcal/mol
DOCKED: USER    (3) Torsional Free Energy           =   +2.68 kcal/mol
DOCKED: USER    (4) Unbound System's Energy  [=(2)] =   -1.92 kcal/mol
DOCKED: USER    
DOCKED: USER    
DOCKED: USER    NEWDPF move ligand.pdbqt
DOCKED: USER    NEWDPF about 1.436000 0.069000 -0.007000
DOCKED: USER    NEWDPF tran0 26.588258 -15.282565 -2.073934
DOCKED: USER    NEWDPF quaternion0 -0.278514 -0.281636 -0.745770 -0.535666
DOCKED: USER    NEWDPF axisangle0 -0.329825 -0.333522 -0.883164 -115.221867
DOCKED: USER    NEWDPF quat0 -0.329825 -0.333522 -0.883164 -115.221867
DOCKED: USER    NEWDPF dihe0 71.68 -146.37 158.38 35.09 -178.16 -73.43 -134.88 -38.74 23.20 
DOCKED: USER  keepresnum = 1 
DOCKED: USER  
DOCKED: REMARK  Name = 
DOCKED: REMARK  11 active torsions:
DOCKED: REMARK  status: ('A' for Active; 'I' for Inactive)
DOCKED: REMARK    1  A    between atoms: C_2  and  O_3
DOCKED: REMARK    2  A    between atoms: O_3  and  C_4
DOCKED: REMARK    3  A    between atoms: C_4  and  C_5
DOCKED: REMARK    4  A    between atoms: C_10  and  C_11
DOCKED: REMARK    5  A    between atoms: C_11  and  N_12
DOCKED: REMARK    6  A    between atoms: N_12  and  C_13
DOCKED: REMARK    7  A    between atoms: N_12  and  C_15
DOCKED: REMARK    8  A    between atoms: C_13  and  C_14
DOCKED: REMARK    9  A    between atoms: C_15  and  C_16
DOCKED: REMARK   10  A    between atoms: N_21  and  C_22
DOCKED: REMARK   11  A    between atoms: C_25  and  C_26
DOCKED: REMARK                            x       y       z     vdW  Elec       q    Type
DOCKED: REMARK                         _______ _______ _______ _____ _____    ______ ____
DOCKED: USER                              x       y       z     vdW  Elec       q    Type
DOCKED: USER                           _______ _______ _______ _____ _____    ______ ____
DOCKED: ROOT
DOCKED: ATOM      1  C   UNL     1      30.257 -16.355  -1.158 -0.17 -0.00    +0.000 C 
DOCKED: ENDROOT
DOCKED: BRANCH   1   2
DOCKED: ATOM      2  C   UNL     1      29.602 -15.613  -2.292 -0.13 -0.00    +0.000 A 
DOCKED: ATOM      3  C   UNL     1      28.826 -16.300  -3.239 -0.22 -0.00    +0.000 A 
DOCKED: ATOM      4  C   UNL     1      28.201 -15.607  -4.280 -0.30 -0.00    +0.000 A 
DOCKED: ATOM      5  C   UNL     1      28.343 -14.215  -4.385 -0.21 -0.00    +0.000 A 
DOCKED: ATOM      6  C   UNL     1      27.715 -13.510  -5.423 -0.25 -0.00    +0.000 A 
DOCKED: ATOM      7  C   UNL     1      27.855 -12.118  -5.521 -0.15 -0.00    +0.000 A 
DOCKED: ATOM      8  C   UNL     1      28.635 -11.432  -4.578 -0.07 -0.00    +0.000 A 
DOCKED: ATOM      9  C   UNL     1      29.265 -12.126  -3.541 -0.04 -0.00    +0.000 A 
DOCKED: ATOM     10  C   UNL     1      29.124 -13.516  -3.435 -0.08 -0.00    +0.000 A 
DOCKED: ATOM     11  C   UNL     1      29.749 -14.221  -2.395 -0.05 -0.00    +0.000 A 
DOCKED: BRANCH   7  12
DOCKED: ATOM     12  C   UNL     1      27.189 -11.372  -6.650 -0.19 -0.00    +0.000 C 
DOCKED: BRANCH  12  13
DOCKED: ATOM     13  N   UNL     1      26.134 -10.470  -6.140 -0.20 -0.00    +0.000 N 
DOCKED: ATOM     14  H   UNL     1      26.671  -9.659  -5.829 +0.00 -0.00    +0.000 HD
DOCKED: BRANCH  13  15
DOCKED: ATOM     15  C   UNL     1      25.233  -9.904  -7.172 -0.29 -0.00    +0.000 C 
DOCKED: ATOM     16  C   UNL     1      23.775 -10.384  -7.082 -0.44 -0.00    +0.000 C 
DOCKED: ENDBRANCH  13  15
DOCKED: BRANCH  13  17
DOCKED: ATOM     17  C   UNL     1      25.460 -10.915  -4.897 -0.36 -0.00    +0.000 C 
DOCKED: ATOM     18  C   UNL     1      25.167  -9.790  -3.901 -0.25 -0.00    +0.000 C 
DOCKED: ENDBRANCH  13  17
DOCKED: ENDBRANCH  12  13
DOCKED: ENDBRANCH   7  12
DOCKED: ENDBRANCH   1   2
DOCKED: BRANCH   1  19
DOCKED: ATOM     19  O   UNL     1      29.410 -16.360  -0.010 -0.24 -0.00    +0.000 OA
DOCKED: BRANCH  19  21
DOCKED: ATOM     20  O   UNL     1      27.352 -15.514   0.613 -0.37 -0.00    +0.000 OA
DOCKED: ATOM     21  C   UNL     1      28.013 -16.332  -0.086 -0.29 -0.00    +0.000 C 
DOCKED: ATOM     22  N   UNL     1      27.346 -17.214  -0.997 -0.44 -0.00    +0.000 N 
DOCKED: ATOM     23  H   UNL     1      27.892 -17.674  -1.674 -0.03 -0.00    +0.000 HD
DOCKED: BRANCH  22  24
DOCKED: ATOM     24  C   UNL     1      25.931 -17.471  -0.986 -0.54 -0.00    +0.000 A 
DOCKED: ATOM     25  C   UNL     1      25.053 -16.507  -1.499 -0.54 -0.00    +0.000 A 
DOCKED: ATOM     26  C   UNL     1      23.675 -16.743  -1.527 -0.23 -0.00    +0.000 A 
DOCKED: ATOM     27  C   UNL     1      23.149 -17.957  -1.052 -0.70 -0.00    +0.000 A 
DOCKED: ATOM     28  C   UNL     1      24.035 -18.937  -0.570 -0.53 -0.00    +0.000 A 
DOCKED: ATOM     29  C   UNL     1      25.412 -18.699  -0.538 -0.42 -0.00    +0.000 A 
DOCKED: BRANCH  27  30
DOCKED: ATOM     30  C   UNL     1      21.691 -18.228  -1.087 -0.70 -0.00    +0.000 C 
DOCKED: ATOM     31  N   UNL     1      21.176 -19.478  -1.560 -0.72 -0.00    +0.000 N 
DOCKED: ATOM     32  O   UNL     1      19.851 -19.738  -1.486 -2.26 -0.00    +0.000 OA
DOCKED: ATOM     33  O   UNL     1      20.884 -17.336  -0.706 -1.92 +0.00    +0.000 OA
DOCKED: ATOM     34  H   UNL     1      21.788 -20.150  -1.939 -0.51 -0.00    +0.000 HD
DOCKED: ENDBRANCH  27  30
DOCKED: ENDBRANCH  22  24
DOCKED: ENDBRANCH  19  21
DOCKED: ENDBRANCH   1  19
DOCKED: TORSDOF 9
DOCKED: TER
DOCKED: ENDMDL
________________________________________________________________________________


	BEGINNING GENETIC ALGORITHM DOCKING 6 of 100
Run: 6 Seed: 140308536 1335239308 [ Run 6 of 100 GA/GALS ]
Beginning LAMARCKIAN GENETIC ALGORITHM (LGA), with a maximum of 2500000 energy evaluations.

Final-Value: -15.803


	FINAL GENETIC ALGORITHM DOCKED STATE
	_______________________________________________


Detailed state:  trans 26.819 -16.050 2.251 quatxyzw 0.208685 -0.649133 0.506115 0.528133 center 1.436 0.069 -0.007 ntor 9 -171.3134 -62.3575 130.6934 120.5866 138.6828 -175.9283 -173.6519 6.4861 107.2674
State:	 26.819 -16.050   2.251   0.246 -0.764  0.596 116.241   -171.31  -62.36  130.69  120.59  138.68 -175.93 -173.65    6.49  107.27

DOCKED: MODEL        6
DOCKED: USER    Run = 6
DOCKED: USER    DPF = ligand_dock.biased.dpf
DOCKED: USER  
DOCKED: USER    Estimated Free Energy of Binding    =  -11.52 kcal/mol  [=(1)+(2)+(3)-(4)]
DOCKED: USER    Estimated Inhibition Constant, Ki   =    3.59 nM (nanomolar)  [Temperature = 298.15 K]
DOCKED: USER    
DOCKED: USER    (1) Final Intermolecular Energy     =  -14.21 kcal/mol
DOCKED: USER        vdW + Hbond + desolv Energy     =  -14.21 kcal/mol
DOCKED: USER        Electrostatic Energy            =   +0.00 kcal/mol
DOCKED: USER    (2) Final Total Internal Energy     =   -1.60 kcal/mol
DOCKED: USER    (3) Torsional Free Energy           =   +2.68 kcal/mol
DOCKED: USER    (4) Unbound System's Energy  [=(2)] =   -1.60 kcal/mol
DOCKED: USER    
DOCKED: USER    
DOCKED: USER    NEWDPF move ligand.pdbqt
DOCKED: USER    NEWDPF about 1.436000 0.069000 -0.007000
DOCKED: USER    NEWDPF tran0 26.818542 -16.049743 2.250736
DOCKED: USER    NEWDPF quaternion0 0.208685 -0.649133 0.506115 0.528133
DOCKED: USER    NEWDPF axisangle0 0.245754 -0.764440 0.596017 116.241155
DOCKED: USER    NEWDPF quat0 0.245754 -0.764440 0.596017 116.241155
DOCKED: USER    NEWDPF dihe0 -171.31 -62.36 130.69 120.59 138.68 -175.93 -173.65 6.49 107.27 
DOCKED: USER  keepresnum = 1 
DOCKED: USER  
DOCKED: REMARK  Name = 
DOCKED: REMARK  11 active torsions:
DOCKED: REMARK  status: ('A' for Active; 'I' for Inactive)
DOCKED: REMARK    1  A    between atoms: C_2  and  O_3
DOCKED: REMARK    2  A    between atoms: O_3  and  C_4
DOCKED: REMARK    3  A    between atoms: C_4  and  C_5
DOCKED: REMARK    4  A    between atoms: C_10  and  C_11
DOCKED: REMARK    5  A    between atoms: C_11  and  N_12
DOCKED: REMARK    6  A    between atoms: N_12  and  C_13
DOCKED: REMARK    7  A    between atoms: N_12  and  C_15
DOCKED: REMARK    8  A    between atoms: C_13  and  C_14
DOCKED: REMARK    9  A    between atoms: C_15  and  C_16
DOCKED: REMARK   10  A    between atoms: N_21  and  C_22
DOCKED: REMARK   11  A    between atoms: C_25  and  C_26
DOCKED: REMARK                            x       y       z     vdW  Elec       q    Type
DOCKED: REMARK                         _______ _______ _______ _____ _____    ______ ____
DOCKED: USER                              x       y       z     vdW  Elec       q    Type
DOCKED: USER                           _______ _______ _______ _____ _____    ______ ____
DOCKED: ROOT
DOCKED: ATOM      1  C   UNL     1      27.970 -14.888  -1.323 -0.22 -0.00    +0.000 C 
DOCKED: ENDROOT
DOCKED: BRANCH   1   2
DOCKED: ATOM      2  C   UNL     1      27.824 -14.238   0.026 -0.20 -0.00    +0.000 A 
DOCKED: ATOM      3  C   UNL     1      27.595 -15.016   1.172 -0.13 -0.00    +0.000 A 
DOCKED: ATOM      4  C   UNL     1      27.481 -14.413   2.427 -0.08 -0.00    +0.000 A 
DOCKED: ATOM      5  C   UNL     1      27.598 -13.021   2.553 -0.28 -0.00    +0.000 A 
DOCKED: ATOM      6  C   UNL     1      27.491 -12.407   3.811 -0.25 +0.00    +0.000 A 
DOCKED: ATOM      7  C   UNL     1      27.615 -11.014   3.933 -0.28 +0.00    +0.000 A 
DOCKED: ATOM      8  C   UNL     1      27.839 -10.235   2.787 -0.18 +0.00    +0.000 A 
DOCKED: ATOM      9  C   UNL     1      27.947 -10.838   1.531 -0.14 +0.00    +0.000 A 
DOCKED: ATOM     10  C   UNL     1      27.830 -12.229   1.404 -0.17 -0.00    +0.000 A 
DOCKED: ATOM     11  C   UNL     1      27.940 -12.845   0.148 -0.13 -0.00    +0.000 A 
DOCKED: BRANCH   7  12
DOCKED: ATOM     12  C   UNL     1      27.481 -10.363   5.286 -0.34 +0.00    +0.000 C 
DOCKED: BRANCH  12  13
DOCKED: ATOM     13  N   UNL     1      28.650 -10.667   6.139 -0.31 +0.00    +0.000 N 
DOCKED: ATOM     14  H   UNL     1      28.546  -9.996   6.900 -0.03 +0.00    +0.000 HD
DOCKED: BRANCH  13  15
DOCKED: ATOM     15  C   UNL     1      28.604 -11.977   6.831 -0.40 +0.00    +0.000 C 
DOCKED: ATOM     16  C   UNL     1      28.879 -11.912   8.342 -0.41 -0.00    +0.000 C 
DOCKED: ENDBRANCH  13  15
DOCKED: BRANCH  13  17
DOCKED: ATOM     17  C   UNL     1      29.969 -10.310   5.563 -0.12 +0.00    +0.000 C 
DOCKED: ATOM     18  C   UNL     1      31.046 -11.383   5.739 -0.09 -0.00    +0.000 C 
DOCKED: ENDBRANCH  13  17
DOCKED: ENDBRANCH  12  13
DOCKED: ENDBRANCH   7  12
DOCKED: ENDBRANCH   1   2
DOCKED: BRANCH   1  19
DOCKED: ATOM     19  O   UNL     1      28.036 -16.307  -1.189 -0.32 -0.00    +0.000 OA
DOCKED: BRANCH  19  21
DOCKED: ATOM     20  O   UNL     1      27.065 -18.326  -0.624 -0.59 -0.00    +0.000 OA
DOCKED: ATOM     21  C   UNL     1      26.920 -17.106  -0.916 -0.51 -0.00    +0.000 C 
DOCKED: ATOM     22  N   UNL     1      25.616 -16.512  -0.930 -0.49 -0.00    +0.000 N 
DOCKED: ATOM     23  H   UNL     1      25.560 -15.529  -0.943 -0.02 -0.00    +0.000 HD
DOCKED: BRANCH  22  24
DOCKED: ATOM     24  C   UNL     1      24.386 -17.256  -0.927 -0.62 -0.00    +0.000 A 
DOCKED: ATOM     25  C   UNL     1      24.366 -18.553  -1.458 -0.47 -0.00    +0.000 A 
DOCKED: ATOM     26  C   UNL     1      23.190 -19.309  -1.442 -0.60 -0.00    +0.000 A 
DOCKED: ATOM     27  C   UNL     1      22.012 -18.785  -0.881 -0.74 -0.00    +0.000 A 
DOCKED: ATOM     28  C   UNL     1      22.044 -17.498  -0.318 -0.64 -0.00    +0.000 A 
DOCKED: ATOM     29  C   UNL     1      23.218 -16.740  -0.338 -0.18 -0.00    +0.000 A 
DOCKED: BRANCH  27  30
DOCKED: ATOM     30  C   UNL     1      20.759 -19.580  -0.844 -0.85 -0.00    +0.000 C 
DOCKED: ATOM     31  N   UNL     1      20.275 -20.152   0.376 -0.71 -0.00    +0.000 N 
DOCKED: ATOM     32  O   UNL     1      19.080 -20.786   0.402 -0.92 -0.00    +0.000 OA
DOCKED: ATOM     33  O   UNL     1      20.113 -19.771  -1.910 -2.36 -0.00    +0.000 OA
DOCKED: ATOM     34  H   UNL     1      20.813 -20.085   1.198 -0.45 -0.00    +0.000 HD
DOCKED: ENDBRANCH  27  30
DOCKED: ENDBRANCH  22  24
DOCKED: ENDBRANCH  19  21
DOCKED: ENDBRANCH   1  19
DOCKED: TORSDOF 9
DOCKED: TER
DOCKED: ENDMDL
________________________________________________________________________________


	BEGINNING GENETIC ALGORITHM DOCKING 7 of 100
Run: 7 Seed: 571444110 1233878243 [ Run 7 of 100 GA/GALS ]
Beginning LAMARCKIAN GENETIC ALGORITHM (LGA), with a maximum of 2500000 energy evaluations.

Final-Value: -15.456


	FINAL GENETIC ALGORITHM DOCKED STATE
	_______________________________________________


Detailed state:  trans 24.949 -13.466 -3.543 quatxyzw 0.152782 0.251259 0.804503 0.516044 center 1.436 0.069 -0.007 ntor 9 27.6239 133.1359 -71.0915 -85.7374 -12.8904 165.0712 -57.7407 6.1852 150.3233
State:	 24.949 -13.466  -3.543   0.178  0.293  0.939 117.865     27.62  133.14  -71.09  -85.74  -12.89  165.07  -57.74    6.19  150.32

DOCKED: MODEL        7
DOCKED: USER    Run = 7
DOCKED: USER    DPF = ligand_dock.biased.dpf
DOCKED: USER  
DOCKED: USER    Estimated Free Energy of Binding    =  -11.21 kcal/mol  [=(1)+(2)+(3)-(4)]
DOCKED: USER    Estimated Inhibition Constant, Ki   =    6.07 nM (nanomolar)  [Temperature = 298.15 K]
DOCKED: USER    
DOCKED: USER    (1) Final Intermolecular Energy     =  -13.89 kcal/mol
DOCKED: USER        vdW + Hbond + desolv Energy     =  -13.89 kcal/mol
DOCKED: USER        Electrostatic Energy            =   +0.00 kcal/mol
DOCKED: USER    (2) Final Total Internal Energy     =   -1.56 kcal/mol
DOCKED: USER    (3) Torsional Free Energy           =   +2.68 kcal/mol
DOCKED: USER    (4) Unbound System's Energy  [=(2)] =   -1.56 kcal/mol
DOCKED: USER    
DOCKED: USER    
DOCKED: USER    NEWDPF move ligand.pdbqt
DOCKED: USER    NEWDPF about 1.436000 0.069000 -0.007000
DOCKED: USER    NEWDPF tran0 24.948751 -13.465821 -3.542704
DOCKED: USER    NEWDPF quaternion0 0.152782 0.251259 0.804503 0.516044
DOCKED: USER    NEWDPF axisangle0 0.178366 0.293334 0.939223 117.865449
DOCKED: USER    NEWDPF quat0 0.178366 0.293334 0.939223 117.865449
DOCKED: USER    NEWDPF dihe0 27.62 133.14 -71.09 -85.74 -12.89 165.07 -57.74 6.19 150.32 
DOCKED: USER  keepresnum = 1 
DOCKED: USER  
DOCKED: REMARK  Name = 
DOCKED: REMARK  11 active torsions:
DOCKED: REMARK  status: ('A' for Active; 'I' for Inactive)
DOCKED: REMARK    1  A    between atoms: C_2  and  O_3
DOCKED: REMARK    2  A    between atoms: O_3  and  C_4
DOCKED: REMARK    3  A    between atoms: C_4  and  C_5
DOCKED: REMARK    4  A    between atoms: C_10  and  C_11
DOCKED: REMARK    5  A    between atoms: C_11  and  N_12
DOCKED: REMARK    6  A    between atoms: N_12  and  C_13
DOCKED: REMARK    7  A    between atoms: N_12  and  C_15
DOCKED: REMARK    8  A    between atoms: C_13  and  C_14
DOCKED: REMARK    9  A    between atoms: C_15  and  C_16
DOCKED: REMARK   10  A    between atoms: N_21  and  C_22
DOCKED: REMARK   11  A    between atoms: C_25  and  C_26
DOCKED: REMARK                            x       y       z     vdW  Elec       q    Type
DOCKED: REMARK                         _______ _______ _______ _____ _____    ______ ____
DOCKED: USER                              x       y       z     vdW  Elec       q    Type
DOCKED: USER                           _______ _______ _______ _____ _____    ______ ____
DOCKED: ROOT
DOCKED: ATOM      1  C   UNL     1      28.340 -14.908  -2.175 -0.19 -0.00    +0.000 C 
DOCKED: ENDROOT
DOCKED: BRANCH   1   2
DOCKED: ATOM      2  C   UNL     1      27.939 -13.922  -3.239 -0.16 -0.00    +0.000 A 
DOCKED: ATOM      3  C   UNL     1      27.112 -12.832  -2.925 -0.16 -0.00    +0.000 A 
DOCKED: ATOM      4  C   UNL     1      26.758 -11.905  -3.910 -0.19 -0.00    +0.000 A 
DOCKED: ATOM      5  C   UNL     1      27.231 -12.055  -5.222 -0.19 -0.00    +0.000 A 
DOCKED: ATOM      6  C   UNL     1      26.885 -11.126  -6.215 -0.17 -0.00    +0.000 A 
DOCKED: ATOM      7  C   UNL     1      27.366 -11.277  -7.525 -0.16 -0.00    +0.000 A 
DOCKED: ATOM      8  C   UNL     1      28.189 -12.369  -7.840 -0.19 -0.00    +0.000 A 
DOCKED: ATOM      9  C   UNL     1      28.537 -13.299  -6.857 -0.25 -0.00    +0.000 A 
DOCKED: ATOM     10  C   UNL     1      28.065 -13.150  -5.546 -0.21 -0.00    +0.000 A 
DOCKED: ATOM     11  C   UNL     1      28.412 -14.077  -4.551 -0.20 -0.00    +0.000 A 
DOCKED: BRANCH   7  12
DOCKED: ATOM     12  C   UNL     1      26.975 -10.283  -8.589 -0.17 -0.00    +0.000 C 
DOCKED: BRANCH  12  13
DOCKED: ATOM     13  N   UNL     1      25.627 -10.578  -9.122 -0.29 -0.00    +0.000 N 
DOCKED: ATOM     14  H   UNL     1      25.632 -11.597  -9.175 -0.02 -0.00    +0.000 HD
DOCKED: BRANCH  13  15
DOCKED: ATOM     15  C   UNL     1      24.505 -10.292  -8.196 -0.22 -0.00    +0.000 C 
DOCKED: ATOM     16  C   UNL     1      24.258  -8.798  -7.931 -0.26 -0.00    +0.000 C 
DOCKED: ENDBRANCH  13  15
DOCKED: BRANCH  13  17
DOCKED: ATOM     17  C   UNL     1      25.395 -10.175 -10.529 -0.27 -0.00    +0.000 C 
DOCKED: ATOM     18  C   UNL     1      26.338 -10.835 -11.538 -0.32 -0.00    +0.000 C 
DOCKED: ENDBRANCH  13  17
DOCKED: ENDBRANCH  12  13
DOCKED: ENDBRANCH   7  12
DOCKED: ENDBRANCH   1   2
DOCKED: BRANCH   1  19
DOCKED: ATOM     19  O   UNL     1      27.279 -15.089  -1.238 -0.27 -0.00    +0.000 OA
DOCKED: BRANCH  19  21
DOCKED: ATOM     20  O   UNL     1      25.428 -15.574  -2.532 -0.54 -0.00    +0.000 OA
DOCKED: ATOM     21  C   UNL     1      26.128 -15.834  -1.514 -0.47 -0.00    +0.000 C 
DOCKED: ATOM     22  N   UNL     1      25.777 -16.922  -0.649 -0.51 -0.00    +0.000 N 
DOCKED: ATOM     23  H   UNL     1      26.452 -17.232  -0.004 -0.03 -0.00    +0.000 HD
DOCKED: BRANCH  22  24
DOCKED: ATOM     24  C   UNL     1      24.505 -17.591  -0.664 -0.64 -0.00    +0.000 A 
DOCKED: ATOM     25  C   UNL     1      23.329 -16.831  -0.710 -0.47 -0.00    +0.000 A 
DOCKED: ATOM     26  C   UNL     1      22.079 -17.456  -0.753 -0.62 -0.00    +0.000 A 
DOCKED: ATOM     27  C   UNL     1      21.983 -18.859  -0.765 -0.75 -0.00    +0.000 A 
DOCKED: ATOM     28  C   UNL     1      23.165 -19.619  -0.753 -0.38 -0.00    +0.000 A 
DOCKED: ATOM     29  C   UNL     1      24.414 -18.994  -0.705 -0.46 -0.00    +0.000 A 
DOCKED: BRANCH  27  30
DOCKED: ATOM     30  C   UNL     1      20.664 -19.538  -0.824 -0.87 -0.00    +0.000 C 
DOCKED: ATOM     31  N   UNL     1      20.004 -19.989   0.363 -0.72 -0.00    +0.000 N 
DOCKED: ATOM     32  O   UNL     1      18.759 -20.513   0.290 -0.94 -0.00    +0.000 OA
DOCKED: ATOM     33  O   UNL     1      20.118 -19.736  -1.944 -2.37 -0.00    +0.000 OA
DOCKED: ATOM     34  H   UNL     1      20.456 -19.918   1.235 -0.22 -0.00    +0.000 HD
DOCKED: ENDBRANCH  27  30
DOCKED: ENDBRANCH  22  24
DOCKED: ENDBRANCH  19  21
DOCKED: ENDBRANCH   1  19
DOCKED: TORSDOF 9
DOCKED: TER
DOCKED: ENDMDL
________________________________________________________________________________


	BEGINNING GENETIC ALGORITHM DOCKING 8 of 100
Run: 8 Seed: 2100525260 1098879022 [ Run 8 of 100 GA/GALS ]
Beginning LAMARCKIAN GENETIC ALGORITHM (LGA), with a maximum of 2500000 energy evaluations.

Final-Value: -15.884


	FINAL GENETIC ALGORITHM DOCKED STATE
	_______________________________________________


Detailed state:  trans 26.425 -16.324 1.441 quatxyzw 0.053108 -0.563773 0.587999 0.577578 center 1.436 0.069 -0.007 ntor 9 -53.1287 -174.1709 63.9565 101.2385 -44.5060 -175.6085 -153.3952 -21.5671 11.4205
State:	 26.425 -16.324   1.441   0.065 -0.691  0.720 109.439    -53.13 -174.17   63.96  101.24  -44.51 -175.61 -153.40  -21.57   11.42

DOCKED: MODEL        8
DOCKED: USER    Run = 8
DOCKED: USER    DPF = ligand_dock.biased.dpf
DOCKED: USER  
DOCKED: USER    Estimated Free Energy of Binding    =  -11.33 kcal/mol  [=(1)+(2)+(3)-(4)]
DOCKED: USER    Estimated Inhibition Constant, Ki   =    4.95 nM (nanomolar)  [Temperature = 298.15 K]
DOCKED: USER    
DOCKED: USER    (1) Final Intermolecular Energy     =  -14.02 kcal/mol
DOCKED: USER        vdW + Hbond + desolv Energy     =  -14.02 kcal/mol
DOCKED: USER        Electrostatic Energy            =   +0.00 kcal/mol
DOCKED: USER    (2) Final Total Internal Energy     =   -1.87 kcal/mol
DOCKED: USER    (3) Torsional Free Energy           =   +2.68 kcal/mol
DOCKED: USER    (4) Unbound System's Energy  [=(2)] =   -1.87 kcal/mol
DOCKED: USER    
DOCKED: USER    
DOCKED: USER    NEWDPF move ligand.pdbqt
DOCKED: USER    NEWDPF about 1.436000 0.069000 -0.007000
DOCKED: USER    NEWDPF tran0 26.424767 -16.324045 1.441408
DOCKED: USER    NEWDPF quaternion0 0.053108 -0.563773 0.587999 0.577578
DOCKED: USER    NEWDPF axisangle0 0.065057 -0.690614 0.720291 109.439298
DOCKED: USER    NEWDPF quat0 0.065057 -0.690614 0.720291 109.439298
DOCKED: USER    NEWDPF dihe0 -53.13 -174.17 63.96 101.24 -44.51 -175.61 -153.40 -21.57 11.42 
DOCKED: USER  keepresnum = 1 
DOCKED: USER  
DOCKED: REMARK  Name = 
DOCKED: REMARK  11 active torsions:
DOCKED: REMARK  status: ('A' for Active; 'I' for Inactive)
DOCKED: REMARK    1  A    between atoms: C_2  and  O_3
DOCKED: REMARK    2  A    between atoms: O_3  and  C_4
DOCKED: REMARK    3  A    between atoms: C_4  and  C_5
DOCKED: REMARK    4  A    between atoms: C_10  and  C_11
DOCKED: REMARK    5  A    between atoms: C_11  and  N_12
DOCKED: REMARK    6  A    between atoms: N_12  and  C_13
DOCKED: REMARK    7  A    between atoms: N_12  and  C_15
DOCKED: REMARK    8  A    between atoms: C_13  and  C_14
DOCKED: REMARK    9  A    between atoms: C_15  and  C_16
DOCKED: REMARK   10  A    between atoms: N_21  and  C_22
DOCKED: REMARK   11  A    between atoms: C_25  and  C_26
DOCKED: REMARK                            x       y       z     vdW  Elec       q    Type
DOCKED: REMARK                         _______ _______ _______ _____ _____    ______ ____
DOCKED: USER                              x       y       z     vdW  Elec       q    Type
DOCKED: USER                           _______ _______ _______ _____ _____    ______ ____
DOCKED: ROOT
DOCKED: ATOM      1  C   UNL     1      28.925 -15.566  -1.495 -0.19 -0.00    +0.000 C 
DOCKED: ENDROOT
DOCKED: BRANCH   1   2
DOCKED: ATOM      2  C   UNL     1      28.464 -14.843  -0.258 -0.18 -0.00    +0.000 A 
DOCKED: ATOM      3  C   UNL     1      27.287 -14.078  -0.276 -0.22 -0.00    +0.000 A 
DOCKED: ATOM      4  C   UNL     1      26.850 -13.425   0.880 -0.27 -0.00    +0.000 A 
DOCKED: ATOM      5  C   UNL     1      27.584 -13.531   2.070 -0.27 -0.00    +0.000 A 
DOCKED: ATOM      6  C   UNL     1      27.149 -12.882   3.236 -0.25 -0.00    +0.000 A 
DOCKED: ATOM      7  C   UNL     1      27.883 -12.996   4.427 -0.39 -0.00    +0.000 A 
DOCKED: ATOM      8  C   UNL     1      29.063 -13.756   4.443 -0.35 -0.00    +0.000 A 
DOCKED: ATOM      9  C   UNL     1      29.504 -14.405   3.286 -0.23 -0.00    +0.000 A 
DOCKED: ATOM     10  C   UNL     1      28.771 -14.299   2.096 -0.17 -0.00    +0.000 A 
DOCKED: ATOM     11  C   UNL     1      29.203 -14.949   0.930 -0.04 -0.00    +0.000 A 
DOCKED: BRANCH   7  12
DOCKED: ATOM     12  C   UNL     1      27.417 -12.282   5.669 -0.13 +0.00    +0.000 C 
DOCKED: BRANCH  12  13
DOCKED: ATOM     13  N   UNL     1      28.351 -11.197   6.040 -0.36 +0.00    +0.000 N 
DOCKED: ATOM     14  H   UNL     1      27.727 -10.500   6.447 -0.04 +0.00    +0.000 HD
DOCKED: BRANCH  13  15
DOCKED: ATOM     15  C   UNL     1      29.278 -11.514   7.152 -0.33 -0.00    +0.000 C 
DOCKED: ATOM     16  C   UNL     1      28.944 -12.805   7.917 -0.43 -0.00    +0.000 C 
DOCKED: ENDBRANCH  13  15
DOCKED: BRANCH  13  17
DOCKED: ATOM     17  C   UNL     1      28.963 -10.466   4.904 -0.22 +0.00    +0.000 C 
DOCKED: ATOM     18  C   UNL     1      28.512  -9.009   4.774 -0.22 +0.00    +0.000 C 
DOCKED: ENDBRANCH  13  17
DOCKED: ENDBRANCH  12  13
DOCKED: ENDBRANCH   7  12
DOCKED: ENDBRANCH   1   2
DOCKED: BRANCH   1  19
DOCKED: ATOM     19  O   UNL     1      28.656 -16.963  -1.386 -0.34 -0.00    +0.000 OA
DOCKED: BRANCH  19  21
DOCKED: ATOM     20  O   UNL     1      27.369 -18.582  -0.355 -0.53 -0.00    +0.000 OA
DOCKED: ATOM     21  C   UNL     1      27.425 -17.479  -0.966 -0.45 -0.00    +0.000 C 
DOCKED: ATOM     22  N   UNL     1      26.233 -16.718  -1.203 -0.47 -0.00    +0.000 N 
DOCKED: ATOM     23  H   UNL     1      26.335 -15.779  -1.478 -0.00 -0.00    +0.000 HD
DOCKED: BRANCH  22  24
DOCKED: ATOM     24  C   UNL     1      24.900 -17.237  -1.063 -0.60 -0.00    +0.000 A 
DOCKED: ATOM     25  C   UNL     1      24.676 -18.610  -1.225 -0.38 -0.00    +0.000 A 
DOCKED: ATOM     26  C   UNL     1      23.394 -19.146  -1.068 -0.68 -0.00    +0.000 A 
DOCKED: ATOM     27  C   UNL     1      22.310 -18.315  -0.732 -0.75 -0.00    +0.000 A 
DOCKED: ATOM     28  C   UNL     1      22.543 -16.943  -0.536 -0.48 -0.00    +0.000 A 
DOCKED: ATOM     29  C   UNL     1      23.825 -16.407  -0.698 -0.06 -0.00    +0.000 A 
DOCKED: BRANCH  27  30
DOCKED: ATOM     30  C   UNL     1      20.946 -18.869  -0.547 -0.84 -0.00    +0.000 C 
DOCKED: ATOM     31  N   UNL     1      20.733 -20.124   0.108 -0.68 -0.00    +0.000 N 
DOCKED: ATOM     32  O   UNL     1      19.475 -20.558   0.354 -0.98 -0.00    +0.000 OA
DOCKED: ATOM     33  O   UNL     1      19.952 -18.231  -0.989 -1.88 -0.00    +0.000 OA
DOCKED: ATOM     34  H   UNL     1      21.504 -20.673   0.382 -0.59 -0.00    +0.000 HD
DOCKED: ENDBRANCH  27  30
DOCKED: ENDBRANCH  22  24
DOCKED: ENDBRANCH  19  21
DOCKED: ENDBRANCH   1  19
DOCKED: TORSDOF 9
DOCKED: TER
DOCKED: ENDMDL
________________________________________________________________________________


	BEGINNING GENETIC ALGORITHM DOCKING 9 of 100
Run: 9 Seed: 785764482 96957814 [ Run 9 of 100 GA/GALS ]
Beginning LAMARCKIAN GENETIC ALGORITHM (LGA), with a maximum of 2500000 energy evaluations.

Final-Value: -14.980


	FINAL GENETIC ALGORITHM DOCKED STATE
	_______________________________________________


Detailed state:  trans 27.309 -13.892 -2.424 quatxyzw -0.254833 -0.302830 -0.851755 -0.343318 center 1.436 0.069 -0.007 ntor 9 84.1264 65.5253 179.0601 -118.3235 125.1211 -109.5208 -139.3493 -5.4808 -162.5898
State:	 27.309 -13.892  -2.424  -0.271 -0.322 -0.907 -139.842     84.13   65.53  179.06 -118.32  125.12 -109.52 -139.35   -5.48 -162.59

DOCKED: MODEL        9
DOCKED: USER    Run = 9
DOCKED: USER    DPF = ligand_dock.biased.dpf
DOCKED: USER  
DOCKED: USER    Estimated Free Energy of Binding    =  -10.56 kcal/mol  [=(1)+(2)+(3)-(4)]
DOCKED: USER    Estimated Inhibition Constant, Ki   =   18.14 nM (nanomolar)  [Temperature = 298.15 K]
DOCKED: USER    
DOCKED: USER    (1) Final Intermolecular Energy     =  -13.25 kcal/mol
DOCKED: USER        vdW + Hbond + desolv Energy     =  -13.25 kcal/mol
DOCKED: USER        Electrostatic Energy            =   +0.00 kcal/mol
DOCKED: USER    (2) Final Total Internal Energy     =   -1.73 kcal/mol
DOCKED: USER    (3) Torsional Free Energy           =   +2.68 kcal/mol
DOCKED: USER    (4) Unbound System's Energy  [=(2)] =   -1.73 kcal/mol
DOCKED: USER    
DOCKED: USER    
DOCKED: USER    NEWDPF move ligand.pdbqt
DOCKED: USER    NEWDPF about 1.436000 0.069000 -0.007000
DOCKED: USER    NEWDPF tran0 27.308791 -13.892179 -2.424355
DOCKED: USER    NEWDPF quaternion0 -0.254833 -0.302830 -0.851755 -0.343318
DOCKED: USER    NEWDPF axisangle0 -0.271325 -0.322428 -0.906876 -139.841745
DOCKED: USER    NEWDPF quat0 -0.271325 -0.322428 -0.906876 -139.841745
DOCKED: USER    NEWDPF dihe0 84.13 65.53 179.06 -118.32 125.12 -109.52 -139.35 -5.48 -162.59 
DOCKED: USER  keepresnum = 1 
DOCKED: USER  
DOCKED: REMARK  Name = 
DOCKED: REMARK  11 active torsions:
DOCKED: REMARK  status: ('A' for Active; 'I' for Inactive)
DOCKED: REMARK    1  A    between atoms: C_2  and  O_3
DOCKED: REMARK    2  A    between atoms: O_3  and  C_4
DOCKED: REMARK    3  A    between atoms: C_4  and  C_5
DOCKED: REMARK    4  A    between atoms: C_10  and  C_11
DOCKED: REMARK    5  A    between atoms: C_11  and  N_12
DOCKED: REMARK    6  A    between atoms: N_12  and  C_13
DOCKED: REMARK    7  A    between atoms: N_12  and  C_15
DOCKED: REMARK    8  A    between atoms: C_13  and  C_14
DOCKED: REMARK    9  A    between atoms: C_15  and  C_16
DOCKED: REMARK   10  A    between atoms: N_21  and  C_22
DOCKED: REMARK   11  A    between atoms: C_25  and  C_26
DOCKED: REMARK                            x       y       z     vdW  Elec       q    Type
DOCKED: REMARK                         _______ _______ _______ _____ _____    ______ ____
DOCKED: USER                              x       y       z     vdW  Elec       q    Type
DOCKED: USER                           _______ _______ _______ _____ _____    ______ ____
DOCKED: ROOT
DOCKED: ATOM      1  C   UNL     1      30.035 -16.122  -0.679 -0.17 -0.00    +0.000 C 
DOCKED: ENDROOT
DOCKED: BRANCH   1   2
DOCKED: ATOM      2  C   UNL     1      29.957 -15.305  -1.941 -0.09 -0.00    +0.000 A 
DOCKED: ATOM      3  C   UNL     1      30.540 -14.030  -2.002 -0.03 -0.00    +0.000 A 
DOCKED: ATOM      4  C   UNL     1      30.485 -13.282  -3.181 -0.02 -0.00    +0.000 A 
DOCKED: ATOM      5  C   UNL     1      29.848 -13.802  -4.317 -0.07 -0.00    +0.000 A 
DOCKED: ATOM      6  C   UNL     1      29.793 -13.060  -5.507 -0.09 -0.00    +0.000 A 
DOCKED: ATOM      7  C   UNL     1      29.158 -13.587  -6.643 -0.25 -0.00    +0.000 A 
DOCKED: ATOM      8  C   UNL     1      28.570 -14.860  -6.580 -0.29 -0.00    +0.000 A 
DOCKED: ATOM      9  C   UNL     1      28.620 -15.605  -5.399 -0.34 -0.00    +0.000 A 
DOCKED: ATOM     10  C   UNL     1      29.257 -15.086  -4.264 -0.18 -0.00    +0.000 A 
DOCKED: ATOM     11  C   UNL     1      29.315 -15.828  -3.074 -0.18 -0.00    +0.000 A 
DOCKED: BRANCH   7  12
DOCKED: ATOM     12  C   UNL     1      29.090 -12.775  -7.911 -0.26 -0.00    +0.000 C 
DOCKED: BRANCH  12  13
DOCKED: ATOM     13  N   UNL     1      30.444 -12.399  -8.373 -0.14 -0.00    +0.000 N 
DOCKED: ATOM     14  H   UNL     1      30.718 -11.689  -7.694 +0.00 -0.00    +0.000 HD
DOCKED: BRANCH  13  15
DOCKED: ATOM     15  C   UNL     1      31.481 -13.445  -8.208 -0.15 -0.00    +0.000 C 
DOCKED: ATOM     16  C   UNL     1      32.250 -13.794  -9.492 -0.15 -0.00    +0.000 C 
DOCKED: ENDBRANCH  13  15
DOCKED: BRANCH  13  17
DOCKED: ATOM     17  C   UNL     1      30.497 -11.663  -9.660 -0.14 -0.00    +0.000 C 
DOCKED: ATOM     18  C   UNL     1      29.156 -11.579 -10.394 -0.22 -0.00    +0.000 C 
DOCKED: ENDBRANCH  13  17
DOCKED: ENDBRANCH  12  13
DOCKED: ENDBRANCH   7  12
DOCKED: ENDBRANCH   1   2
DOCKED: BRANCH   1  19
DOCKED: ATOM     19  O   UNL     1      29.026 -15.712   0.243 -0.23 -0.00    +0.000 OA
DOCKED: BRANCH  19  21
DOCKED: ATOM     20  O   UNL     1      26.871 -14.881   0.258 -0.35 -0.00    +0.000 OA
DOCKED: ATOM     21  C   UNL     1      27.656 -15.831  -0.013 -0.33 -0.00    +0.000 C 
DOCKED: ATOM     22  N   UNL     1      27.162 -17.029  -0.626 -0.45 -0.00    +0.000 N 
DOCKED: ATOM     23  H   UNL     1      27.819 -17.648  -1.019 -0.06 -0.00    +0.000 HD
DOCKED: BRANCH  22  24
DOCKED: ATOM     24  C   UNL     1      25.772 -17.386  -0.704 -0.56 -0.00    +0.000 A 
DOCKED: ATOM     25  C   UNL     1      24.821 -16.393  -0.973 -0.47 -0.00    +0.000 A 
DOCKED: ATOM     26  C   UNL     1      23.465 -16.717  -1.081 -0.37 -0.00    +0.000 A 
DOCKED: ATOM     27  C   UNL     1      23.036 -18.048  -0.935 -0.72 -0.00    +0.000 A 
DOCKED: ATOM     28  C   UNL     1      23.995 -19.048  -0.699 -0.54 -0.00    +0.000 A 
DOCKED: ATOM     29  C   UNL     1      25.350 -18.722  -0.585 -0.39 -0.00    +0.000 A 
DOCKED: BRANCH  27  30
DOCKED: ATOM     30  C   UNL     1      21.602 -18.410  -1.061 -0.76 -0.00    +0.000 C 
DOCKED: ATOM     31  N   UNL     1      21.198 -19.728  -1.446 -0.68 -0.00    +0.000 N 
DOCKED: ATOM     32  O   UNL     1      19.887 -20.062  -1.454 -2.08 -0.00    +0.000 OA
DOCKED: ATOM     33  O   UNL     1      20.719 -17.537  -0.839 -2.10 -0.00    +0.000 OA
DOCKED: ATOM     34  H   UNL     1      21.875 -20.395  -1.705 -0.39 -0.00    +0.000 HD
DOCKED: ENDBRANCH  27  30
DOCKED: ENDBRANCH  22  24
DOCKED: ENDBRANCH  19  21
DOCKED: ENDBRANCH   1  19
DOCKED: TORSDOF 9
DOCKED: TER
DOCKED: ENDMDL
________________________________________________________________________________


	BEGINNING GENETIC ALGORITHM DOCKING 10 of 100
Run: 10 Seed: 118180481 1111368453 [ Run 10 of 100 GA/GALS ]
Beginning LAMARCKIAN GENETIC ALGORITHM (LGA), with a maximum of 2500000 energy evaluations.

Final-Value: -16.039


	FINAL GENETIC ALGORITHM DOCKED STATE
	_______________________________________________


Detailed state:  trans 27.991 -11.783 1.980 quatxyzw -0.752353 -0.260095 0.600369 0.076637 center 1.436 0.069 -0.007 ntor 9 102.5961 -162.4199 175.6428 -144.7837 159.6057 -171.7681 177.2975 -163.5436 161.1896
State:	 27.991 -11.783   1.980  -0.755 -0.261  0.602 171.209    102.60 -162.42  175.64 -144.78  159.61 -171.77  177.30 -163.54  161.19

DOCKED: MODEL       10
DOCKED: USER    Run = 10
DOCKED: USER    DPF = ligand_dock.biased.dpf
DOCKED: USER  
DOCKED: USER    Estimated Free Energy of Binding    =  -11.87 kcal/mol  [=(1)+(2)+(3)-(4)]
DOCKED: USER    Estimated Inhibition Constant, Ki   =    2.00 nM (nanomolar)  [Temperature = 298.15 K]
DOCKED: USER    
DOCKED: USER    (1) Final Intermolecular Energy     =  -14.55 kcal/mol
DOCKED: USER        vdW + Hbond + desolv Energy     =  -14.55 kcal/mol
DOCKED: USER        Electrostatic Energy            =   +0.00 kcal/mol
DOCKED: USER    (2) Final Total Internal Energy     =   -1.49 kcal/mol
DOCKED: USER    (3) Torsional Free Energy           =   +2.68 kcal/mol
DOCKED: USER    (4) Unbound System's Energy  [=(2)] =   -1.49 kcal/mol
DOCKED: USER    
DOCKED: USER    
DOCKED: USER    NEWDPF move ligand.pdbqt
DOCKED: USER    NEWDPF about 1.436000 0.069000 -0.007000
DOCKED: USER    NEWDPF tran0 27.991296 -11.783201 1.980355
DOCKED: USER    NEWDPF quaternion0 -0.752353 -0.260095 0.600369 0.076637
DOCKED: USER    NEWDPF axisangle0 -0.754572 -0.260862 0.602139 171.209422
DOCKED: USER    NEWDPF quat0 -0.754572 -0.260862 0.602139 171.209422
DOCKED: USER    NEWDPF dihe0 102.60 -162.42 175.64 -144.78 159.61 -171.77 177.30 -163.54 161.19 
DOCKED: USER  keepresnum = 1 
DOCKED: USER  
DOCKED: REMARK  Name = 
DOCKED: REMARK  11 active torsions:
DOCKED: REMARK  status: ('A' for Active; 'I' for Inactive)
DOCKED: REMARK    1  A    between atoms: C_2  and  O_3
DOCKED: REMARK    2  A    between atoms: O_3  and  C_4
DOCKED: REMARK    3  A    between atoms: C_4  and  C_5
DOCKED: REMARK    4  A    between atoms: C_10  and  C_11
DOCKED: REMARK    5  A    between atoms: C_11  and  N_12
DOCKED: REMARK    6  A    between atoms: N_12  and  C_13
DOCKED: REMARK    7  A    between atoms: N_12  and  C_15
DOCKED: REMARK    8  A    between atoms: C_13  and  C_14
DOCKED: REMARK    9  A    between atoms: C_15  and  C_16
DOCKED: REMARK   10  A    between atoms: N_21  and  C_22
DOCKED: REMARK   11  A    between atoms: C_25  and  C_26
DOCKED: REMARK                            x       y       z     vdW  Elec       q    Type
DOCKED: REMARK                         _______ _______ _______ _____ _____    ______ ____
DOCKED: USER                              x       y       z     vdW  Elec       q    Type
DOCKED: USER                           _______ _______ _______ _____ _____    ______ ____
DOCKED: ROOT
DOCKED: ATOM      1  C   UNL     1      29.692 -15.127   0.807 -0.09 -0.00    +0.000 C 
DOCKED: ENDROOT
DOCKED: BRANCH   1   2
DOCKED: ATOM      2  C   UNL     1      29.343 -14.502   2.130 -0.07 -0.00    +0.000 A 
DOCKED: ATOM      3  C   UNL     1      28.002 -14.290   2.488 -0.27 -0.00    +0.000 A 
DOCKED: ATOM      4  C   UNL     1      27.680 -13.730   3.727 -0.43 -0.00    +0.000 A 
DOCKED: ATOM      5  C   UNL     1      28.696 -13.376   4.627 -0.36 -0.00    +0.000 A 
DOCKED: ATOM      6  C   UNL     1      28.381 -12.818   5.875 -0.39 -0.00    +0.000 A 
DOCKED: ATOM      7  C   UNL     1      29.400 -12.470   6.775 -0.31 -0.00    +0.000 A 
DOCKED: ATOM      8  C   UNL     1      30.741 -12.677   6.415 -0.20 -0.00    +0.000 A 
DOCKED: ATOM      9  C   UNL     1      31.064 -13.232   5.174 -0.19 -0.00    +0.000 A 
DOCKED: ATOM     10  C   UNL     1      30.049 -13.586   4.274 -0.24 -0.00    +0.000 A 
DOCKED: ATOM     11  C   UNL     1      30.363 -14.147   3.027 -0.19 -0.00    +0.000 A 
DOCKED: BRANCH   7  12
DOCKED: ATOM     12  C   UNL     1      29.052 -11.856   8.106 -0.39 -0.00    +0.000 C 
DOCKED: BRANCH  12  13
DOCKED: ATOM     13  N   UNL     1      28.908 -12.895   9.148 -0.42 -0.00    +0.000 N 
DOCKED: ATOM     14  H   UNL     1      27.896 -13.020   9.194 -0.04 +0.00    +0.000 HD
DOCKED: BRANCH  13  15
DOCKED: ATOM     15  C   UNL     1      29.399 -14.242   8.770 -0.30 -0.00    +0.000 C 
DOCKED: ATOM     16  C   UNL     1      30.046 -15.034   9.918 -0.47 -0.00    +0.000 C 
DOCKED: ENDBRANCH  13  15
DOCKED: BRANCH  13  17
DOCKED: ATOM     17  C   UNL     1      29.250 -12.469  10.526 -0.38 -0.00    +0.000 C 
DOCKED: ATOM     18  C   UNL     1      28.131 -12.680  11.549 -0.41 -0.00    +0.000 C 
DOCKED: ENDBRANCH  13  17
DOCKED: ENDBRANCH  12  13
DOCKED: ENDBRANCH   7  12
DOCKED: ENDBRANCH   1   2
DOCKED: BRANCH   1  19
DOCKED: ATOM     19  O   UNL     1      28.926 -14.534  -0.242 -0.15 -0.00    +0.000 OA
DOCKED: BRANCH  19  21
DOCKED: ATOM     20  O   UNL     1      27.099 -14.508  -1.655 -0.26 -0.00    +0.000 OA
DOCKED: ATOM     21  C   UNL     1      27.723 -15.070  -0.712 -0.27 -0.00    +0.000 C 
DOCKED: ATOM     22  N   UNL     1      27.231 -16.288  -0.139 -0.37 -0.00    +0.000 N 
DOCKED: ATOM     23  H   UNL     1      27.843 -16.809   0.429 -0.24 -0.00    +0.000 HD
DOCKED: BRANCH  22  24
DOCKED: ATOM     24  C   UNL     1      25.902 -16.799  -0.341 -0.42 -0.00    +0.000 A 
DOCKED: ATOM     25  C   UNL     1      24.877 -15.921  -0.716 -0.18 -0.00    +0.000 A 
DOCKED: ATOM     26  C   UNL     1      23.582 -16.396  -0.945 +0.18 -0.00    +0.000 A 
DOCKED: ATOM     27  C   UNL     1      23.291 -17.765  -0.816 -0.70 -0.00    +0.000 A 
DOCKED: ATOM     28  C   UNL     1      24.328 -18.649  -0.473 -0.60 -0.00    +0.000 A 
DOCKED: ATOM     29  C   UNL     1      25.622 -18.174  -0.239 -0.61 -0.00    +0.000 A 
DOCKED: BRANCH  27  30
DOCKED: ATOM     30  C   UNL     1      21.925 -18.287  -1.069 -0.75 -0.00    +0.000 C 
DOCKED: ATOM     31  N   UNL     1      21.712 -19.624  -1.536 -0.48 -0.00    +0.000 N 
DOCKED: ATOM     32  O   UNL     1      20.455 -20.108  -1.662 -2.11 -0.00    +0.000 OA
DOCKED: ATOM     33  O   UNL     1      20.928 -17.536  -0.884 -2.04 -0.00    +0.000 OA
DOCKED: ATOM     34  H   UNL     1      22.483 -20.192  -1.767 -0.41 -0.00    +0.000 HD
DOCKED: ENDBRANCH  27  30
DOCKED: ENDBRANCH  22  24
DOCKED: ENDBRANCH  19  21
DOCKED: ENDBRANCH   1  19
DOCKED: TORSDOF 9
DOCKED: TER
DOCKED: ENDMDL
________________________________________________________________________________


	BEGINNING GENETIC ALGORITHM DOCKING 11 of 100
Run: 11 Seed: 499450713 2125468451 [ Run 11 of 100 GA/GALS ]
Beginning LAMARCKIAN GENETIC ALGORITHM (LGA), with a maximum of 2500000 energy evaluations.

Final-Value: -15.896


	FINAL GENETIC ALGORITHM DOCKED STATE
	_______________________________________________


Detailed state:  trans 28.426 -16.932 2.305 quatxyzw 0.022136 -0.709177 0.469049 0.525899 center 1.436 0.069 -0.007 ntor 9 -172.9588 -158.5816 -39.8618 -89.3056 91.7389 -98.8555 -162.7375 -4.2653 179.9288
State:	 28.426 -16.932   2.305   0.026 -0.834  0.551 116.542   -172.96 -158.58  -39.86  -89.31   91.74  -98.86 -162.74   -4.27  179.93

DOCKED: MODEL       11
DOCKED: USER    Run = 11
DOCKED: USER    DPF = ligand_dock.biased.dpf
DOCKED: USER  
DOCKED: USER    Estimated Free Energy of Binding    =  -11.40 kcal/mol  [=(1)+(2)+(3)-(4)]
DOCKED: USER    Estimated Inhibition Constant, Ki   =    4.41 nM (nanomolar)  [Temperature = 298.15 K]
DOCKED: USER    
DOCKED: USER    (1) Final Intermolecular Energy     =  -14.08 kcal/mol
DOCKED: USER        vdW + Hbond + desolv Energy     =  -14.08 kcal/mol
DOCKED: USER        Electrostatic Energy            =   +0.00 kcal/mol
DOCKED: USER    (2) Final Total Internal Energy     =   -1.81 kcal/mol
DOCKED: USER    (3) Torsional Free Energy           =   +2.68 kcal/mol
DOCKED: USER    (4) Unbound System's Energy  [=(2)] =   -1.81 kcal/mol
DOCKED: USER    
DOCKED: USER    
DOCKED: USER    NEWDPF move ligand.pdbqt
DOCKED: USER    NEWDPF about 1.436000 0.069000 -0.007000
DOCKED: USER    NEWDPF tran0 28.425789 -16.931886 2.304897
DOCKED: USER    NEWDPF quaternion0 0.022136 -0.709177 0.469049 0.525899
DOCKED: USER    NEWDPF axisangle0 0.026026 -0.833790 0.551468 116.542383
DOCKED: USER    NEWDPF quat0 0.026026 -0.833790 0.551468 116.542383
DOCKED: USER    NEWDPF dihe0 -172.96 -158.58 -39.86 -89.31 91.74 -98.86 -162.74 -4.27 179.93 
DOCKED: USER  keepresnum = 1 
DOCKED: USER  
DOCKED: REMARK  Name = 
DOCKED: REMARK  11 active torsions:
DOCKED: REMARK  status: ('A' for Active; 'I' for Inactive)
DOCKED: REMARK    1  A    between atoms: C_2  and  O_3
DOCKED: REMARK    2  A    between atoms: O_3  and  C_4
DOCKED: REMARK    3  A    between atoms: C_4  and  C_5
DOCKED: REMARK    4  A    between atoms: C_10  and  C_11
DOCKED: REMARK    5  A    between atoms: C_11  and  N_12
DOCKED: REMARK    6  A    between atoms: N_12  and  C_13
DOCKED: REMARK    7  A    between atoms: N_12  and  C_15
DOCKED: REMARK    8  A    between atoms: C_13  and  C_14
DOCKED: REMARK    9  A    between atoms: C_15  and  C_16
DOCKED: REMARK   10  A    between atoms: N_21  and  C_22
DOCKED: REMARK   11  A    between atoms: C_25  and  C_26
DOCKED: REMARK                            x       y       z     vdW  Elec       q    Type
DOCKED: REMARK                         _______ _______ _______ _____ _____    ______ ____
DOCKED: USER                              x       y       z     vdW  Elec       q    Type
DOCKED: USER                           _______ _______ _______ _____ _____    ______ ____
DOCKED: ROOT
DOCKED: ATOM      1  C   UNL     1      30.284 -15.110  -0.640 -0.11 -0.00    +0.000 C 
DOCKED: ENDROOT
DOCKED: BRANCH   1   2
DOCKED: ATOM      2  C   UNL     1      30.090 -14.859   0.831 -0.12 -0.00    +0.000 A 
DOCKED: ATOM      3  C   UNL     1      30.922 -15.479   1.776 +0.06 -0.00    +0.000 A 
DOCKED: ATOM      4  C   UNL     1      30.754 -15.227   3.140 -0.09 -0.00    +0.000 A 
DOCKED: ATOM      5  C   UNL     1      29.752 -14.349   3.578 -0.27 -0.00    +0.000 A 
DOCKED: ATOM      6  C   UNL     1      29.580 -14.087   4.946 -0.35 -0.00    +0.000 A 
DOCKED: ATOM      7  C   UNL     1      28.580 -13.203   5.378 -0.40 -0.00    +0.000 A 
DOCKED: ATOM      8  C   UNL     1      27.744 -12.587   4.433 -0.34 -0.00    +0.000 A 
DOCKED: ATOM      9  C   UNL     1      27.908 -12.843   3.069 -0.27 -0.00    +0.000 A 
DOCKED: ATOM     10  C   UNL     1      28.909 -13.720   2.632 -0.22 -0.00    +0.000 A 
DOCKED: ATOM     11  C   UNL     1      29.084 -13.981   1.264 -0.15 -0.00    +0.000 A 
DOCKED: BRANCH   7  12
DOCKED: ATOM     12  C   UNL     1      28.392 -12.941   6.850 -0.31 -0.00    +0.000 C 
DOCKED: BRANCH  12  13
DOCKED: ATOM     13  N   UNL     1      29.639 -13.211   7.600 -0.36 -0.00    +0.000 N 
DOCKED: ATOM     14  H   UNL     1      29.958 -14.087   7.186 -0.27 -0.00    +0.000 HD
DOCKED: BRANCH  13  15
DOCKED: ATOM     15  C   UNL     1      30.757 -12.278   7.323 -0.21 -0.00    +0.000 C 
DOCKED: ATOM     16  C   UNL     1      32.101 -12.960   7.021 -0.15 -0.00    +0.000 C 
DOCKED: ENDBRANCH  13  15
DOCKED: BRANCH  13  17
DOCKED: ATOM     17  C   UNL     1      29.459 -13.567   9.028 -0.44 -0.00    +0.000 C 
DOCKED: ATOM     18  C   UNL     1      30.168 -14.856   9.450 -0.43 -0.00    +0.000 C 
DOCKED: ENDBRANCH  13  17
DOCKED: ENDBRANCH  12  13
DOCKED: ENDBRANCH   7  12
DOCKED: ENDBRANCH   1   2
DOCKED: BRANCH   1  19
DOCKED: ATOM     19  O   UNL     1      30.032 -16.479  -0.950 -0.19 -0.00    +0.000 OA
DOCKED: BRANCH  19  21
DOCKED: ATOM     20  O   UNL     1      28.678 -18.336  -0.712 -0.25 -0.00    +0.000 OA
DOCKED: ATOM     21  C   UNL     1      28.777 -17.081  -0.808 -0.31 -0.00    +0.000 C 
DOCKED: ATOM     22  N   UNL     1      27.610 -16.252  -0.730 -0.34 -0.00    +0.000 N 
DOCKED: ATOM     23  H   UNL     1      27.741 -15.287  -0.588 -0.00 -0.00    +0.000 HD
DOCKED: BRANCH  22  24
DOCKED: ATOM     24  C   UNL     1      26.262 -16.738  -0.845 -0.47 -0.00    +0.000 A 
DOCKED: ATOM     25  C   UNL     1      25.854 -17.826  -0.063 -0.56 -0.00    +0.000 A 
DOCKED: ATOM     26  C   UNL     1      24.540 -18.301  -0.136 -0.60 -0.00    +0.000 A 
DOCKED: ATOM     27  C   UNL     1      23.605 -17.685  -0.985 -0.68 -0.00    +0.000 A 
DOCKED: ATOM     28  C   UNL     1      24.007 -16.572  -1.743 -0.20 -0.00    +0.000 A 
DOCKED: ATOM     29  C   UNL     1      25.322 -16.100  -1.674 -0.49 -0.00    +0.000 A 
DOCKED: BRANCH  27  30
DOCKED: ATOM     30  C   UNL     1      22.203 -18.168  -1.063 -0.76 -0.00    +0.000 C 
DOCKED: ATOM     31  N   UNL     1      21.892 -19.475  -1.555 -0.57 -0.00    +0.000 N 
DOCKED: ATOM     32  O   UNL     1      20.617 -19.928  -1.521 -1.98 -0.00    +0.000 OA
DOCKED: ATOM     33  O   UNL     1      21.264 -17.407  -0.703 -1.80 -0.00    +0.000 OA
DOCKED: ATOM     34  H   UNL     1      22.606 -20.047  -1.920 -0.44 -0.00    +0.000 HD
DOCKED: ENDBRANCH  27  30
DOCKED: ENDBRANCH  22  24
DOCKED: ENDBRANCH  19  21
DOCKED: ENDBRANCH   1  19
DOCKED: TORSDOF 9
DOCKED: TER
DOCKED: ENDMDL
________________________________________________________________________________


	BEGINNING GENETIC ALGORITHM DOCKING 12 of 100
Run: 12 Seed: 906057370 738210135 [ Run 12 of 100 GA/GALS ]
Beginning LAMARCKIAN GENETIC ALGORITHM (LGA), with a maximum of 2500000 energy evaluations.

Final-Value: -16.329


	FINAL GENETIC ALGORITHM DOCKED STATE
	_______________________________________________


Detailed state:  trans 29.100 -18.855 -1.894 quatxyzw 0.150340 0.750657 0.164520 0.621969 center 1.436 0.069 -0.007 ntor 9 -180.0000 -32.7254 174.1364 -78.7063 -88.6240 172.4490 -44.9979 -110.4611 56.9584
State:	 29.100 -18.855  -1.894   0.192  0.959  0.210 103.080   -180.00  -32.73  174.14  -78.71  -88.62  172.45  -45.00 -110.46   56.96

DOCKED: MODEL       12
DOCKED: USER    Run = 12
DOCKED: USER    DPF = ligand_dock.biased.dpf
DOCKED: USER  
DOCKED: USER    Estimated Free Energy of Binding    =  -11.97 kcal/mol  [=(1)+(2)+(3)-(4)]
DOCKED: USER    Estimated Inhibition Constant, Ki   =    1.67 nM (nanomolar)  [Temperature = 298.15 K]
DOCKED: USER    
DOCKED: USER    (1) Final Intermolecular Energy     =  -14.66 kcal/mol
DOCKED: USER        vdW + Hbond + desolv Energy     =  -14.66 kcal/mol
DOCKED: USER        Electrostatic Energy            =   +0.00 kcal/mol
DOCKED: USER    (2) Final Total Internal Energy     =   -1.67 kcal/mol
DOCKED: USER    (3) Torsional Free Energy           =   +2.68 kcal/mol
DOCKED: USER    (4) Unbound System's Energy  [=(2)] =   -1.67 kcal/mol
DOCKED: USER    
DOCKED: USER    
DOCKED: USER    NEWDPF move ligand.pdbqt
DOCKED: USER    NEWDPF about 1.436000 0.069000 -0.007000
DOCKED: USER    NEWDPF tran0 29.099990 -18.854570 -1.893901
DOCKED: USER    NEWDPF quaternion0 0.150340 0.750657 0.164520 0.621969
DOCKED: USER    NEWDPF axisangle0 0.191995 0.958642 0.210103 103.079908
DOCKED: USER    NEWDPF quat0 0.191995 0.958642 0.210103 103.079908
DOCKED: USER    NEWDPF dihe0 -180.00 -32.73 174.14 -78.71 -88.62 172.45 -45.00 -110.46 56.96 
DOCKED: USER  keepresnum = 1 
DOCKED: USER  
DOCKED: REMARK  Name = 
DOCKED: REMARK  11 active torsions:
DOCKED: REMARK  status: ('A' for Active; 'I' for Inactive)
DOCKED: REMARK    1  A    between atoms: C_2  and  O_3
DOCKED: REMARK    2  A    between atoms: O_3  and  C_4
DOCKED: REMARK    3  A    between atoms: C_4  and  C_5
DOCKED: REMARK    4  A    between atoms: C_10  and  C_11
DOCKED: REMARK    5  A    between atoms: C_11  and  N_12
DOCKED: REMARK    6  A    between atoms: N_12  and  C_13
DOCKED: REMARK    7  A    between atoms: N_12  and  C_15
DOCKED: REMARK    8  A    between atoms: C_13  and  C_14
DOCKED: REMARK    9  A    between atoms: C_15  and  C_16
DOCKED: REMARK   10  A    between atoms: N_21  and  C_22
DOCKED: REMARK   11  A    between atoms: C_25  and  C_26
DOCKED: REMARK                            x       y       z     vdW  Elec       q    Type
DOCKED: REMARK                         _______ _______ _______ _____ _____    ______ ____
DOCKED: USER                              x       y       z     vdW  Elec       q    Type
DOCKED: USER                           _______ _______ _______ _____ _____    ______ ____
DOCKED: ROOT
DOCKED: ATOM      1  C   UNL     1      30.474 -15.211  -1.362 -0.08 -0.00    +0.000 C 
DOCKED: ENDROOT
DOCKED: BRANCH   1   2
DOCKED: ATOM      2  C   UNL     1      30.544 -16.239  -2.458 -0.11 -0.00    +0.000 A 
DOCKED: ATOM      3  C   UNL     1      30.701 -17.600  -2.150 -0.16 -0.00    +0.000 A 
DOCKED: ATOM      4  C   UNL     1      30.745 -18.556  -3.168 -0.03 -0.00    +0.000 A 
DOCKED: ATOM      5  C   UNL     1      30.629 -18.164  -4.510 -0.23 -0.00    +0.000 A 
DOCKED: ATOM      6  C   UNL     1      30.666 -19.118  -5.538 -0.32 -0.00    +0.000 A 
DOCKED: ATOM      7  C   UNL     1      30.544 -18.721  -6.879 -0.34 -0.00    +0.000 A 
DOCKED: ATOM      8  C   UNL     1      30.392 -17.360  -7.187 -0.21 -0.00    +0.000 A 
DOCKED: ATOM      9  C   UNL     1      30.354 -16.403  -6.169 -0.29 -0.00    +0.000 A 
DOCKED: ATOM     10  C   UNL     1      30.470 -16.795  -4.829 -0.22 -0.00    +0.000 A 
DOCKED: ATOM     11  C   UNL     1      30.430 -15.842  -3.799 -0.12 -0.00    +0.000 A 
DOCKED: BRANCH   7  12
DOCKED: ATOM     12  C   UNL     1      30.602 -19.752  -7.977 -0.40 -0.00    +0.000 C 
DOCKED: BRANCH  12  13
DOCKED: ATOM     13  N   UNL     1      31.019 -19.139  -9.257 -0.38 -0.00    +0.000 N 
DOCKED: ATOM     14  H   UNL     1      30.618 -18.203  -9.193 -0.06 -0.00    +0.000 HD
DOCKED: BRANCH  13  15
DOCKED: ATOM     15  C   UNL     1      32.472 -18.878  -9.390 -0.20 -0.00    +0.000 C 
DOCKED: ATOM     16  C   UNL     1      32.824 -17.526 -10.031 -0.20 -0.00    +0.000 C 
DOCKED: ENDBRANCH  13  15
DOCKED: BRANCH  13  17
DOCKED: ATOM     17  C   UNL     1      30.369 -19.693 -10.470 -0.39 -0.00    +0.000 C 
DOCKED: ATOM     18  C   UNL     1      31.276 -20.586 -11.320 -0.31 -0.00    +0.000 C 
DOCKED: ENDBRANCH  13  17
DOCKED: ENDBRANCH  12  13
DOCKED: ENDBRANCH   7  12
DOCKED: ENDBRANCH   1   2
DOCKED: BRANCH   1  19
DOCKED: ATOM     19  O   UNL     1      29.386 -15.492  -0.482 -0.18 -0.00    +0.000 OA
DOCKED: BRANCH  19  21
DOCKED: ATOM     20  O   UNL     1      27.601 -15.383  -1.944 -0.26 -0.00    +0.000 OA
DOCKED: ATOM     21  C   UNL     1      28.127 -15.911  -0.926 -0.30 -0.00    +0.000 C 
DOCKED: ATOM     22  N   UNL     1      27.462 -16.976  -0.234 -0.41 -0.00    +0.000 N 
DOCKED: ATOM     23  H   UNL     1      27.988 -17.505   0.408 -0.43 -0.00    +0.000 HD
DOCKED: BRANCH  22  24
DOCKED: ATOM     24  C   UNL     1      26.079 -17.321  -0.417 -0.53 -0.00    +0.000 A 
DOCKED: ATOM     25  C   UNL     1      25.134 -16.303  -0.595 -0.28 -0.00    +0.000 A 
DOCKED: ATOM     26  C   UNL     1      23.786 -16.612  -0.803 -0.31 -0.00    +0.000 A 
DOCKED: ATOM     27  C   UNL     1      23.360 -17.951  -0.849 -0.71 -0.00    +0.000 A 
DOCKED: ATOM     28  C   UNL     1      24.315 -18.972  -0.704 -0.52 -0.00    +0.000 A 
DOCKED: ATOM     29  C   UNL     1      25.662 -18.662  -0.492 -0.45 -0.00    +0.000 A 
DOCKED: BRANCH  27  30
DOCKED: ATOM     30  C   UNL     1      21.935 -18.296  -1.083 -0.75 -0.00    +0.000 C 
DOCKED: ATOM     31  N   UNL     1      21.561 -19.508  -1.747 -0.52 -0.00    +0.000 N 
DOCKED: ATOM     32  O   UNL     1      20.256 -19.847  -1.857 -2.35 -0.00    +0.000 OA
DOCKED: ATOM     33  O   UNL     1      21.033 -17.501  -0.702 -2.05 -0.00    +0.000 OA
DOCKED: ATOM     34  H   UNL     1      22.255 -20.096  -2.125 -0.54 -0.00    +0.000 HD
DOCKED: ENDBRANCH  27  30
DOCKED: ENDBRANCH  22  24
DOCKED: ENDBRANCH  19  21
DOCKED: ENDBRANCH   1  19
DOCKED: TORSDOF 9
DOCKED: TER
DOCKED: ENDMDL
________________________________________________________________________________


	BEGINNING GENETIC ALGORITHM DOCKING 13 of 100
Run: 13 Seed: 575936765 1489389388 [ Run 13 of 100 GA/GALS ]
Beginning LAMARCKIAN GENETIC ALGORITHM (LGA), with a maximum of 2500000 energy evaluations.

Final-Value: -14.854


	FINAL GENETIC ALGORITHM DOCKED STATE
	_______________________________________________


Detailed state:  trans 28.767 -12.739 -2.384 quatxyzw -0.717261 0.095257 0.551137 0.415585 center 1.436 0.069 -0.007 ntor 9 -153.1187 -67.1914 177.7095 -119.2023 143.2933 110.2427 -168.5971 -160.8372 24.2087
State:	 28.767 -12.739  -2.384  -0.789  0.105  0.606 130.888   -153.12  -67.19  177.71 -119.20  143.29  110.24 -168.60 -160.84   24.21

DOCKED: MODEL       13
DOCKED: USER    Run = 13
DOCKED: USER    DPF = ligand_dock.biased.dpf
DOCKED: USER  
DOCKED: USER    Estimated Free Energy of Binding    =  -10.25 kcal/mol  [=(1)+(2)+(3)-(4)]
DOCKED: USER    Estimated Inhibition Constant, Ki   =   30.81 nM (nanomolar)  [Temperature = 298.15 K]
DOCKED: USER    
DOCKED: USER    (1) Final Intermolecular Energy     =  -12.93 kcal/mol
DOCKED: USER        vdW + Hbond + desolv Energy     =  -12.93 kcal/mol
DOCKED: USER        Electrostatic Energy            =   +0.00 kcal/mol
DOCKED: USER    (2) Final Total Internal Energy     =   -1.92 kcal/mol
DOCKED: USER    (3) Torsional Free Energy           =   +2.68 kcal/mol
DOCKED: USER    (4) Unbound System's Energy  [=(2)] =   -1.92 kcal/mol
DOCKED: USER    
DOCKED: USER    
DOCKED: USER    NEWDPF move ligand.pdbqt
DOCKED: USER    NEWDPF about 1.436000 0.069000 -0.007000
DOCKED: USER    NEWDPF tran0 28.767333 -12.738629 -2.383608
DOCKED: USER    NEWDPF quaternion0 -0.717261 0.095257 0.551137 0.415585
DOCKED: USER    NEWDPF axisangle0 -0.788585 0.104729 0.605941 130.887620
DOCKED: USER    NEWDPF quat0 -0.788585 0.104729 0.605941 130.887620
DOCKED: USER    NEWDPF dihe0 -153.12 -67.19 177.71 -119.20 143.29 110.24 -168.60 -160.84 24.21 
DOCKED: USER  keepresnum = 1 
DOCKED: USER  
DOCKED: REMARK  Name = 
DOCKED: REMARK  11 active torsions:
DOCKED: REMARK  status: ('A' for Active; 'I' for Inactive)
DOCKED: REMARK    1  A    between atoms: C_2  and  O_3
DOCKED: REMARK    2  A    between atoms: O_3  and  C_4
DOCKED: REMARK    3  A    between atoms: C_4  and  C_5
DOCKED: REMARK    4  A    between atoms: C_10  and  C_11
DOCKED: REMARK    5  A    between atoms: C_11  and  N_12
DOCKED: REMARK    6  A    between atoms: N_12  and  C_13
DOCKED: REMARK    7  A    between atoms: N_12  and  C_15
DOCKED: REMARK    8  A    between atoms: C_13  and  C_14
DOCKED: REMARK    9  A    between atoms: C_15  and  C_16
DOCKED: REMARK   10  A    between atoms: N_21  and  C_22
DOCKED: REMARK   11  A    between atoms: C_25  and  C_26
DOCKED: REMARK                            x       y       z     vdW  Elec       q    Type
DOCKED: REMARK                         _______ _______ _______ _____ _____    ______ ____
DOCKED: USER                              x       y       z     vdW  Elec       q    Type
DOCKED: USER                           _______ _______ _______ _____ _____    ______ ____
DOCKED: ROOT
DOCKED: ATOM      1  C   UNL     1      29.915 -15.568   0.092 -0.16 -0.00    +0.000 C 
DOCKED: ENDROOT
DOCKED: BRANCH   1   2
DOCKED: ATOM      2  C   UNL     1      29.468 -14.137   0.223 -0.10 -0.00    +0.000 A 
DOCKED: ATOM      3  C   UNL     1      30.303 -13.088  -0.191 -0.03 -0.00    +0.000 A 
DOCKED: ATOM      4  C   UNL     1      29.877 -11.760  -0.087 -0.02 -0.00    +0.000 A 
DOCKED: ATOM      5  C   UNL     1      28.608 -11.465   0.429 -0.06 -0.00    +0.000 A 
DOCKED: ATOM      6  C   UNL     1      28.170 -10.136   0.532 -0.08 +0.00    +0.000 A 
DOCKED: ATOM      7  C   UNL     1      26.896  -9.846   1.044 -0.22 +0.00    +0.000 A 
DOCKED: ATOM      8  C   UNL     1      26.063 -10.894   1.463 -0.36 +0.00    +0.000 A 
DOCKED: ATOM      9  C   UNL     1      26.490 -12.221   1.365 -0.31 +0.00    +0.000 A 
DOCKED: ATOM     10  C   UNL     1      27.760 -12.517   0.849 -0.16 -0.00    +0.000 A 
DOCKED: ATOM     11  C   UNL     1      28.197 -13.846   0.744 -0.18 -0.00    +0.000 A 
DOCKED: BRANCH   7  12
DOCKED: ATOM     12  C   UNL     1      26.442  -8.414   1.165 -0.12 +0.00    +0.000 C 
DOCKED: BRANCH  12  13
DOCKED: ATOM     13  N   UNL     1      26.072  -7.861  -0.156 -0.22 +0.00    +0.000 N 
DOCKED: ATOM     14  H   UNL     1      26.980  -7.733  -0.602 +0.00 +0.00    +0.000 HD
DOCKED: BRANCH  13  15
DOCKED: ATOM     15  C   UNL     1      25.378  -8.806  -1.063 -0.26 +0.00    +0.000 C 
DOCKED: ATOM     16  C   UNL     1      26.199  -9.234  -2.291 -0.19 -0.00    +0.000 C 
DOCKED: ENDBRANCH  13  15
DOCKED: BRANCH  13  17
DOCKED: ATOM     17  C   UNL     1      25.515  -6.487  -0.139 -0.21 +0.00    +0.000 C 
DOCKED: ATOM     18  C   UNL     1      24.356  -6.264  -1.114 -0.22 +0.00    +0.000 C 
DOCKED: ENDBRANCH  13  17
DOCKED: ENDBRANCH  12  13
DOCKED: ENDBRANCH   7  12
DOCKED: ENDBRANCH   1   2
DOCKED: BRANCH   1  19
DOCKED: ATOM     19  O   UNL     1      29.497 -16.108  -1.161 -0.19 -0.00    +0.000 OA
DOCKED: BRANCH  19  21
DOCKED: ATOM     20  O   UNL     1      28.094 -17.484  -2.376 -0.04 -0.00    +0.000 OA
DOCKED: ATOM     21  C   UNL     1      28.289 -16.791  -1.339 -0.35 -0.00    +0.000 C 
DOCKED: ATOM     22  N   UNL     1      27.293 -16.728  -0.310 -0.40 -0.00    +0.000 N 
DOCKED: ATOM     23  H   UNL     1      27.560 -16.367   0.566 -0.18 -0.00    +0.000 HD
DOCKED: BRANCH  22  24
DOCKED: ATOM     24  C   UNL     1      25.931 -17.156  -0.473 -0.52 -0.00    +0.000 A 
DOCKED: ATOM     25  C   UNL     1      24.932 -16.201  -0.703 -0.34 -0.00    +0.000 A 
DOCKED: ATOM     26  C   UNL     1      23.603 -16.593  -0.893 -0.20 -0.00    +0.000 A 
DOCKED: ATOM     27  C   UNL     1      23.250 -17.954  -0.869 -0.71 -0.00    +0.000 A 
DOCKED: ATOM     28  C   UNL     1      24.259 -18.913  -0.672 -0.54 -0.00    +0.000 A 
DOCKED: ATOM     29  C   UNL     1      25.587 -18.520  -0.478 -0.54 -0.00    +0.000 A 
DOCKED: BRANCH  27  30
DOCKED: ATOM     30  C   UNL     1      21.847 -18.387  -1.083 -0.76 -0.00    +0.000 C 
DOCKED: ATOM     31  N   UNL     1      21.539 -19.681  -1.613 -0.48 -0.00    +0.000 N 
DOCKED: ATOM     32  O   UNL     1      20.252 -20.089  -1.703 -2.27 -0.00    +0.000 OA
DOCKED: ATOM     33  O   UNL     1      20.904 -17.597  -0.806 -2.09 -0.00    +0.000 OA
DOCKED: ATOM     34  H   UNL     1      22.265 -20.275  -1.914 -0.43 -0.00    +0.000 HD
DOCKED: ENDBRANCH  27  30
DOCKED: ENDBRANCH  22  24
DOCKED: ENDBRANCH  19  21
DOCKED: ENDBRANCH   1  19
DOCKED: TORSDOF 9
DOCKED: TER
DOCKED: ENDMDL
________________________________________________________________________________


	BEGINNING GENETIC ALGORITHM DOCKING 14 of 100
Run: 14 Seed: 1213715977 468244907 [ Run 14 of 100 GA/GALS ]
Beginning LAMARCKIAN GENETIC ALGORITHM (LGA), with a maximum of 2500000 energy evaluations.

Final-Value: -15.470


	FINAL GENETIC ALGORITHM DOCKED STATE
	_______________________________________________


Detailed state:  trans 28.441 -14.783 -3.043 quatxyzw 0.300545 0.431954 0.835459 0.158418 center 1.436 0.069 -0.007 ntor 9 -126.0757 40.6450 136.1109 -48.7126 -176.4671 -66.9528 -176.2584 7.2231 -179.9722
State:	 28.441 -14.783  -3.043   0.304  0.437  0.846 161.770   -126.08   40.65  136.11  -48.71 -176.47  -66.95 -176.26    7.22 -179.97

DOCKED: MODEL       14
DOCKED: USER    Run = 14
DOCKED: USER    DPF = ligand_dock.biased.dpf
DOCKED: USER  
DOCKED: USER    Estimated Free Energy of Binding    =  -11.02 kcal/mol  [=(1)+(2)+(3)-(4)]
DOCKED: USER    Estimated Inhibition Constant, Ki   =    8.37 nM (nanomolar)  [Temperature = 298.15 K]
DOCKED: USER    
DOCKED: USER    (1) Final Intermolecular Energy     =  -13.70 kcal/mol
DOCKED: USER        vdW + Hbond + desolv Energy     =  -13.70 kcal/mol
DOCKED: USER        Electrostatic Energy            =   +0.00 kcal/mol
DOCKED: USER    (2) Final Total Internal Energy     =   -1.77 kcal/mol
DOCKED: USER    (3) Torsional Free Energy           =   +2.68 kcal/mol
DOCKED: USER    (4) Unbound System's Energy  [=(2)] =   -1.77 kcal/mol
DOCKED: USER    
DOCKED: USER    
DOCKED: USER    NEWDPF move ligand.pdbqt
DOCKED: USER    NEWDPF about 1.436000 0.069000 -0.007000
DOCKED: USER    NEWDPF tran0 28.441095 -14.783321 -3.042500
DOCKED: USER    NEWDPF quaternion0 0.300545 0.431954 0.835459 0.158418
DOCKED: USER    NEWDPF axisangle0 0.304389 0.437479 0.846144 161.769791
DOCKED: USER    NEWDPF quat0 0.304389 0.437479 0.846144 161.769791
DOCKED: USER    NEWDPF dihe0 -126.08 40.65 136.11 -48.71 -176.47 -66.95 -176.26 7.22 -179.97 
DOCKED: USER  keepresnum = 1 
DOCKED: USER  
DOCKED: REMARK  Name = 
DOCKED: REMARK  11 active torsions:
DOCKED: REMARK  status: ('A' for Active; 'I' for Inactive)
DOCKED: REMARK    1  A    between atoms: C_2  and  O_3
DOCKED: REMARK    2  A    between atoms: O_3  and  C_4
DOCKED: REMARK    3  A    between atoms: C_4  and  C_5
DOCKED: REMARK    4  A    between atoms: C_10  and  C_11
DOCKED: REMARK    5  A    between atoms: C_11  and  N_12
DOCKED: REMARK    6  A    between atoms: N_12  and  C_13
DOCKED: REMARK    7  A    between atoms: N_12  and  C_15
DOCKED: REMARK    8  A    between atoms: C_13  and  C_14
DOCKED: REMARK    9  A    between atoms: C_15  and  C_16
DOCKED: REMARK   10  A    between atoms: N_21  and  C_22
DOCKED: REMARK   11  A    between atoms: C_25  and  C_26
DOCKED: REMARK                            x       y       z     vdW  Elec       q    Type
DOCKED: REMARK                         _______ _______ _______ _____ _____    ______ ____
DOCKED: USER                              x       y       z     vdW  Elec       q    Type
DOCKED: USER                           _______ _______ _______ _____ _____    ______ ____
DOCKED: ROOT
DOCKED: ATOM      1  C   UNL     1      30.319 -16.812  -0.249 -0.17 -0.00    +0.000 C 
DOCKED: ENDROOT
DOCKED: BRANCH   1   2
DOCKED: ATOM      2  C   UNL     1      30.553 -16.513  -1.705 -0.12 -0.00    +0.000 A 
DOCKED: ATOM      3  C   UNL     1      31.172 -15.316  -2.097 -0.04 -0.00    +0.000 A 
DOCKED: ATOM      4  C   UNL     1      31.408 -15.049  -3.448 -0.03 -0.00    +0.000 A 
DOCKED: ATOM      5  C   UNL     1      31.030 -15.980  -4.427 -0.10 -0.00    +0.000 A 
DOCKED: ATOM      6  C   UNL     1      31.268 -15.723  -5.786 -0.13 -0.00    +0.000 A 
DOCKED: ATOM      7  C   UNL     1      30.893 -16.660  -6.761 -0.27 -0.00    +0.000 A 
DOCKED: ATOM      8  C   UNL     1      30.269 -17.855  -6.370 -0.28 -0.00    +0.000 A 
DOCKED: ATOM      9  C   UNL     1      30.028 -18.119  -5.019 -0.23 -0.00    +0.000 A 
DOCKED: ATOM     10  C   UNL     1      30.405 -17.189  -4.041 -0.21 -0.00    +0.000 A 
DOCKED: ATOM     11  C   UNL     1      30.171 -17.446  -2.681 -0.16 -0.00    +0.000 A 
DOCKED: BRANCH   7  12
DOCKED: ATOM     12  C   UNL     1      31.137 -16.367  -8.219 -0.20 -0.00    +0.000 C 
DOCKED: BRANCH  12  13
DOCKED: ATOM     13  N   UNL     1      32.100 -17.329  -8.799 -0.24 -0.00    +0.000 N 
DOCKED: ATOM     14  H   UNL     1      32.357 -17.896  -7.991 +0.00 -0.00    +0.000 HD
DOCKED: BRANCH  13  15
DOCKED: ATOM     15  C   UNL     1      31.519 -18.318  -9.737 -0.31 -0.00    +0.000 C 
DOCKED: ATOM     16  C   UNL     1      30.909 -19.558  -9.063 -0.40 -0.00    +0.000 C 
DOCKED: ENDBRANCH  13  15
DOCKED: BRANCH  13  17
DOCKED: ATOM     17  C   UNL     1      33.399 -16.753  -9.223 -0.13 -0.00    +0.000 C 
DOCKED: ATOM     18  C   UNL     1      33.313 -15.316  -9.741 -0.15 -0.00    +0.000 C 
DOCKED: ENDBRANCH  13  17
DOCKED: ENDBRANCH  12  13
DOCKED: ENDBRANCH   7  12
DOCKED: ENDBRANCH   1   2
DOCKED: BRANCH   1  19
DOCKED: ATOM     19  O   UNL     1      29.407 -15.870   0.314 -0.21 -0.00    +0.000 OA
DOCKED: BRANCH  19  21
DOCKED: ATOM     20  O   UNL     1      27.288 -14.970   0.501 -0.34 -0.00    +0.000 OA
DOCKED: ATOM     21  C   UNL     1      28.027 -15.908   0.090 -0.27 -0.00    +0.000 C 
DOCKED: ATOM     22  N   UNL     1      27.470 -17.003  -0.647 -0.42 -0.00    +0.000 N 
DOCKED: ATOM     23  H   UNL     1      28.090 -17.592  -1.134 -0.05 -0.00    +0.000 HD
DOCKED: BRANCH  22  24
DOCKED: ATOM     24  C   UNL     1      26.064 -17.298  -0.722 -0.54 -0.00    +0.000 A 
DOCKED: ATOM     25  C   UNL     1      25.264 -16.604  -1.638 -0.54 -0.00    +0.000 A 
DOCKED: ATOM     26  C   UNL     1      23.900 -16.891  -1.751 -0.25 -0.00    +0.000 A 
DOCKED: ATOM     27  C   UNL     1      23.312 -17.889  -0.954 -0.70 -0.00    +0.000 A 
DOCKED: ATOM     28  C   UNL     1      24.124 -18.608  -0.060 -0.49 -0.00    +0.000 A 
DOCKED: ATOM     29  C   UNL     1      25.487 -18.318   0.056 -0.55 -0.00    +0.000 A 
DOCKED: BRANCH  27  30
DOCKED: ATOM     30  C   UNL     1      21.869 -18.215  -1.071 -0.73 -0.00    +0.000 C 
DOCKED: ATOM     31  N   UNL     1      21.429 -19.469  -1.604 -0.65 -0.00    +0.000 N 
DOCKED: ATOM     32  O   UNL     1      20.113 -19.782  -1.605 -2.29 -0.00    +0.000 OA
DOCKED: ATOM     33  O   UNL     1      21.009 -17.366  -0.709 -1.98 +0.00    +0.000 OA
DOCKED: ATOM     34  H   UNL     1      22.085 -20.106  -1.970 -0.52 -0.00    +0.000 HD
DOCKED: ENDBRANCH  27  30
DOCKED: ENDBRANCH  22  24
DOCKED: ENDBRANCH  19  21
DOCKED: ENDBRANCH   1  19
DOCKED: TORSDOF 9
DOCKED: TER
DOCKED: ENDMDL
________________________________________________________________________________


	BEGINNING GENETIC ALGORITHM DOCKING 15 of 100
Run: 15 Seed: 699580278 779358487 [ Run 15 of 100 GA/GALS ]
Beginning LAMARCKIAN GENETIC ALGORITHM (LGA), with a maximum of 2500000 energy evaluations.

Final-Value: -16.566


	FINAL GENETIC ALGORITHM DOCKED STATE
	_______________________________________________


Detailed state:  trans 28.011 -12.148 0.812 quatxyzw 0.767295 0.210655 -0.584443 -0.159089 center 1.436 0.069 -0.007 ntor 9 149.6321 98.3021 171.0443 167.9453 -173.1995 177.8555 173.1944 -154.1274 162.0500
State:	 28.011 -12.148   0.812   0.777  0.213 -0.592 -161.692    149.63   98.30  171.04  167.95 -173.20  177.86  173.19 -154.13  162.05

DOCKED: MODEL       15
DOCKED: USER    Run = 15
DOCKED: USER    DPF = ligand_dock.biased.dpf
DOCKED: USER  
DOCKED: USER    Estimated Free Energy of Binding    =  -12.24 kcal/mol  [=(1)+(2)+(3)-(4)]
DOCKED: USER    Estimated Inhibition Constant, Ki   =    1.07 nM (nanomolar)  [Temperature = 298.15 K]
DOCKED: USER    
DOCKED: USER    (1) Final Intermolecular Energy     =  -14.92 kcal/mol
DOCKED: USER        vdW + Hbond + desolv Energy     =  -14.92 kcal/mol
DOCKED: USER        Electrostatic Energy            =   +0.00 kcal/mol
DOCKED: USER    (2) Final Total Internal Energy     =   -1.65 kcal/mol
DOCKED: USER    (3) Torsional Free Energy           =   +2.68 kcal/mol
DOCKED: USER    (4) Unbound System's Energy  [=(2)] =   -1.65 kcal/mol
DOCKED: USER    
DOCKED: USER    
DOCKED: USER    NEWDPF move ligand.pdbqt
DOCKED: USER    NEWDPF about 1.436000 0.069000 -0.007000
DOCKED: USER    NEWDPF tran0 28.010563 -12.148224 0.812171
DOCKED: USER    NEWDPF quaternion0 0.767295 0.210655 -0.584443 -0.159089
DOCKED: USER    NEWDPF axisangle0 0.777193 0.213372 -0.591982 -161.691905
DOCKED: USER    NEWDPF quat0 0.777193 0.213372 -0.591982 -161.691905
DOCKED: USER    NEWDPF dihe0 149.63 98.30 171.04 167.95 -173.20 177.86 173.19 -154.13 162.05 
DOCKED: USER  keepresnum = 1 
DOCKED: USER  
DOCKED: REMARK  Name = 
DOCKED: REMARK  11 active torsions:
DOCKED: REMARK  status: ('A' for Active; 'I' for Inactive)
DOCKED: REMARK    1  A    between atoms: C_2  and  O_3
DOCKED: REMARK    2  A    between atoms: O_3  and  C_4
DOCKED: REMARK    3  A    between atoms: C_4  and  C_5
DOCKED: REMARK    4  A    between atoms: C_10  and  C_11
DOCKED: REMARK    5  A    between atoms: C_11  and  N_12
DOCKED: REMARK    6  A    between atoms: N_12  and  C_13
DOCKED: REMARK    7  A    between atoms: N_12  and  C_15
DOCKED: REMARK    8  A    between atoms: C_13  and  C_14
DOCKED: REMARK    9  A    between atoms: C_15  and  C_16
DOCKED: REMARK   10  A    between atoms: N_21  and  C_22
DOCKED: REMARK   11  A    between atoms: C_25  and  C_26
DOCKED: REMARK                            x       y       z     vdW  Elec       q    Type
DOCKED: REMARK                         _______ _______ _______ _____ _____    ______ ____
DOCKED: USER                              x       y       z     vdW  Elec       q    Type
DOCKED: USER                           _______ _______ _______ _____ _____    ______ ____
DOCKED: ROOT
DOCKED: ATOM      1  C   UNL     1      29.851 -15.596   0.392 -0.12 -0.00    +0.000 C 
DOCKED: ENDROOT
DOCKED: BRANCH   1   2
DOCKED: ATOM      2  C   UNL     1      29.373 -14.763   1.552 +0.05 -0.00    +0.000 A 
DOCKED: ATOM      3  C   UNL     1      28.001 -14.545   1.755 -0.20 -0.00    +0.000 A 
DOCKED: ATOM      4  C   UNL     1      27.558 -13.790   2.844 -0.33 -0.00    +0.000 A 
DOCKED: ATOM      5  C   UNL     1      28.483 -13.245   3.747 -0.30 -0.00    +0.000 A 
DOCKED: ATOM      6  C   UNL     1      28.046 -12.490   4.847 -0.36 -0.00    +0.000 A 
DOCKED: ATOM      7  C   UNL     1      28.975 -11.951   5.750 -0.28 -0.00    +0.000 A 
DOCKED: ATOM      8  C   UNL     1      30.347 -12.164   5.544 -0.14 -0.00    +0.000 A 
DOCKED: ATOM      9  C   UNL     1      30.790 -12.915   4.452 -0.14 -0.00    +0.000 A 
DOCKED: ATOM     10  C   UNL     1      29.867 -13.460   3.549 -0.19 -0.00    +0.000 A 
DOCKED: ATOM     11  C   UNL     1      30.302 -14.217   2.451 -0.15 -0.00    +0.000 A 
DOCKED: BRANCH   7  12
DOCKED: ATOM     12  C   UNL     1      28.497 -11.127   6.919 -0.35 +0.00    +0.000 C 
DOCKED: BRANCH  12  13
DOCKED: ATOM     13  N   UNL     1      28.890 -11.749   8.202 -0.39 -0.00    +0.000 N 
DOCKED: ATOM     14  H   UNL     1      28.107 -11.508   8.811 -0.30 +0.00    +0.000 HD
DOCKED: BRANCH  13  15
DOCKED: ATOM     15  C   UNL     1      28.884 -13.231   8.214 -0.42 -0.00    +0.000 C 
DOCKED: ATOM     16  C   UNL     1      29.019 -13.862   9.609 -0.49 -0.00    +0.000 C 
DOCKED: ENDBRANCH  13  15
DOCKED: BRANCH  13  17
DOCKED: ATOM     17  C   UNL     1      30.046 -11.122   8.887 -0.26 -0.00    +0.000 C 
DOCKED: ATOM     18  C   UNL     1      30.271  -9.652   8.527 -0.21 -0.00    +0.000 C 
DOCKED: ENDBRANCH  13  17
DOCKED: ENDBRANCH  12  13
DOCKED: ENDBRANCH   7  12
DOCKED: ENDBRANCH   1   2
DOCKED: BRANCH   1  19
DOCKED: ATOM     19  O   UNL     1      29.180 -15.212  -0.807 -0.15 -0.00    +0.000 OA
DOCKED: BRANCH  19  21
DOCKED: ATOM     20  O   UNL     1      27.362 -15.297  -2.230 -0.28 -0.00    +0.000 OA
DOCKED: ATOM     21  C   UNL     1      27.934 -15.721  -1.187 -0.29 -0.00    +0.000 C 
DOCKED: ATOM     22  N   UNL     1      27.334 -16.758  -0.400 -0.40 -0.00    +0.000 N 
DOCKED: ATOM     23  H   UNL     1      27.897 -17.211   0.268 -0.25 -0.00    +0.000 HD
DOCKED: BRANCH  22  24
DOCKED: ATOM     24  C   UNL     1      25.965 -17.180  -0.523 -0.52 -0.00    +0.000 A 
DOCKED: ATOM     25  C   UNL     1      24.985 -16.240  -0.869 -0.41 -0.00    +0.000 A 
DOCKED: ATOM     26  C   UNL     1      23.650 -16.629  -1.022 -0.28 -0.00    +0.000 A 
DOCKED: ATOM     27  C   UNL     1      23.273 -17.971  -0.844 -0.71 -0.00    +0.000 A 
DOCKED: ATOM     28  C   UNL     1      24.264 -18.918  -0.532 -0.44 -0.00    +0.000 A 
DOCKED: ATOM     29  C   UNL     1      25.597 -18.529  -0.374 -0.55 -0.00    +0.000 A 
DOCKED: BRANCH  27  30
DOCKED: ATOM     30  C   UNL     1      21.863 -18.402  -1.017 -0.78 -0.00    +0.000 C 
DOCKED: ATOM     31  N   UNL     1      21.538 -19.697  -1.532 -0.51 -0.00    +0.000 N 
DOCKED: ATOM     32  O   UNL     1      20.248 -20.103  -1.584 -2.23 -0.00    +0.000 OA
DOCKED: ATOM     33  O   UNL     1      20.930 -17.608  -0.718 -2.11 -0.00    +0.000 OA
DOCKED: ATOM     34  H   UNL     1      22.254 -20.295  -1.850 -0.43 -0.00    +0.000 HD
DOCKED: ENDBRANCH  27  30
DOCKED: ENDBRANCH  22  24
DOCKED: ENDBRANCH  19  21
DOCKED: ENDBRANCH   1  19
DOCKED: TORSDOF 9
DOCKED: TER
DOCKED: ENDMDL
________________________________________________________________________________


	BEGINNING GENETIC ALGORITHM DOCKING 16 of 100
Run: 16 Seed: 2011181003 1206635199 [ Run 16 of 100 GA/GALS ]
Beginning LAMARCKIAN GENETIC ALGORITHM (LGA), with a maximum of 2500000 energy evaluations.

Final-Value: -15.220


	FINAL GENETIC ALGORITHM DOCKED STATE
	_______________________________________________


Detailed state:  trans 26.000 -15.250 -2.007 quatxyzw 0.228753 0.271991 0.694870 0.625179 center 1.436 0.069 -0.007 ntor 9 -86.9490 45.5712 -137.7383 -48.6941 -41.5340 -101.2725 -117.4530 -46.2961 -1.9101
State:	 26.000 -15.250  -2.007   0.293  0.348  0.890 102.609    -86.95   45.57 -137.74  -48.69  -41.53 -101.27 -117.45  -46.30   -1.91

DOCKED: MODEL       16
DOCKED: USER    Run = 16
DOCKED: USER    DPF = ligand_dock.biased.dpf
DOCKED: USER  
DOCKED: USER    Estimated Free Energy of Binding    =  -10.51 kcal/mol  [=(1)+(2)+(3)-(4)]
DOCKED: USER    Estimated Inhibition Constant, Ki   =   19.84 nM (nanomolar)  [Temperature = 298.15 K]
DOCKED: USER    
DOCKED: USER    (1) Final Intermolecular Energy     =  -13.19 kcal/mol
DOCKED: USER        vdW + Hbond + desolv Energy     =  -13.19 kcal/mol
DOCKED: USER        Electrostatic Energy            =   +0.00 kcal/mol
DOCKED: USER    (2) Final Total Internal Energy     =   -2.03 kcal/mol
DOCKED: USER    (3) Torsional Free Energy           =   +2.68 kcal/mol
DOCKED: USER    (4) Unbound System's Energy  [=(2)] =   -2.03 kcal/mol
DOCKED: USER    
DOCKED: USER    
DOCKED: USER    NEWDPF move ligand.pdbqt
DOCKED: USER    NEWDPF about 1.436000 0.069000 -0.007000
DOCKED: USER    NEWDPF tran0 26.000483 -15.250380 -2.007469
DOCKED: USER    NEWDPF quaternion0 0.228753 0.271991 0.694870 0.625179
DOCKED: USER    NEWDPF axisangle0 0.293092 0.348491 0.890310 102.609352
DOCKED: USER    NEWDPF quat0 0.293092 0.348491 0.890310 102.609352
DOCKED: USER    NEWDPF dihe0 -86.95 45.57 -137.74 -48.69 -41.53 -101.27 -117.45 -46.30 -1.91 
DOCKED: USER  keepresnum = 1 
DOCKED: USER  
DOCKED: REMARK  Name = 
DOCKED: REMARK  11 active torsions:
DOCKED: REMARK  status: ('A' for Active; 'I' for Inactive)
DOCKED: REMARK    1  A    between atoms: C_2  and  O_3
DOCKED: REMARK    2  A    between atoms: O_3  and  C_4
DOCKED: REMARK    3  A    between atoms: C_4  and  C_5
DOCKED: REMARK    4  A    between atoms: C_10  and  C_11
DOCKED: REMARK    5  A    between atoms: C_11  and  N_12
DOCKED: REMARK    6  A    between atoms: N_12  and  C_13
DOCKED: REMARK    7  A    between atoms: N_12  and  C_15
DOCKED: REMARK    8  A    between atoms: C_13  and  C_14
DOCKED: REMARK    9  A    between atoms: C_15  and  C_16
DOCKED: REMARK   10  A    between atoms: N_21  and  C_22
DOCKED: REMARK   11  A    between atoms: C_25  and  C_26
DOCKED: REMARK                            x       y       z     vdW  Elec       q    Type
DOCKED: REMARK                         _______ _______ _______ _____ _____    ______ ____
DOCKED: USER                              x       y       z     vdW  Elec       q    Type
DOCKED: USER                           _______ _______ _______ _____ _____    ______ ____
DOCKED: ROOT
DOCKED: ATOM      1  C   UNL     1      29.833 -15.604  -1.212 -0.14 -0.00    +0.000 C 
DOCKED: ENDROOT
DOCKED: BRANCH   1   2
DOCKED: ATOM      2  C   UNL     1      29.011 -14.921  -2.271 -0.12 -0.00    +0.000 A 
DOCKED: ATOM      3  C   UNL     1      28.813 -15.528  -3.521 -0.21 -0.00    +0.000 A 
DOCKED: ATOM      4  C   UNL     1      28.031 -14.901  -4.496 -0.31 -0.00    +0.000 A 
DOCKED: ATOM      5  C   UNL     1      27.435 -13.660  -4.232 -0.24 -0.00    +0.000 A 
DOCKED: ATOM      6  C   UNL     1      26.644 -13.027  -5.203 -0.13 -0.00    +0.000 A 
DOCKED: ATOM      7  C   UNL     1      26.045 -11.787  -4.932 -0.27 -0.00    +0.000 A 
DOCKED: ATOM      8  C   UNL     1      26.248 -11.178  -3.684 -0.11 -0.00    +0.000 A 
DOCKED: ATOM      9  C   UNL     1      27.034 -11.801  -2.711 -0.09 -0.00    +0.000 A 
DOCKED: ATOM     10  C   UNL     1      27.630 -13.042  -2.975 -0.14 -0.00    +0.000 A 
DOCKED: ATOM     11  C   UNL     1      28.419 -13.677  -2.003 -0.10 -0.00    +0.000 A 
DOCKED: BRANCH   7  12
DOCKED: ATOM     12  C   UNL     1      25.211 -11.108  -5.988 -0.25 -0.00    +0.000 C 
DOCKED: BRANCH  12  13
DOCKED: ATOM     13  N   UNL     1      25.901  -9.913  -6.521 -0.18 -0.00    +0.000 N 
DOCKED: ATOM     14  H   UNL     1      26.750  -9.880  -5.956 +0.00 -0.00    +0.000 HD
DOCKED: BRANCH  13  15
DOCKED: ATOM     15  C   UNL     1      26.420 -10.047  -7.903 -0.19 -0.00    +0.000 C 
DOCKED: ATOM     16  C   UNL     1      27.156 -11.366  -8.187 -0.20 -0.00    +0.000 C 
DOCKED: ENDBRANCH  13  15
DOCKED: BRANCH  13  17
DOCKED: ATOM     17  C   UNL     1      25.253  -8.614  -6.219 -0.18 -0.00    +0.000 C 
DOCKED: ATOM     18  C   UNL     1      23.736  -8.695  -6.028 -0.40 -0.00    +0.000 C 
DOCKED: ENDBRANCH  13  17
DOCKED: ENDBRANCH  12  13
DOCKED: ENDBRANCH   7  12
DOCKED: ENDBRANCH   1   2
DOCKED: BRANCH   1  19
DOCKED: ATOM     19  O   UNL     1      29.033 -15.886  -0.064 -0.25 -0.00    +0.000 OA
DOCKED: BRANCH  19  21
DOCKED: ATOM     20  O   UNL     1      26.915 -15.151   0.490 -0.34 -0.00    +0.000 OA
DOCKED: ATOM     21  C   UNL     1      27.639 -15.995  -0.107 -0.34 -0.00    +0.000 C 
DOCKED: ATOM     22  N   UNL     1      27.045 -17.051  -0.871 -0.45 -0.00    +0.000 N 
DOCKED: ATOM     23  H   UNL     1      27.623 -17.549  -1.493 -0.03 -0.00    +0.000 HD
DOCKED: BRANCH  22  24
DOCKED: ATOM     24  C   UNL     1      25.660 -17.430  -0.790 -0.57 -0.00    +0.000 A 
DOCKED: ATOM     25  C   UNL     1      24.671 -16.440  -0.851 -0.44 -0.00    +0.000 A 
DOCKED: ATOM     26  C   UNL     1      23.317 -16.784  -0.801 -0.43 -0.00    +0.000 A 
DOCKED: ATOM     27  C   UNL     1      22.925 -18.130  -0.703 -0.74 -0.00    +0.000 A 
DOCKED: ATOM     28  C   UNL     1      23.919 -19.125  -0.676 -0.47 -0.00    +0.000 A 
DOCKED: ATOM     29  C   UNL     1      25.273 -18.780  -0.721 -0.34 -0.00    +0.000 A 
DOCKED: BRANCH  27  30
DOCKED: ATOM     30  C   UNL     1      21.492 -18.513  -0.663 -0.85 -0.00    +0.000 C 
DOCKED: ATOM     31  N   UNL     1      21.077 -19.799  -0.193 -0.70 -0.00    +0.000 N 
DOCKED: ATOM     32  O   UNL     1      19.760 -20.086  -0.072 -1.24 -0.00    +0.000 OA
DOCKED: ATOM     33  O   UNL     1      20.620 -17.695  -1.066 -2.17 -0.00    +0.000 OA
DOCKED: ATOM     34  H   UNL     1      21.750 -20.478   0.043 -0.58 -0.00    +0.000 HD
DOCKED: ENDBRANCH  27  30
DOCKED: ENDBRANCH  22  24
DOCKED: ENDBRANCH  19  21
DOCKED: ENDBRANCH   1  19
DOCKED: TORSDOF 9
DOCKED: TER
DOCKED: ENDMDL
________________________________________________________________________________


	BEGINNING GENETIC ALGORITHM DOCKING 17 of 100
Run: 17 Seed: 268048644 27284169 [ Run 17 of 100 GA/GALS ]
Beginning LAMARCKIAN GENETIC ALGORITHM (LGA), with a maximum of 2500000 energy evaluations.

Final-Value: -15.440


	FINAL GENETIC ALGORITHM DOCKED STATE
	_______________________________________________


Detailed state:  trans 26.619 -15.982 -2.910 quatxyzw 0.101057 -0.089355 -0.575035 -0.806931 center 1.436 0.069 -0.007 ntor 9 -129.5580 56.8337 172.8743 -179.8438 163.0177 128.6316 60.4267 -56.2910 176.7218
State:	 26.619 -15.982  -2.910   0.171 -0.151 -0.974 -72.406   -129.56   56.83  172.87 -179.84  163.02  128.63   60.43  -56.29  176.72

DOCKED: MODEL       17
DOCKED: USER    Run = 17
DOCKED: USER    DPF = ligand_dock.biased.dpf
DOCKED: USER  
DOCKED: USER    Estimated Free Energy of Binding    =  -10.72 kcal/mol  [=(1)+(2)+(3)-(4)]
DOCKED: USER    Estimated Inhibition Constant, Ki   =   13.82 nM (nanomolar)  [Temperature = 298.15 K]
DOCKED: USER    
DOCKED: USER    (1) Final Intermolecular Energy     =  -13.41 kcal/mol
DOCKED: USER        vdW + Hbond + desolv Energy     =  -13.41 kcal/mol
DOCKED: USER        Electrostatic Energy            =   +0.00 kcal/mol
DOCKED: USER    (2) Final Total Internal Energy     =   -2.03 kcal/mol
DOCKED: USER    (3) Torsional Free Energy           =   +2.68 kcal/mol
DOCKED: USER    (4) Unbound System's Energy  [=(2)] =   -2.03 kcal/mol
DOCKED: USER    
DOCKED: USER    
DOCKED: USER    NEWDPF move ligand.pdbqt
DOCKED: USER    NEWDPF about 1.436000 0.069000 -0.007000
DOCKED: USER    NEWDPF tran0 26.619099 -15.981844 -2.910171
DOCKED: USER    NEWDPF quaternion0 0.101057 -0.089355 -0.575035 -0.806931
DOCKED: USER    NEWDPF axisangle0 0.171096 -0.151284 -0.973570 -72.405717
DOCKED: USER    NEWDPF quat0 0.171096 -0.151284 -0.973570 -72.405717
DOCKED: USER    NEWDPF dihe0 -129.56 56.83 172.87 -179.84 163.02 128.63 60.43 -56.29 176.72 
DOCKED: USER  keepresnum = 1 
DOCKED: USER  
DOCKED: REMARK  Name = 
DOCKED: REMARK  11 active torsions:
DOCKED: REMARK  status: ('A' for Active; 'I' for Inactive)
DOCKED: REMARK    1  A    between atoms: C_2  and  O_3
DOCKED: REMARK    2  A    between atoms: O_3  and  C_4
DOCKED: REMARK    3  A    between atoms: C_4  and  C_5
DOCKED: REMARK    4  A    between atoms: C_10  and  C_11
DOCKED: REMARK    5  A    between atoms: C_11  and  N_12
DOCKED: REMARK    6  A    between atoms: N_12  and  C_13
DOCKED: REMARK    7  A    between atoms: N_12  and  C_15
DOCKED: REMARK    8  A    between atoms: C_13  and  C_14
DOCKED: REMARK    9  A    between atoms: C_15  and  C_16
DOCKED: REMARK   10  A    between atoms: N_21  and  C_22
DOCKED: REMARK   11  A    between atoms: C_25  and  C_26
DOCKED: REMARK                            x       y       z     vdW  Elec       q    Type
DOCKED: REMARK                         _______ _______ _______ _____ _____    ______ ____
DOCKED: USER                              x       y       z     vdW  Elec       q    Type
DOCKED: USER                           _______ _______ _______ _____ _____    ______ ____
DOCKED: ROOT
DOCKED: ATOM      1  C   UNL     1      30.214 -15.088  -1.597 -0.08 -0.00    +0.000 C 
DOCKED: ENDROOT
DOCKED: BRANCH   1   2
DOCKED: ATOM      2  C   UNL     1      29.063 -14.323  -2.192 -0.09 -0.00    +0.000 A 
DOCKED: ATOM      3  C   UNL     1      27.970 -13.946  -1.397 -0.14 -0.00    +0.000 A 
DOCKED: ATOM      4  C   UNL     1      26.911 -13.217  -1.947 -0.13 -0.00    +0.000 A 
DOCKED: ATOM      5  C   UNL     1      26.935 -12.852  -3.300 -0.19 -0.00    +0.000 A 
DOCKED: ATOM      6  C   UNL     1      25.880 -12.115  -3.859 +0.01 -0.00    +0.000 A 
DOCKED: ATOM      7  C   UNL     1      25.910 -11.747  -5.213 -0.24 -0.00    +0.000 A 
DOCKED: ATOM      8  C   UNL     1      27.001 -12.128  -6.010 -0.12 -0.00    +0.000 A 
DOCKED: ATOM      9  C   UNL     1      28.057 -12.861  -5.462 -0.19 -0.00    +0.000 A 
DOCKED: ATOM     10  C   UNL     1      28.033 -13.227  -4.109 -0.15 -0.00    +0.000 A 
DOCKED: ATOM     11  C   UNL     1      29.090 -13.961  -3.548 -0.09 -0.00    +0.000 A 
DOCKED: BRANCH   7  12
DOCKED: ATOM     12  C   UNL     1      24.764 -10.970  -5.808 -0.36 -0.00    +0.000 C 
DOCKED: BRANCH  12  13
DOCKED: ATOM     13  N   UNL     1      25.045  -9.518  -5.797 -0.25 -0.00    +0.000 N 
DOCKED: ATOM     14  H   UNL     1      24.172  -9.128  -5.442 -0.01 -0.00    +0.000 HD
DOCKED: BRANCH  13  15
DOCKED: ATOM     15  C   UNL     1      26.046  -9.075  -4.797 -0.17 -0.00    +0.000 C 
DOCKED: ATOM     16  C   UNL     1      25.465  -8.747  -3.411 -0.23 -0.00    +0.000 C 
DOCKED: ENDBRANCH  13  15
DOCKED: BRANCH  13  17
DOCKED: ATOM     17  C   UNL     1      25.171  -8.883  -7.131 -0.20 -0.00    +0.000 C 
DOCKED: ATOM     18  C   UNL     1      25.387  -9.869  -8.281 -0.27 -0.00    +0.000 C 
DOCKED: ENDBRANCH  13  17
DOCKED: ENDBRANCH  12  13
DOCKED: ENDBRANCH   7  12
DOCKED: ENDBRANCH   1   2
DOCKED: BRANCH   1  19
DOCKED: ATOM     19  O   UNL     1      29.767 -16.341  -1.083 -0.20 -0.00    +0.000 OA
DOCKED: BRANCH  19  21
DOCKED: ATOM     20  O   UNL     1      28.193 -17.199  -2.540 -0.23 -0.00    +0.000 OA
DOCKED: ATOM     21  C   UNL     1      28.506 -16.880  -1.359 -0.33 -0.00    +0.000 C 
DOCKED: ATOM     22  N   UNL     1      27.591 -17.105  -0.279 -0.41 -0.00    +0.000 N 
DOCKED: ATOM     23  H   UNL     1      27.942 -17.053   0.638 -0.38 -0.00    +0.000 HD
DOCKED: BRANCH  22  24
DOCKED: ATOM     24  C   UNL     1      26.195 -17.402  -0.449 -0.54 -0.00    +0.000 A 
DOCKED: ATOM     25  C   UNL     1      25.291 -16.354  -0.666 -0.39 -0.00    +0.000 A 
DOCKED: ATOM     26  C   UNL     1      23.931 -16.616  -0.862 -0.37 -0.00    +0.000 A 
DOCKED: ATOM     27  C   UNL     1      23.452 -17.938  -0.857 -0.71 -0.00    +0.000 A 
DOCKED: ATOM     28  C   UNL     1      24.366 -18.990  -0.673 -0.46 -0.00    +0.000 A 
DOCKED: ATOM     29  C   UNL     1      25.724 -18.727  -0.473 -0.38 -0.00    +0.000 A 
DOCKED: BRANCH  27  30
DOCKED: ATOM     30  C   UNL     1      22.014 -18.234  -1.077 -0.75 -0.00    +0.000 C 
DOCKED: ATOM     31  N   UNL     1      21.592 -19.442  -1.719 -0.58 -0.00    +0.000 N 
DOCKED: ATOM     32  O   UNL     1      20.275 -19.735  -1.816 -2.35 -0.00    +0.000 OA
DOCKED: ATOM     33  O   UNL     1      21.144 -17.400  -0.706 -1.90 -0.00    +0.000 OA
DOCKED: ATOM     34  H   UNL     1      22.261 -20.062  -2.091 -0.52 -0.00    +0.000 HD
DOCKED: ENDBRANCH  27  30
DOCKED: ENDBRANCH  22  24
DOCKED: ENDBRANCH  19  21
DOCKED: ENDBRANCH   1  19
DOCKED: TORSDOF 9
DOCKED: TER
DOCKED: ENDMDL
________________________________________________________________________________


	BEGINNING GENETIC ALGORITHM DOCKING 18 of 100
Run: 18 Seed: 106219336 1868872022 [ Run 18 of 100 GA/GALS ]
Beginning LAMARCKIAN GENETIC ALGORITHM (LGA), with a maximum of 2500000 energy evaluations.

Final-Value: -15.717


	FINAL GENETIC ALGORITHM DOCKED STATE
	_______________________________________________


Detailed state:  trans 26.561 -14.099 -2.222 quatxyzw 0.103101 0.058345 0.792486 0.598274 center 1.436 0.069 -0.007 ntor 9 166.2459 -17.1750 168.6057 34.6789 163.2606 148.2837 4.0793 -8.3948 -28.5597
State:	 26.561 -14.099  -2.222   0.129  0.073  0.989 106.507    166.25  -17.18  168.61   34.68  163.26  148.28    4.08   -8.39  -28.56

DOCKED: MODEL       18
DOCKED: USER    Run = 18
DOCKED: USER    DPF = ligand_dock.biased.dpf
DOCKED: USER  
DOCKED: USER    Estimated Free Energy of Binding    =  -11.26 kcal/mol  [=(1)+(2)+(3)-(4)]
DOCKED: USER    Estimated Inhibition Constant, Ki   =    5.62 nM (nanomolar)  [Temperature = 298.15 K]
DOCKED: USER    
DOCKED: USER    (1) Final Intermolecular Energy     =  -13.94 kcal/mol
DOCKED: USER        vdW + Hbond + desolv Energy     =  -13.94 kcal/mol
DOCKED: USER        Electrostatic Energy            =   +0.00 kcal/mol
DOCKED: USER    (2) Final Total Internal Energy     =   -1.78 kcal/mol
DOCKED: USER    (3) Torsional Free Energy           =   +2.68 kcal/mol
DOCKED: USER    (4) Unbound System's Energy  [=(2)] =   -1.78 kcal/mol
DOCKED: USER    
DOCKED: USER    
DOCKED: USER    NEWDPF move ligand.pdbqt
DOCKED: USER    NEWDPF about 1.436000 0.069000 -0.007000
DOCKED: USER    NEWDPF tran0 26.560548 -14.098971 -2.221743
DOCKED: USER    NEWDPF quaternion0 0.103101 0.058345 0.792486 0.598274
DOCKED: USER    NEWDPF axisangle0 0.128668 0.072813 0.989011 106.507292
DOCKED: USER    NEWDPF quat0 0.128668 0.072813 0.989011 106.507292
DOCKED: USER    NEWDPF dihe0 166.25 -17.18 168.61 34.68 163.26 148.28 4.08 -8.39 -28.56 
DOCKED: USER  keepresnum = 1 
DOCKED: USER  
DOCKED: REMARK  Name = 
DOCKED: REMARK  11 active torsions:
DOCKED: REMARK  status: ('A' for Active; 'I' for Inactive)
DOCKED: REMARK    1  A    between atoms: C_2  and  O_3
DOCKED: REMARK    2  A    between atoms: O_3  and  C_4
DOCKED: REMARK    3  A    between atoms: C_4  and  C_5
DOCKED: REMARK    4  A    between atoms: C_10  and  C_11
DOCKED: REMARK    5  A    between atoms: C_11  and  N_12
DOCKED: REMARK    6  A    between atoms: N_12  and  C_13
DOCKED: REMARK    7  A    between atoms: N_12  and  C_15
DOCKED: REMARK    8  A    between atoms: C_13  and  C_14
DOCKED: REMARK    9  A    between atoms: C_15  and  C_16
DOCKED: REMARK   10  A    between atoms: N_21  and  C_22
DOCKED: REMARK   11  A    between atoms: C_25  and  C_26
DOCKED: REMARK                            x       y       z     vdW  Elec       q    Type
DOCKED: REMARK                         _______ _______ _______ _____ _____    ______ ____
DOCKED: USER                              x       y       z     vdW  Elec       q    Type
DOCKED: USER                           _______ _______ _______ _____ _____    ______ ____
DOCKED: ROOT
DOCKED: ATOM      1  C   UNL     1      30.244 -15.451  -1.993 -0.10 -0.00    +0.000 C 
DOCKED: ENDROOT
DOCKED: BRANCH   1   2
DOCKED: ATOM      2  C   UNL     1      29.582 -14.212  -2.534 -0.06 -0.00    +0.000 A 
DOCKED: ATOM      3  C   UNL     1      29.775 -13.826  -3.870 -0.07 -0.00    +0.000 A 
DOCKED: ATOM      4  C   UNL     1      29.143 -12.687  -4.376 -0.07 -0.00    +0.000 A 
DOCKED: ATOM      5  C   UNL     1      28.306 -11.920  -3.552 -0.08 -0.00    +0.000 A 
DOCKED: ATOM      6  C   UNL     1      27.663 -10.778  -4.054 -0.09 -0.00    +0.000 A 
DOCKED: ATOM      7  C   UNL     1      26.822 -10.017  -3.227 -0.12 -0.00    +0.000 A 
DOCKED: ATOM      8  C   UNL     1      26.634 -10.400  -1.890 +0.02 -0.00    +0.000 A 
DOCKED: ATOM      9  C   UNL     1      27.270 -11.536  -1.382 -0.07 -0.00    +0.000 A 
DOCKED: ATOM     10  C   UNL     1      28.107 -12.302  -2.205 -0.09 -0.00    +0.000 A 
DOCKED: ATOM     11  C   UNL     1      28.748 -13.446  -1.705 -0.07 -0.00    +0.000 A 
DOCKED: BRANCH   7  12
DOCKED: ATOM     12  C   UNL     1      26.150  -8.783  -3.771 -0.17 -0.00    +0.000 C 
DOCKED: BRANCH  12  13
DOCKED: ATOM     13  N   UNL     1      24.779  -9.087  -4.236 -0.30 -0.00    +0.000 N 
DOCKED: ATOM     14  H   UNL     1      24.247  -9.086  -3.366 -0.55 -0.00    +0.000 HD
DOCKED: BRANCH  13  15
DOCKED: ATOM     15  C   UNL     1      24.130  -8.019  -5.033 -0.29 -0.00    +0.000 C 
DOCKED: ATOM     16  C   UNL     1      22.596  -7.993  -4.941 -0.31 -0.00    +0.000 C 
DOCKED: ENDBRANCH  13  15
DOCKED: BRANCH  13  17
DOCKED: ATOM     17  C   UNL     1      24.570 -10.463  -4.748 -0.35 -0.00    +0.000 C 
DOCKED: ATOM     18  C   UNL     1      24.809 -10.620  -6.252 -0.39 -0.00    +0.000 C 
DOCKED: ENDBRANCH  13  17
DOCKED: ENDBRANCH  12  13
DOCKED: ENDBRANCH   7  12
DOCKED: ENDBRANCH   1   2
DOCKED: BRANCH   1  19
DOCKED: ATOM     19  O   UNL     1      29.388 -16.106  -1.058 -0.20 -0.00    +0.000 OA
DOCKED: BRANCH  19  21
DOCKED: ATOM     20  O   UNL     1      27.733 -16.607  -2.590 -0.36 -0.00    +0.000 OA
DOCKED: ATOM     21  C   UNL     1      28.121 -16.598  -1.388 -0.35 -0.00    +0.000 C 
DOCKED: ATOM     22  N   UNL     1      27.287 -17.130  -0.351 -0.45 -0.00    +0.000 N 
DOCKED: ATOM     23  H   UNL     1      27.700 -17.308   0.524 -0.28 -0.00    +0.000 HD
DOCKED: BRANCH  22  24
DOCKED: ATOM     24  C   UNL     1      25.888 -17.421  -0.506 -0.55 -0.00    +0.000 A 
DOCKED: ATOM     25  C   UNL     1      24.997 -16.380  -0.798 -0.44 -0.00    +0.000 A 
DOCKED: ATOM     26  C   UNL     1      23.635 -16.640  -0.982 -0.29 -0.00    +0.000 A 
DOCKED: ATOM     27  C   UNL     1      23.140 -17.952  -0.889 -0.71 -0.00    +0.000 A 
DOCKED: ATOM     28  C   UNL     1      24.041 -19.000  -0.630 -0.53 -0.00    +0.000 A 
DOCKED: ATOM     29  C   UNL     1      25.402 -18.739  -0.442 -0.37 -0.00    +0.000 A 
DOCKED: BRANCH  27  30
DOCKED: ATOM     30  C   UNL     1      21.700 -18.246  -1.095 -0.69 -0.00    +0.000 C 
DOCKED: ATOM     31  N   UNL     1      21.270 -19.451  -1.737 -0.65 -0.00    +0.000 N 
DOCKED: ATOM     32  O   UNL     1      19.951 -19.742  -1.821 -2.39 -0.00    +0.000 OA
DOCKED: ATOM     33  O   UNL     1      20.835 -17.413  -0.710 -1.99 +0.00    +0.000 OA
DOCKED: ATOM     34  H   UNL     1      21.934 -20.069  -2.119 -0.54 -0.00    +0.000 HD
DOCKED: ENDBRANCH  27  30
DOCKED: ENDBRANCH  22  24
DOCKED: ENDBRANCH  19  21
DOCKED: ENDBRANCH   1  19
DOCKED: TORSDOF 9
DOCKED: TER
DOCKED: ENDMDL
________________________________________________________________________________


	BEGINNING GENETIC ALGORITHM DOCKING 19 of 100
Run: 19 Seed: 954980768 592557050 [ Run 19 of 100 GA/GALS ]
Beginning LAMARCKIAN GENETIC ALGORITHM (LGA), with a maximum of 2500000 energy evaluations.

Final-Value: -15.970


	FINAL GENETIC ALGORITHM DOCKED STATE
	_______________________________________________


Detailed state:  trans 26.536 -15.882 -2.683 quatxyzw 0.066686 -0.102689 -0.584232 -0.802298 center 1.436 0.069 -0.007 ntor 9 -23.2591 -30.2859 137.0131 -51.4344 153.8570 157.0487 61.1102 -52.0575 175.6403
State:	 26.536 -15.882  -2.683   0.112 -0.172 -0.979 -73.300    -23.26  -30.29  137.01  -51.43  153.86  157.05   61.11  -52.06  175.64

DOCKED: MODEL       19
DOCKED: USER    Run = 19
DOCKED: USER    DPF = ligand_dock.biased.dpf
DOCKED: USER  
DOCKED: USER    Estimated Free Energy of Binding    =  -11.29 kcal/mol  [=(1)+(2)+(3)-(4)]
DOCKED: USER    Estimated Inhibition Constant, Ki   =    5.30 nM (nanomolar)  [Temperature = 298.15 K]
DOCKED: USER    
DOCKED: USER    (1) Final Intermolecular Energy     =  -13.97 kcal/mol
DOCKED: USER        vdW + Hbond + desolv Energy     =  -13.97 kcal/mol
DOCKED: USER        Electrostatic Energy            =   +0.00 kcal/mol
DOCKED: USER    (2) Final Total Internal Energy     =   -2.00 kcal/mol
DOCKED: USER    (3) Torsional Free Energy           =   +2.68 kcal/mol
DOCKED: USER    (4) Unbound System's Energy  [=(2)] =   -2.00 kcal/mol
DOCKED: USER    
DOCKED: USER    
DOCKED: USER    NEWDPF move ligand.pdbqt
DOCKED: USER    NEWDPF about 1.436000 0.069000 -0.007000
DOCKED: USER    NEWDPF tran0 26.535731 -15.882006 -2.682556
DOCKED: USER    NEWDPF quaternion0 0.066686 -0.102689 -0.584232 -0.802298
DOCKED: USER    NEWDPF axisangle0 0.111716 -0.172031 -0.978736 -73.299873
DOCKED: USER    NEWDPF quat0 0.111716 -0.172031 -0.978736 -73.299873
DOCKED: USER    NEWDPF dihe0 -23.26 -30.29 137.01 -51.43 153.86 157.05 61.11 -52.06 175.64 
DOCKED: USER  keepresnum = 1 
DOCKED: USER  
DOCKED: REMARK  Name = 
DOCKED: REMARK  11 active torsions:
DOCKED: REMARK  status: ('A' for Active; 'I' for Inactive)
DOCKED: REMARK    1  A    between atoms: C_2  and  O_3
DOCKED: REMARK    2  A    between atoms: O_3  and  C_4
DOCKED: REMARK    3  A    between atoms: C_4  and  C_5
DOCKED: REMARK    4  A    between atoms: C_10  and  C_11
DOCKED: REMARK    5  A    between atoms: C_11  and  N_12
DOCKED: REMARK    6  A    between atoms: N_12  and  C_13
DOCKED: REMARK    7  A    between atoms: N_12  and  C_15
DOCKED: REMARK    8  A    between atoms: C_13  and  C_14
DOCKED: REMARK    9  A    between atoms: C_15  and  C_16
DOCKED: REMARK   10  A    between atoms: N_21  and  C_22
DOCKED: REMARK   11  A    between atoms: C_25  and  C_26
DOCKED: REMARK                            x       y       z     vdW  Elec       q    Type
DOCKED: REMARK                         _______ _______ _______ _____ _____    ______ ____
DOCKED: USER                              x       y       z     vdW  Elec       q    Type
DOCKED: USER                           _______ _______ _______ _____ _____    ______ ____
DOCKED: ROOT
DOCKED: ATOM      1  C   UNL     1      30.180 -15.008  -1.499 -0.08 -0.00    +0.000 C 
DOCKED: ENDROOT
DOCKED: BRANCH   1   2
DOCKED: ATOM      2  C   UNL     1      29.040 -14.251  -2.124 -0.08 -0.00    +0.000 A 
DOCKED: ATOM      3  C   UNL     1      27.962 -13.809  -1.341 -0.13 -0.00    +0.000 A 
DOCKED: ATOM      4  C   UNL     1      26.914 -13.088  -1.919 -0.11 -0.00    +0.000 A 
DOCKED: ATOM      5  C   UNL     1      26.932 -12.796  -3.291 -0.19 -0.00    +0.000 A 
DOCKED: ATOM      6  C   UNL     1      25.887 -12.068  -3.879 -0.01 -0.00    +0.000 A 
DOCKED: ATOM      7  C   UNL     1      25.912 -11.774  -5.251 -0.22 -0.00    +0.000 A 
DOCKED: ATOM      8  C   UNL     1      26.986 -12.220  -6.036 -0.08 -0.00    +0.000 A 
DOCKED: ATOM      9  C   UNL     1      28.031 -12.946  -5.459 -0.19 -0.00    +0.000 A 
DOCKED: ATOM     10  C   UNL     1      28.014 -13.238  -4.088 -0.16 -0.00    +0.000 A 
DOCKED: ATOM     11  C   UNL     1      29.060 -13.964  -3.498 -0.09 -0.00    +0.000 A 
DOCKED: BRANCH   7  12
DOCKED: ATOM     12  C   UNL     1      24.776 -11.005  -5.877 -0.34 -0.00    +0.000 C 
DOCKED: BRANCH  12  13
DOCKED: ATOM     13  N   UNL     1      24.989  -9.547  -5.750 -0.26 -0.00    +0.000 N 
DOCKED: ATOM     14  H   UNL     1      25.829  -9.498  -5.173 +0.00 -0.00    +0.000 HD
DOCKED: BRANCH  13  15
DOCKED: ATOM     15  C   UNL     1      25.395  -8.857  -6.998 -0.17 -0.00    +0.000 C 
DOCKED: ATOM     16  C   UNL     1      25.100  -9.640  -8.288 -0.27 -0.00    +0.000 C 
DOCKED: ENDBRANCH  13  15
DOCKED: BRANCH  13  17
DOCKED: ATOM     17  C   UNL     1      23.985  -8.824  -4.934 -0.37 -0.00    +0.000 C 
DOCKED: ATOM     18  C   UNL     1      22.964  -8.026  -5.749 -0.44 -0.00    +0.000 C 
DOCKED: ENDBRANCH  13  17
DOCKED: ENDBRANCH  12  13
DOCKED: ENDBRANCH   7  12
DOCKED: ENDBRANCH   1   2
DOCKED: BRANCH   1  19
DOCKED: ATOM     19  O   UNL     1      29.708 -16.210  -0.892 -0.20 -0.00    +0.000 OA
DOCKED: BRANCH  19  21
DOCKED: ATOM     20  O   UNL     1      28.203 -17.212  -2.330 -0.28 -0.00    +0.000 OA
DOCKED: ATOM     21  C   UNL     1      28.460 -16.775  -1.174 -0.33 -0.00    +0.000 C 
DOCKED: ATOM     22  N   UNL     1      27.492 -16.888  -0.123 -0.39 -0.00    +0.000 N 
DOCKED: ATOM     23  H   UNL     1      27.798 -16.742   0.801 -0.44 -0.00    +0.000 HD
DOCKED: BRANCH  22  24
DOCKED: ATOM     24  C   UNL     1      26.104 -17.200  -0.330 -0.51 -0.00    +0.000 A 
DOCKED: ATOM     25  C   UNL     1      25.352 -16.429  -1.226 -0.51 -0.00    +0.000 A 
DOCKED: ATOM     26  C   UNL     1      24.007 -16.729  -1.467 -0.48 -0.00    +0.000 A 
DOCKED: ATOM     27  C   UNL     1      23.392 -17.817  -0.823 -0.70 -0.00    +0.000 A 
DOCKED: ATOM     28  C   UNL     1      24.158 -18.610   0.049 -0.42 -0.00    +0.000 A 
DOCKED: ATOM     29  C   UNL     1      25.501 -18.307   0.293 -0.43 -0.00    +0.000 A 
DOCKED: BRANCH  27  30
DOCKED: ATOM     30  C   UNL     1      21.970 -18.157  -1.079 -0.72 -0.00    +0.000 C 
DOCKED: ATOM     31  N   UNL     1      21.602 -19.365  -1.752 -0.63 -0.00    +0.000 N 
DOCKED: ATOM     32  O   UNL     1      20.297 -19.699  -1.882 -2.30 -0.00    +0.000 OA
DOCKED: ATOM     33  O   UNL     1      21.065 -17.359  -0.709 -1.93 -0.00    +0.000 OA
DOCKED: ATOM     34  H   UNL     1      22.299 -19.954  -2.122 -0.51 -0.00    +0.000 HD
DOCKED: ENDBRANCH  27  30
DOCKED: ENDBRANCH  22  24
DOCKED: ENDBRANCH  19  21
DOCKED: ENDBRANCH   1  19
DOCKED: TORSDOF 9
DOCKED: TER
DOCKED: ENDMDL
________________________________________________________________________________


	BEGINNING GENETIC ALGORITHM DOCKING 20 of 100
Run: 20 Seed: 1800643622 18706447 [ Run 20 of 100 GA/GALS ]
Beginning LAMARCKIAN GENETIC ALGORITHM (LGA), with a maximum of 2500000 energy evaluations.

Final-Value: -15.360


	FINAL GENETIC ALGORITHM DOCKED STATE
	_______________________________________________


Detailed state:  trans 29.921 -19.304 -1.891 quatxyzw -0.037614 -0.778908 -0.054723 -0.623613 center 1.436 0.069 -0.007 ntor 9 -147.8337 34.0506 175.3448 -168.9146 -19.2155 179.3553 -31.7864 -138.7013 -123.1941
State:	 29.921 -19.304  -1.891  -0.048 -0.996 -0.070 -102.839   -147.83   34.05  175.34 -168.91  -19.22  179.36  -31.79 -138.70 -123.19

DOCKED: MODEL       20
DOCKED: USER    Run = 20
DOCKED: USER    DPF = ligand_dock.biased.dpf
DOCKED: USER  
DOCKED: USER    Estimated Free Energy of Binding    =  -11.00 kcal/mol  [=(1)+(2)+(3)-(4)]
DOCKED: USER    Estimated Inhibition Constant, Ki   =    8.58 nM (nanomolar)  [Temperature = 298.15 K]
DOCKED: USER    
DOCKED: USER    (1) Final Intermolecular Energy     =  -13.69 kcal/mol
DOCKED: USER        vdW + Hbond + desolv Energy     =  -13.69 kcal/mol
DOCKED: USER        Electrostatic Energy            =   +0.00 kcal/mol
DOCKED: USER    (2) Final Total Internal Energy     =   -1.67 kcal/mol
DOCKED: USER    (3) Torsional Free Energy           =   +2.68 kcal/mol
DOCKED: USER    (4) Unbound System's Energy  [=(2)] =   -1.67 kcal/mol
DOCKED: USER    
DOCKED: USER    
DOCKED: USER    NEWDPF move ligand.pdbqt
DOCKED: USER    NEWDPF about 1.436000 0.069000 -0.007000
DOCKED: USER    NEWDPF tran0 29.920802 -19.303766 -1.890678
DOCKED: USER    NEWDPF quaternion0 -0.037614 -0.778908 -0.054723 -0.623613
DOCKED: USER    NEWDPF axisangle0 -0.048117 -0.996386 -0.070002 -102.839065
DOCKED: USER    NEWDPF quat0 -0.048117 -0.996386 -0.070002 -102.839065
DOCKED: USER    NEWDPF dihe0 -147.83 34.05 175.34 -168.91 -19.22 179.36 -31.79 -138.70 -123.19 
DOCKED: USER  keepresnum = 1 
DOCKED: USER  
DOCKED: REMARK  Name = 
DOCKED: REMARK  11 active torsions:
DOCKED: REMARK  status: ('A' for Active; 'I' for Inactive)
DOCKED: REMARK    1  A    between atoms: C_2  and  O_3
DOCKED: REMARK    2  A    between atoms: O_3  and  C_4
DOCKED: REMARK    3  A    between atoms: C_4  and  C_5
DOCKED: REMARK    4  A    between atoms: C_10  and  C_11
DOCKED: REMARK    5  A    between atoms: C_11  and  N_12
DOCKED: REMARK    6  A    between atoms: N_12  and  C_13
DOCKED: REMARK    7  A    between atoms: N_12  and  C_15
DOCKED: REMARK    8  A    between atoms: C_13  and  C_14
DOCKED: REMARK    9  A    between atoms: C_15  and  C_16
DOCKED: REMARK   10  A    between atoms: N_21  and  C_22
DOCKED: REMARK   11  A    between atoms: C_25  and  C_26
DOCKED: REMARK                            x       y       z     vdW  Elec       q    Type
DOCKED: REMARK                         _______ _______ _______ _____ _____    ______ ____
DOCKED: USER                              x       y       z     vdW  Elec       q    Type
DOCKED: USER                           _______ _______ _______ _____ _____    ______ ____
DOCKED: ROOT
DOCKED: ATOM      1  C   UNL     1      30.073 -15.400  -1.458 -0.11 -0.00    +0.000 C 
DOCKED: ENDROOT
DOCKED: BRANCH   1   2
DOCKED: ATOM      2  C   UNL     1      30.505 -16.385  -2.511 -0.12 -0.00    +0.000 A 
DOCKED: ATOM      3  C   UNL     1      30.352 -16.085  -3.873 -0.14 -0.00    +0.000 A 
DOCKED: ATOM      4  C   UNL     1      30.773 -16.993  -4.850 -0.20 -0.00    +0.000 A 
DOCKED: ATOM      5  C   UNL     1      31.356 -18.212  -4.475 -0.17 -0.00    +0.000 A 
DOCKED: ATOM      6  C   UNL     1      31.786 -19.126  -5.449 -0.16 -0.00    +0.000 A 
DOCKED: ATOM      7  C   UNL     1      32.373 -20.343  -5.069 -0.11 -0.00    +0.000 A 
DOCKED: ATOM      8  C   UNL     1      32.521 -20.645  -3.706 -0.09 -0.00    +0.000 A 
DOCKED: ATOM      9  C   UNL     1      32.095 -19.741  -2.730 -0.11 -0.00    +0.000 A 
DOCKED: ATOM     10  C   UNL     1      31.513 -18.522  -3.104 -0.14 -0.00    +0.000 A 
DOCKED: ATOM     11  C   UNL     1      31.085 -17.606  -2.131 -0.14 -0.00    +0.000 A 
DOCKED: BRANCH   7  12
DOCKED: ATOM     12  C   UNL     1      32.817 -21.325  -6.122 -0.09 -0.00    +0.000 C 
DOCKED: BRANCH  12  13
DOCKED: ATOM     13  N   UNL     1      31.705 -22.216  -6.519 -0.20 -0.00    +0.000 N 
DOCKED: ATOM     14  H   UNL     1      32.089 -23.142  -6.332 +0.00 -0.00    +0.000 HD
DOCKED: BRANCH  13  15
DOCKED: ATOM     15  C   UNL     1      30.509 -22.162  -5.644 -0.29 -0.00    +0.000 C 
DOCKED: ATOM     16  C   UNL     1      30.333 -23.381  -4.724 -0.31 -0.00    +0.000 C 
DOCKED: ENDBRANCH  13  15
DOCKED: BRANCH  13  17
DOCKED: ATOM     17  C   UNL     1      31.415 -22.266  -7.972 -0.22 -0.00    +0.000 C 
DOCKED: ATOM     18  C   UNL     1      31.521 -20.915  -8.684 -0.26 -0.00    +0.000 C 
DOCKED: ENDBRANCH  13  17
DOCKED: ENDBRANCH  12  13
DOCKED: ENDBRANCH   7  12
DOCKED: ENDBRANCH   1   2
DOCKED: BRANCH   1  19
DOCKED: ATOM     19  O   UNL     1      29.091 -15.983  -0.602 -0.23 -0.00    +0.000 OA
DOCKED: BRANCH  19  21
DOCKED: ATOM     20  O   UNL     1      27.243 -15.606  -1.936 -0.31 -0.00    +0.000 OA
DOCKED: ATOM     21  C   UNL     1      27.788 -16.277  -1.017 -0.36 -0.00    +0.000 C 
DOCKED: ATOM     22  N   UNL     1      27.096 -17.378  -0.413 -0.49 -0.00    +0.000 N 
DOCKED: ATOM     23  H   UNL     1      27.620 -18.006   0.134 -0.37 -0.00    +0.000 HD
DOCKED: BRANCH  22  24
DOCKED: ATOM     24  C   UNL     1      25.686 -17.623  -0.553 -0.58 -0.00    +0.000 A 
DOCKED: ATOM     25  C   UNL     1      24.811 -16.540  -0.706 -0.45 -0.00    +0.000 A 
DOCKED: ATOM     26  C   UNL     1      23.439 -16.752  -0.872 -0.43 -0.00    +0.000 A 
DOCKED: ATOM     27  C   UNL     1      22.917 -18.057  -0.901 -0.72 -0.00    +0.000 A 
DOCKED: ATOM     28  C   UNL     1      23.801 -19.144  -0.782 -0.55 -0.00    +0.000 A 
DOCKED: ATOM     29  C   UNL     1      25.172 -18.931  -0.611 -0.19 -0.00    +0.000 A 
DOCKED: BRANCH  27  30
DOCKED: ATOM     30  C   UNL     1      21.465 -18.300  -1.091 -0.68 -0.00    +0.000 C 
DOCKED: ATOM     31  N   UNL     1      20.985 -19.494  -1.718 -0.72 -0.00    +0.000 N 
DOCKED: ATOM     32  O   UNL     1      19.656 -19.737  -1.787 -2.23 -0.00    +0.000 OA
DOCKED: ATOM     33  O   UNL     1      20.635 -17.432  -0.706 -1.99 +0.00    +0.000 OA
DOCKED: ATOM     34  H   UNL     1      21.623 -20.140  -2.099 -0.54 -0.00    +0.000 HD
DOCKED: ENDBRANCH  27  30
DOCKED: ENDBRANCH  22  24
DOCKED: ENDBRANCH  19  21
DOCKED: ENDBRANCH   1  19
DOCKED: TORSDOF 9
DOCKED: TER
DOCKED: ENDMDL
________________________________________________________________________________


	BEGINNING GENETIC ALGORITHM DOCKING 21 of 100
Run: 21 Seed: 107164445 701105201 [ Run 21 of 100 GA/GALS ]
Beginning LAMARCKIAN GENETIC ALGORITHM (LGA), with a maximum of 2500000 energy evaluations.

Final-Value: -15.828


	FINAL GENETIC ALGORITHM DOCKED STATE
	_______________________________________________


Detailed state:  trans 30.297 -19.714 -0.880 quatxyzw 0.071249 0.944581 0.117920 -0.297970 center 1.436 0.069 -0.007 ntor 9 -102.6484 -40.9232 -68.6301 -71.4629 -90.3986 -0.7747 -177.7383 15.8441 123.1643
State:	 30.297 -19.714  -0.880   0.075  0.990  0.124 -145.329   -102.65  -40.92  -68.63  -71.46  -90.40   -0.77 -177.74   15.84  123.16

DOCKED: MODEL       21
DOCKED: USER    Run = 21
DOCKED: USER    DPF = ligand_dock.biased.dpf
DOCKED: USER  
DOCKED: USER    Estimated Free Energy of Binding    =  -11.71 kcal/mol  [=(1)+(2)+(3)-(4)]
DOCKED: USER    Estimated Inhibition Constant, Ki   =    2.59 nM (nanomolar)  [Temperature = 298.15 K]
DOCKED: USER    
DOCKED: USER    (1) Final Intermolecular Energy     =  -14.40 kcal/mol
DOCKED: USER        vdW + Hbond + desolv Energy     =  -14.40 kcal/mol
DOCKED: USER        Electrostatic Energy            =   +0.00 kcal/mol
DOCKED: USER    (2) Final Total Internal Energy     =   -1.43 kcal/mol
DOCKED: USER    (3) Torsional Free Energy           =   +2.68 kcal/mol
DOCKED: USER    (4) Unbound System's Energy  [=(2)] =   -1.43 kcal/mol
DOCKED: USER    
DOCKED: USER    
DOCKED: USER    NEWDPF move ligand.pdbqt
DOCKED: USER    NEWDPF about 1.436000 0.069000 -0.007000
DOCKED: USER    NEWDPF tran0 30.296614 -19.713517 -0.880265
DOCKED: USER    NEWDPF quaternion0 0.071249 0.944581 0.117920 -0.297970
DOCKED: USER    NEWDPF axisangle0 0.074639 0.989530 0.123531 -145.328575
DOCKED: USER    NEWDPF quat0 0.074639 0.989530 0.123531 -145.328575
DOCKED: USER    NEWDPF dihe0 -102.65 -40.92 -68.63 -71.46 -90.40 -0.77 -177.74 15.84 123.16 
DOCKED: USER  keepresnum = 1 
DOCKED: USER  
DOCKED: REMARK  Name = 
DOCKED: REMARK  11 active torsions:
DOCKED: REMARK  status: ('A' for Active; 'I' for Inactive)
DOCKED: REMARK    1  A    between atoms: C_2  and  O_3
DOCKED: REMARK    2  A    between atoms: O_3  and  C_4
DOCKED: REMARK    3  A    between atoms: C_4  and  C_5
DOCKED: REMARK    4  A    between atoms: C_10  and  C_11
DOCKED: REMARK    5  A    between atoms: C_11  and  N_12
DOCKED: REMARK    6  A    between atoms: N_12  and  C_13
DOCKED: REMARK    7  A    between atoms: N_12  and  C_15
DOCKED: REMARK    8  A    between atoms: C_13  and  C_14
DOCKED: REMARK    9  A    between atoms: C_15  and  C_16
DOCKED: REMARK   10  A    between atoms: N_21  and  C_22
DOCKED: REMARK   11  A    between atoms: C_25  and  C_26
DOCKED: REMARK                            x       y       z     vdW  Elec       q    Type
DOCKED: REMARK                         _______ _______ _______ _____ _____    ______ ____
DOCKED: USER                              x       y       z     vdW  Elec       q    Type
DOCKED: USER                           _______ _______ _______ _____ _____    ______ ____
DOCKED: ROOT
DOCKED: ATOM      1  C   UNL     1      30.422 -15.835  -0.255 -0.15 -0.00    +0.000 C 
DOCKED: ENDROOT
DOCKED: BRANCH   1   2
DOCKED: ATOM      2  C   UNL     1      31.078 -17.046   0.352 -0.11 -0.00    +0.000 A 
DOCKED: ATOM      3  C   UNL     1      31.271 -18.209  -0.410 -0.16 -0.00    +0.000 A 
DOCKED: ATOM      4  C   UNL     1      31.900 -19.326   0.148 -0.14 -0.00    +0.000 A 
DOCKED: ATOM      5  C   UNL     1      32.347 -19.292   1.477 -0.15 -0.00    +0.000 A 
DOCKED: ATOM      6  C   UNL     1      32.984 -20.407   2.044 -0.15 -0.00    +0.000 A 
DOCKED: ATOM      7  C   UNL     1      33.434 -20.366   3.373 -0.20 -0.00    +0.000 A 
DOCKED: ATOM      8  C   UNL     1      33.236 -19.205   4.137 -0.32 -0.00    +0.000 A 
DOCKED: ATOM      9  C   UNL     1      32.602 -18.091   3.580 -0.28 -0.00    +0.000 A 
DOCKED: ATOM     10  C   UNL     1      32.155 -18.124   2.252 -0.17 -0.00    +0.000 A 
DOCKED: ATOM     11  C   UNL     1      31.521 -17.009   1.683 +0.05 -0.00    +0.000 A 
DOCKED: BRANCH   7  12
DOCKED: ATOM     12  C   UNL     1      34.102 -21.574   3.978 -0.22 -0.00    +0.000 C 
DOCKED: BRANCH  12  13
DOCKED: ATOM     13  N   UNL     1      34.025 -21.539   5.455 -0.36 -0.00    +0.000 N 
DOCKED: ATOM     14  H   UNL     1      33.943 -20.540   5.646 -0.04 -0.00    +0.000 HD
DOCKED: BRANCH  13  15
DOCKED: ATOM     15  C   UNL     1      32.782 -22.098   6.036 -0.42 -0.00    +0.000 C 
DOCKED: ATOM     16  C   UNL     1      31.493 -21.378   5.607 -0.69 -0.00    +0.000 C 
DOCKED: ENDBRANCH  13  15
DOCKED: BRANCH  13  17
DOCKED: ATOM     17  C   UNL     1      35.271 -21.910   6.167 -0.30 -0.00    +0.000 C 
DOCKED: ATOM     18  C   UNL     1      35.170 -23.200   6.984 -0.47 -0.00    +0.000 C 
DOCKED: ENDBRANCH  13  17
DOCKED: ENDBRANCH  12  13
DOCKED: ENDBRANCH   7  12
DOCKED: ENDBRANCH   1   2
DOCKED: BRANCH   1  19
DOCKED: ATOM     19  O   UNL     1      29.920 -16.138  -1.556 -0.15 -0.00    +0.000 OA
DOCKED: BRANCH  19  21
DOCKED: ATOM     20  O   UNL     1      28.324 -17.065  -2.945 -0.22 -0.00    +0.000 OA
DOCKED: ATOM     21  C   UNL     1      28.668 -16.720  -1.780 -0.30 -0.00    +0.000 C 
DOCKED: ATOM     22  N   UNL     1      27.799 -16.957  -0.665 -0.38 -0.00    +0.000 N 
DOCKED: ATOM     23  H   UNL     1      28.180 -16.881   0.239 -0.25 -0.00    +0.000 HD
DOCKED: BRANCH  22  24
DOCKED: ATOM     24  C   UNL     1      26.407 -17.299  -0.781 -0.51 -0.00    +0.000 A 
DOCKED: ATOM     25  C   UNL     1      25.818 -18.121   0.188 -0.51 -0.00    +0.000 A 
DOCKED: ATOM     26  C   UNL     1      24.460 -18.446   0.115 -0.41 -0.00    +0.000 A 
DOCKED: ATOM     27  C   UNL     1      23.661 -17.942  -0.926 -0.70 -0.00    +0.000 A 
DOCKED: ATOM     28  C   UNL     1      24.246 -17.090  -1.878 -0.43 -0.00    +0.000 A 
DOCKED: ATOM     29  C   UNL     1      25.605 -16.769  -1.807 -0.52 -0.00    +0.000 A 
DOCKED: BRANCH  27  30
DOCKED: ATOM     30  C   UNL     1      22.215 -18.266  -1.011 -0.79 -0.00    +0.000 C 
DOCKED: ATOM     31  N   UNL     1      21.744 -19.376  -1.782 -0.58 -0.00    +0.000 N 
DOCKED: ATOM     32  O   UNL     1      20.433 -19.711  -1.761 -2.20 -0.00    +0.000 OA
DOCKED: ATOM     33  O   UNL     1      21.380 -17.542  -0.404 -1.63 -0.00    +0.000 OA
DOCKED: ATOM     34  H   UNL     1      22.375 -19.898  -2.330 -0.53 -0.00    +0.000 HD
DOCKED: ENDBRANCH  27  30
DOCKED: ENDBRANCH  22  24
DOCKED: ENDBRANCH  19  21
DOCKED: ENDBRANCH   1  19
DOCKED: TORSDOF 9
DOCKED: TER
DOCKED: ENDMDL
________________________________________________________________________________


	BEGINNING GENETIC ALGORITHM DOCKING 22 of 100
Run: 22 Seed: 955032264 1537645595 [ Run 22 of 100 GA/GALS ]
Beginning LAMARCKIAN GENETIC ALGORITHM (LGA), with a maximum of 2500000 energy evaluations.

Final-Value: -14.998


	FINAL GENETIC ALGORITHM DOCKED STATE
	_______________________________________________


Detailed state:  trans 27.945 -15.583 2.956 quatxyzw 0.021213 0.726734 -0.350885 -0.590158 center 1.436 0.069 -0.007 ntor 9 10.9071 1.3420 137.5712 -1.0129 -179.9574 35.8323 53.5225 18.0485 96.5918
State:	 27.945 -15.583   2.956   0.026  0.900 -0.435 -107.663     10.91    1.34  137.57   -1.01 -179.96   35.83   53.52   18.05   96.59

DOCKED: MODEL       22
DOCKED: USER    Run = 22
DOCKED: USER    DPF = ligand_dock.biased.dpf
DOCKED: USER  
DOCKED: USER    Estimated Free Energy of Binding    =  -10.88 kcal/mol  [=(1)+(2)+(3)-(4)]
DOCKED: USER    Estimated Inhibition Constant, Ki   =   10.62 nM (nanomolar)  [Temperature = 298.15 K]
DOCKED: USER    
DOCKED: USER    (1) Final Intermolecular Energy     =  -13.56 kcal/mol
DOCKED: USER        vdW + Hbond + desolv Energy     =  -13.56 kcal/mol
DOCKED: USER        Electrostatic Energy            =   +0.00 kcal/mol
DOCKED: USER    (2) Final Total Internal Energy     =   -1.44 kcal/mol
DOCKED: USER    (3) Torsional Free Energy           =   +2.68 kcal/mol
DOCKED: USER    (4) Unbound System's Energy  [=(2)] =   -1.44 kcal/mol
DOCKED: USER    
DOCKED: USER    
DOCKED: USER    NEWDPF move ligand.pdbqt
DOCKED: USER    NEWDPF about 1.436000 0.069000 -0.007000
DOCKED: USER    NEWDPF tran0 27.945393 -15.583466 2.955589
DOCKED: USER    NEWDPF quaternion0 0.021213 0.726734 -0.350885 -0.590158
DOCKED: USER    NEWDPF axisangle0 0.026277 0.900217 -0.434647 -107.663492
DOCKED: USER    NEWDPF quat0 0.026277 0.900217 -0.434647 -107.663492
DOCKED: USER    NEWDPF dihe0 10.91 1.34 137.57 -1.01 -179.96 35.83 53.52 18.05 96.59 
DOCKED: USER  keepresnum = 1 
DOCKED: USER  
DOCKED: REMARK  Name = 
DOCKED: REMARK  11 active torsions:
DOCKED: REMARK  status: ('A' for Active; 'I' for Inactive)
DOCKED: REMARK    1  A    between atoms: C_2  and  O_3
DOCKED: REMARK    2  A    between atoms: O_3  and  C_4
DOCKED: REMARK    3  A    between atoms: C_4  and  C_5
DOCKED: REMARK    4  A    between atoms: C_10  and  C_11
DOCKED: REMARK    5  A    between atoms: C_11  and  N_12
DOCKED: REMARK    6  A    between atoms: N_12  and  C_13
DOCKED: REMARK    7  A    between atoms: N_12  and  C_15
DOCKED: REMARK    8  A    between atoms: C_13  and  C_14
DOCKED: REMARK    9  A    between atoms: C_15  and  C_16
DOCKED: REMARK   10  A    between atoms: N_21  and  C_22
DOCKED: REMARK   11  A    between atoms: C_25  and  C_26
DOCKED: REMARK                            x       y       z     vdW  Elec       q    Type
DOCKED: REMARK                         _______ _______ _______ _____ _____    ______ ____
DOCKED: USER                              x       y       z     vdW  Elec       q    Type
DOCKED: USER                           _______ _______ _______ _____ _____    ______ ____
DOCKED: ROOT
DOCKED: ATOM      1  C   UNL     1      29.809 -12.925   0.740 -0.06 -0.00    +0.000 C 
DOCKED: ENDROOT
DOCKED: BRANCH   1   2
DOCKED: ATOM      2  C   UNL     1      29.447 -13.052   2.195 -0.12 -0.00    +0.000 A 
DOCKED: ATOM      3  C   UNL     1      28.761 -14.183   2.663 -0.23 -0.00    +0.000 A 
DOCKED: ATOM      4  C   UNL     1      28.445 -14.309   4.019 -0.44 -0.00    +0.000 A 
DOCKED: ATOM      5  C   UNL     1      28.815 -13.305   4.926 -0.36 -0.00    +0.000 A 
DOCKED: ATOM      6  C   UNL     1      28.506 -13.426   6.289 -0.31 -0.00    +0.000 A 
DOCKED: ATOM      7  C   UNL     1      28.883 -12.421   7.193 -0.37 -0.00    +0.000 A 
DOCKED: ATOM      8  C   UNL     1      29.565 -11.287   6.724 -0.22 -0.00    +0.000 A 
DOCKED: ATOM      9  C   UNL     1      29.876 -11.159   5.368 -0.12 -0.00    +0.000 A 
DOCKED: ATOM     10  C   UNL     1      29.507 -12.162   4.462 -0.15 -0.00    +0.000 A 
DOCKED: ATOM     11  C   UNL     1      29.817 -12.043   3.098 -0.08 -0.00    +0.000 A 
DOCKED: BRANCH   7  12
DOCKED: ATOM     12  C   UNL     1      28.533 -12.553   8.653 -0.36 -0.00    +0.000 C 
DOCKED: BRANCH  12  13
DOCKED: ATOM     13  N   UNL     1      29.748 -12.742   9.476 -0.29 -0.00    +0.000 N 
DOCKED: ATOM     14  H   UNL     1      30.383 -12.043   9.091 +0.00 -0.00    +0.000 HD
DOCKED: BRANCH  13  15
DOCKED: ATOM     15  C   UNL     1      29.618 -12.338  10.896 -0.32 -0.00    +0.000 C 
DOCKED: ATOM     16  C   UNL     1      28.424 -12.963  11.634 -0.48 -0.00    +0.000 C 
DOCKED: ENDBRANCH  13  15
DOCKED: BRANCH  13  17
DOCKED: ATOM     17  C   UNL     1      30.478 -14.012   9.250 -0.37 -0.00    +0.000 C 
DOCKED: ATOM     18  C   UNL     1      29.771 -15.253   9.800 -0.48 -0.00    +0.000 C 
DOCKED: ENDBRANCH  13  17
DOCKED: ENDBRANCH  12  13
DOCKED: ENDBRANCH   7  12
DOCKED: ENDBRANCH   1   2
DOCKED: BRANCH   1  19
DOCKED: ATOM     19  O   UNL     1      29.771 -14.202   0.103 -0.10 -0.00    +0.000 OA
DOCKED: BRANCH  19  21
DOCKED: ATOM     20  O   UNL     1      27.971 -14.127  -1.343 -0.16 -0.00    +0.000 OA
DOCKED: ATOM     21  C   UNL     1      28.610 -14.751  -0.450 -0.18 -0.00    +0.000 C 
DOCKED: ATOM     22  N   UNL     1      28.180 -16.049  -0.022 -0.28 -0.00    +0.000 N 
DOCKED: ATOM     23  H   UNL     1      28.810 -16.592   0.503 -0.51 -0.00    +0.000 HD
DOCKED: BRANCH  22  24
DOCKED: ATOM     24  C   UNL     1      26.887 -16.610  -0.308 -0.41 -0.00    +0.000 A 
DOCKED: ATOM     25  C   UNL     1      26.533 -17.844   0.252 -0.42 -0.00    +0.000 A 
DOCKED: ATOM     26  C   UNL     1      25.272 -18.398   0.012 -0.51 -0.00    +0.000 A 
DOCKED: ATOM     27  C   UNL     1      24.334 -17.719  -0.785 -0.67 -0.00    +0.000 A 
DOCKED: ATOM     28  C   UNL     1      24.678 -16.465  -1.318 -0.50 -0.00    +0.000 A 
DOCKED: ATOM     29  C   UNL     1      25.941 -15.913  -1.082 -0.42 -0.00    +0.000 A 
DOCKED: BRANCH  27  30
DOCKED: ATOM     30  C   UNL     1      22.986 -18.287  -1.038 -0.82 -0.00    +0.000 C 
DOCKED: ATOM     31  N   UNL     1      21.805 -17.663  -0.522 -0.74 -0.00    +0.000 N 
DOCKED: ATOM     32  O   UNL     1      20.584 -18.143  -0.852 -2.21 -0.00    +0.000 OA
DOCKED: ATOM     33  O   UNL     1      22.876 -19.350  -1.708 -0.82 -0.00    +0.000 OA
DOCKED: ATOM     34  H   UNL     1      21.882 -16.882   0.073 -0.05 -0.00    +0.000 HD
DOCKED: ENDBRANCH  27  30
DOCKED: ENDBRANCH  22  24
DOCKED: ENDBRANCH  19  21
DOCKED: ENDBRANCH   1  19
DOCKED: TORSDOF 9
DOCKED: TER
DOCKED: ENDMDL
________________________________________________________________________________


	BEGINNING GENETIC ALGORITHM DOCKING 23 of 100
Run: 23 Seed: 1516816032 571033 [ Run 23 of 100 GA/GALS ]
Beginning LAMARCKIAN GENETIC ALGORITHM (LGA), with a maximum of 2500000 energy evaluations.

Final-Value: -15.169


	FINAL GENETIC ALGORITHM DOCKED STATE
	_______________________________________________


Detailed state:  trans 27.379 -16.518 -3.001 quatxyzw -0.101059 0.374967 0.534435 0.750710 center 1.436 0.069 -0.007 ntor 9 9.8220 29.8097 159.8215 -29.4608 -90.5664 -71.2295 -82.2371 -101.9283 48.9400
State:	 27.379 -16.518  -3.001  -0.153  0.568  0.809 82.696      9.82   29.81  159.82  -29.46  -90.57  -71.23  -82.24 -101.93   48.94

DOCKED: MODEL       23
DOCKED: USER    Run = 23
DOCKED: USER    DPF = ligand_dock.biased.dpf
DOCKED: USER  
DOCKED: USER    Estimated Free Energy of Binding    =  -10.56 kcal/mol  [=(1)+(2)+(3)-(4)]
DOCKED: USER    Estimated Inhibition Constant, Ki   =   18.29 nM (nanomolar)  [Temperature = 298.15 K]
DOCKED: USER    
DOCKED: USER    (1) Final Intermolecular Energy     =  -13.24 kcal/mol
DOCKED: USER        vdW + Hbond + desolv Energy     =  -13.24 kcal/mol
DOCKED: USER        Electrostatic Energy            =   +0.00 kcal/mol
DOCKED: USER    (2) Final Total Internal Energy     =   -1.93 kcal/mol
DOCKED: USER    (3) Torsional Free Energy           =   +2.68 kcal/mol
DOCKED: USER    (4) Unbound System's Energy  [=(2)] =   -1.93 kcal/mol
DOCKED: USER    
DOCKED: USER    
DOCKED: USER    NEWDPF move ligand.pdbqt
DOCKED: USER    NEWDPF about 1.436000 0.069000 -0.007000
DOCKED: USER    NEWDPF tran0 27.378639 -16.518431 -3.001322
DOCKED: USER    NEWDPF quaternion0 -0.101059 0.374967 0.534435 0.750710
DOCKED: USER    NEWDPF axisangle0 -0.152973 0.567589 0.808976 82.696156
DOCKED: USER    NEWDPF quat0 -0.152973 0.567589 0.808976 82.696156
DOCKED: USER    NEWDPF dihe0 9.82 29.81 159.82 -29.46 -90.57 -71.23 -82.24 -101.93 48.94 
DOCKED: USER  keepresnum = 1 
DOCKED: USER  
DOCKED: REMARK  Name = 
DOCKED: REMARK  11 active torsions:
DOCKED: REMARK  status: ('A' for Active; 'I' for Inactive)
DOCKED: REMARK    1  A    between atoms: C_2  and  O_3
DOCKED: REMARK    2  A    between atoms: O_3  and  C_4
DOCKED: REMARK    3  A    between atoms: C_4  and  C_5
DOCKED: REMARK    4  A    between atoms: C_10  and  C_11
DOCKED: REMARK    5  A    between atoms: C_11  and  N_12
DOCKED: REMARK    6  A    between atoms: N_12  and  C_13
DOCKED: REMARK    7  A    between atoms: N_12  and  C_15
DOCKED: REMARK    8  A    between atoms: C_13  and  C_14
DOCKED: REMARK    9  A    between atoms: C_15  and  C_16
DOCKED: REMARK   10  A    between atoms: N_21  and  C_22
DOCKED: REMARK   11  A    between atoms: C_25  and  C_26
DOCKED: REMARK                            x       y       z     vdW  Elec       q    Type
DOCKED: REMARK                         _______ _______ _______ _____ _____    ______ ____
DOCKED: USER                              x       y       z     vdW  Elec       q    Type
DOCKED: USER                           _______ _______ _______ _____ _____    ______ ____
DOCKED: ROOT
DOCKED: ATOM      1  C   UNL     1      30.083 -15.164  -0.492 -0.12 -0.00    +0.000 C 
DOCKED: ENDROOT
DOCKED: BRANCH   1   2
DOCKED: ATOM      2  C   UNL     1      29.435 -14.660  -1.753 -0.08 -0.00    +0.000 A 
DOCKED: ATOM      3  C   UNL     1      29.320 -15.492  -2.878 -0.15 -0.00    +0.000 A 
DOCKED: ATOM      4  C   UNL     1      28.699 -15.029  -4.041 -0.21 -0.00    +0.000 A 
DOCKED: ATOM      5  C   UNL     1      28.180 -13.727  -4.093 -0.17 -0.00    +0.000 A 
DOCKED: ATOM      6  C   UNL     1      27.550 -13.256  -5.255 -0.24 -0.00    +0.000 A 
DOCKED: ATOM      7  C   UNL     1      27.028 -11.954  -5.300 -0.19 -0.00    +0.000 A 
DOCKED: ATOM      8  C   UNL     1      27.147 -11.120  -4.178 -0.13 -0.00    +0.000 A 
DOCKED: ATOM      9  C   UNL     1      27.774 -11.581  -3.017 -0.09 -0.00    +0.000 A 
DOCKED: ATOM     10  C   UNL     1      28.292 -12.882  -2.964 -0.09 -0.00    +0.000 A 
DOCKED: ATOM     11  C   UNL     1      28.920 -13.355  -1.802 -0.06 -0.00    +0.000 A 
DOCKED: BRANCH   7  12
DOCKED: ATOM     12  C   UNL     1      26.367 -11.452  -6.559 -0.06 -0.00    +0.000 C 
DOCKED: BRANCH  12  13
DOCKED: ATOM     13  N   UNL     1      26.360  -9.973  -6.600 -0.15 -0.00    +0.000 N 
DOCKED: ATOM     14  H   UNL     1      27.054  -9.731  -5.893 +0.00 -0.00    +0.000 HD
DOCKED: BRANCH  13  15
DOCKED: ATOM     15  C   UNL     1      26.913  -9.373  -7.837 -0.10 -0.00    +0.000 C 
DOCKED: ATOM     16  C   UNL     1      26.311  -9.923  -9.141 -0.21 -0.00    +0.000 C 
DOCKED: ENDBRANCH  13  15
DOCKED: BRANCH  13  17
DOCKED: ATOM     17  C   UNL     1      25.128  -9.327  -6.088 -0.26 -0.00    +0.000 C 
DOCKED: ATOM     18  C   UNL     1      23.828  -9.987  -6.555 -0.44 -0.00    +0.000 C 
DOCKED: ENDBRANCH  13  17
DOCKED: ENDBRANCH  12  13
DOCKED: ENDBRANCH   7  12
DOCKED: ENDBRANCH   1   2
DOCKED: BRANCH   1  19
DOCKED: ATOM     19  O   UNL     1      29.291 -16.193   0.099 -0.22 -0.00    +0.000 OA
DOCKED: BRANCH  19  21
DOCKED: ATOM     20  O   UNL     1      27.202 -15.492   0.792 -0.34 -0.00    +0.000 OA
DOCKED: ATOM     21  C   UNL     1      27.894 -16.223   0.031 -0.30 -0.00    +0.000 C 
DOCKED: ATOM     22  N   UNL     1      27.262 -17.063  -0.943 -0.43 -0.00    +0.000 N 
DOCKED: ATOM     23  H   UNL     1      27.824 -17.445  -1.655 -0.03 -0.00    +0.000 HD
DOCKED: BRANCH  22  24
DOCKED: ATOM     24  C   UNL     1      25.860 -17.384  -0.947 -0.55 -0.00    +0.000 A 
DOCKED: ATOM     25  C   UNL     1      24.940 -16.442  -1.426 -0.52 -0.00    +0.000 A 
DOCKED: ATOM     26  C   UNL     1      23.574 -16.739  -1.467 -0.24 -0.00    +0.000 A 
DOCKED: ATOM     27  C   UNL     1      23.104 -17.994  -1.042 -0.70 -0.00    +0.000 A 
DOCKED: ATOM     28  C   UNL     1      24.032 -18.950  -0.595 -0.54 -0.00    +0.000 A 
DOCKED: ATOM     29  C   UNL     1      25.397 -18.651  -0.549 -0.47 -0.00    +0.000 A 
DOCKED: BRANCH  27  30
DOCKED: ATOM     30  C   UNL     1      21.659 -18.330  -1.092 -0.71 -0.00    +0.000 C 
DOCKED: ATOM     31  N   UNL     1      21.205 -19.594  -1.587 -0.67 -0.00    +0.000 N 
DOCKED: ATOM     32  O   UNL     1      19.892 -19.914  -1.528 -2.18 -0.00    +0.000 OA
DOCKED: ATOM     33  O   UNL     1      20.810 -17.480  -0.706 -2.07 +0.00    +0.000 OA
DOCKED: ATOM     34  H   UNL     1      21.849 -20.232  -1.971 -0.49 -0.00    +0.000 HD
DOCKED: ENDBRANCH  27  30
DOCKED: ENDBRANCH  22  24
DOCKED: ENDBRANCH  19  21
DOCKED: ENDBRANCH   1  19
DOCKED: TORSDOF 9
DOCKED: TER
DOCKED: ENDMDL
________________________________________________________________________________


	BEGINNING GENETIC ALGORITHM DOCKING 24 of 100
Run: 24 Seed: 997872330 196291627 [ Run 24 of 100 GA/GALS ]
Beginning LAMARCKIAN GENETIC ALGORITHM (LGA), with a maximum of 2500000 energy evaluations.

Final-Value: -15.710


	FINAL GENETIC ALGORITHM DOCKED STATE
	_______________________________________________


Detailed state:  trans 26.631 -13.911 -2.150 quatxyzw 0.144016 0.073991 0.801934 0.575053 center 1.436 0.069 -0.007 ntor 9 153.7286 144.6745 138.8425 167.5223 -172.2297 156.4062 17.0339 1.0185 -112.0908
State:	 26.631 -13.911  -2.150   0.176  0.090  0.980 109.793    153.73  144.67  138.84  167.52 -172.23  156.41   17.03    1.02 -112.09

DOCKED: MODEL       24
DOCKED: USER    Run = 24
DOCKED: USER    DPF = ligand_dock.biased.dpf
DOCKED: USER  
DOCKED: USER    Estimated Free Energy of Binding    =  -11.38 kcal/mol  [=(1)+(2)+(3)-(4)]
DOCKED: USER    Estimated Inhibition Constant, Ki   =    4.52 nM (nanomolar)  [Temperature = 298.15 K]
DOCKED: USER    
DOCKED: USER    (1) Final Intermolecular Energy     =  -14.07 kcal/mol
DOCKED: USER        vdW + Hbond + desolv Energy     =  -14.07 kcal/mol
DOCKED: USER        Electrostatic Energy            =   +0.00 kcal/mol
DOCKED: USER    (2) Final Total Internal Energy     =   -1.64 kcal/mol
DOCKED: USER    (3) Torsional Free Energy           =   +2.68 kcal/mol
DOCKED: USER    (4) Unbound System's Energy  [=(2)] =   -1.64 kcal/mol
DOCKED: USER    
DOCKED: USER    
DOCKED: USER    NEWDPF move ligand.pdbqt
DOCKED: USER    NEWDPF about 1.436000 0.069000 -0.007000
DOCKED: USER    NEWDPF tran0 26.631360 -13.911158 -2.150465
DOCKED: USER    NEWDPF quaternion0 0.144016 0.073991 0.801934 0.575053
DOCKED: USER    NEWDPF axisangle0 0.176034 0.090441 0.980221 109.793274
DOCKED: USER    NEWDPF quat0 0.176034 0.090441 0.980221 109.793274
DOCKED: USER    NEWDPF dihe0 153.73 144.67 138.84 167.52 -172.23 156.41 17.03 1.02 -112.09 
DOCKED: USER  keepresnum = 1 
DOCKED: USER  
DOCKED: REMARK  Name = 
DOCKED: REMARK  11 active torsions:
DOCKED: REMARK  status: ('A' for Active; 'I' for Inactive)
DOCKED: REMARK    1  A    between atoms: C_2  and  O_3
DOCKED: REMARK    2  A    between atoms: O_3  and  C_4
DOCKED: REMARK    3  A    between atoms: C_4  and  C_5
DOCKED: REMARK    4  A    between atoms: C_10  and  C_11
DOCKED: REMARK    5  A    between atoms: C_11  and  N_12
DOCKED: REMARK    6  A    between atoms: N_12  and  C_13
DOCKED: REMARK    7  A    between atoms: N_12  and  C_15
DOCKED: REMARK    8  A    between atoms: C_13  and  C_14
DOCKED: REMARK    9  A    between atoms: C_15  and  C_16
DOCKED: REMARK   10  A    between atoms: N_21  and  C_22
DOCKED: REMARK   11  A    between atoms: C_25  and  C_26
DOCKED: REMARK                            x       y       z     vdW  Elec       q    Type
DOCKED: REMARK                         _______ _______ _______ _____ _____    ______ ____
DOCKED: USER                              x       y       z     vdW  Elec       q    Type
DOCKED: USER                           _______ _______ _______ _____ _____    ______ ____
DOCKED: ROOT
DOCKED: ATOM      1  C   UNL     1      30.252 -15.429  -1.962 -0.09 -0.00    +0.000 C 
DOCKED: ENDROOT
DOCKED: BRANCH   1   2
DOCKED: ATOM      2  C   UNL     1      29.628 -14.203  -2.572 -0.06 -0.00    +0.000 A 
DOCKED: ATOM      3  C   UNL     1      30.381 -13.031  -2.746 -0.02 -0.00    +0.000 A 
DOCKED: ATOM      4  C   UNL     1      29.806 -11.900  -3.332 -0.02 -0.00    +0.000 A 
DOCKED: ATOM      5  C   UNL     1      28.469 -11.927  -3.755 -0.07 -0.00    +0.000 A 
DOCKED: ATOM      6  C   UNL     1      27.885 -10.798  -4.349 -0.08 -0.00    +0.000 A 
DOCKED: ATOM      7  C   UNL     1      26.548 -10.832  -4.775 -0.18 -0.00    +0.000 A 
DOCKED: ATOM      8  C   UNL     1      25.793 -12.002  -4.596 -0.30 -0.00    +0.000 A 
DOCKED: ATOM      9  C   UNL     1      26.367 -13.131  -4.005 -0.31 -0.00    +0.000 A 
DOCKED: ATOM     10  C   UNL     1      27.703 -13.104  -3.582 -0.16 -0.00    +0.000 A 
DOCKED: ATOM     11  C   UNL     1      28.289 -14.234  -2.991 -0.14 -0.00    +0.000 A 
DOCKED: BRANCH   7  12
DOCKED: ATOM     12  C   UNL     1      25.925  -9.608  -5.397 -0.20 -0.00    +0.000 C 
DOCKED: BRANCH  12  13
DOCKED: ATOM     13  N   UNL     1      25.463  -9.890  -6.773 -0.22 -0.00    +0.000 N 
DOCKED: ATOM     14  H   UNL     1      25.616  -8.997  -7.242 +0.00 -0.00    +0.000 HD
DOCKED: BRANCH  13  15
DOCKED: ATOM     15  C   UNL     1      26.312 -10.828  -7.545 -0.22 -0.00    +0.000 C 
DOCKED: ATOM     16  C   UNL     1      26.055 -10.826  -9.061 -0.30 -0.00    +0.000 C 
DOCKED: ENDBRANCH  13  15
DOCKED: BRANCH  13  17
DOCKED: ATOM     17  C   UNL     1      24.003 -10.098  -6.926 -0.47 -0.00    +0.000 C 
DOCKED: ATOM     18  C   UNL     1      23.165  -8.828  -6.761 -0.43 -0.00    +0.000 C 
DOCKED: ENDBRANCH  13  17
DOCKED: ENDBRANCH  12  13
DOCKED: ENDBRANCH   7  12
DOCKED: ENDBRANCH   1   2
DOCKED: BRANCH   1  19
DOCKED: ATOM     19  O   UNL     1      29.407 -15.965  -0.945 -0.19 -0.00    +0.000 OA
DOCKED: BRANCH  19  21
DOCKED: ATOM     20  O   UNL     1      27.940 -17.051  -2.361 -0.34 -0.00    +0.000 OA
DOCKED: ATOM     21  C   UNL     1      28.184 -16.589  -1.212 -0.35 -0.00    +0.000 C 
DOCKED: ATOM     22  N   UNL     1      27.229 -16.733  -0.153 -0.41 -0.00    +0.000 N 
DOCKED: ATOM     23  H   UNL     1      27.534 -16.563   0.767 -0.27 -0.00    +0.000 HD
DOCKED: BRANCH  22  24
DOCKED: ATOM     24  C   UNL     1      25.855 -17.110  -0.346 -0.49 -0.00    +0.000 A 
DOCKED: ATOM     25  C   UNL     1      25.059 -16.376  -1.235 -0.51 -0.00    +0.000 A 
DOCKED: ATOM     26  C   UNL     1      23.728 -16.738  -1.463 -0.36 -0.00    +0.000 A 
DOCKED: ATOM     27  C   UNL     1      23.170 -17.853  -0.813 -0.71 -0.00    +0.000 A 
DOCKED: ATOM     28  C   UNL     1      23.980 -18.609   0.052 -0.46 -0.00    +0.000 A 
DOCKED: ATOM     29  C   UNL     1      25.310 -18.244   0.283 -0.46 -0.00    +0.000 A 
DOCKED: BRANCH  27  30
DOCKED: ATOM     30  C   UNL     1      21.763 -18.258  -1.054 -0.74 -0.00    +0.000 C 
DOCKED: ATOM     31  N   UNL     1      21.444 -19.501  -1.689 -0.59 -0.00    +0.000 N 
DOCKED: ATOM     32  O   UNL     1      20.154 -19.893  -1.806 -2.31 -0.00    +0.000 OA
DOCKED: ATOM     33  O   UNL     1      20.827 -17.488  -0.707 -2.08 +0.00    +0.000 OA
DOCKED: ATOM     34  H   UNL     1      22.165 -20.072  -2.043 -0.52 -0.00    +0.000 HD
DOCKED: ENDBRANCH  27  30
DOCKED: ENDBRANCH  22  24
DOCKED: ENDBRANCH  19  21
DOCKED: ENDBRANCH   1  19
DOCKED: TORSDOF 9
DOCKED: TER
DOCKED: ENDMDL
________________________________________________________________________________


	BEGINNING GENETIC ALGORITHM DOCKING 25 of 100
Run: 25 Seed: 1707131416 1599515049 [ Run 25 of 100 GA/GALS ]
Beginning LAMARCKIAN GENETIC ALGORITHM (LGA), with a maximum of 2500000 energy evaluations.

Final-Value: -15.829


	FINAL GENETIC ALGORITHM DOCKED STATE
	_______________________________________________


Detailed state:  trans 27.603 -15.581 3.264 quatxyzw -0.122263 -0.685771 0.554403 0.455419 center 1.436 0.069 -0.007 ntor 9 -58.8211 177.8975 172.3726 105.7712 146.3891 -52.3268 -34.2830 -2.3253 -163.1673
State:	 27.603 -15.581   3.264  -0.137 -0.770  0.623 125.816    -58.82  177.90  172.37  105.77  146.39  -52.33  -34.28   -2.33 -163.17

DOCKED: MODEL       25
DOCKED: USER    Run = 25
DOCKED: USER    DPF = ligand_dock.biased.dpf
DOCKED: USER  
DOCKED: USER    Estimated Free Energy of Binding    =  -11.51 kcal/mol  [=(1)+(2)+(3)-(4)]
DOCKED: USER    Estimated Inhibition Constant, Ki   =    3.65 nM (nanomolar)  [Temperature = 298.15 K]
DOCKED: USER    
DOCKED: USER    (1) Final Intermolecular Energy     =  -14.20 kcal/mol
DOCKED: USER        vdW + Hbond + desolv Energy     =  -14.20 kcal/mol
DOCKED: USER        Electrostatic Energy            =   +0.00 kcal/mol
DOCKED: USER    (2) Final Total Internal Energy     =   -1.63 kcal/mol
DOCKED: USER    (3) Torsional Free Energy           =   +2.68 kcal/mol
DOCKED: USER    (4) Unbound System's Energy  [=(2)] =   -1.63 kcal/mol
DOCKED: USER    
DOCKED: USER    
DOCKED: USER    NEWDPF move ligand.pdbqt
DOCKED: USER    NEWDPF about 1.436000 0.069000 -0.007000
DOCKED: USER    NEWDPF tran0 27.602658 -15.581352 3.263758
DOCKED: USER    NEWDPF quaternion0 -0.122263 -0.685771 0.554403 0.455419
DOCKED: USER    NEWDPF axisangle0 -0.137331 -0.770290 0.622731 125.816156
DOCKED: USER    NEWDPF quat0 -0.137331 -0.770290 0.622731 125.816156
DOCKED: USER    NEWDPF dihe0 -58.82 177.90 172.37 105.77 146.39 -52.33 -34.28 -2.33 -163.17 
DOCKED: USER  keepresnum = 1 
DOCKED: USER  
DOCKED: REMARK  Name = 
DOCKED: REMARK  11 active torsions:
DOCKED: REMARK  status: ('A' for Active; 'I' for Inactive)
DOCKED: REMARK    1  A    between atoms: C_2  and  O_3
DOCKED: REMARK    2  A    between atoms: O_3  and  C_4
DOCKED: REMARK    3  A    between atoms: C_4  and  C_5
DOCKED: REMARK    4  A    between atoms: C_10  and  C_11
DOCKED: REMARK    5  A    between atoms: C_11  and  N_12
DOCKED: REMARK    6  A    between atoms: N_12  and  C_13
DOCKED: REMARK    7  A    between atoms: N_12  and  C_15
DOCKED: REMARK    8  A    between atoms: C_13  and  C_14
DOCKED: REMARK    9  A    between atoms: C_15  and  C_16
DOCKED: REMARK   10  A    between atoms: N_21  and  C_22
DOCKED: REMARK   11  A    between atoms: C_25  and  C_26
DOCKED: REMARK                            x       y       z     vdW  Elec       q    Type
DOCKED: REMARK                         _______ _______ _______ _____ _____    ______ ____
DOCKED: USER                              x       y       z     vdW  Elec       q    Type
DOCKED: USER                           _______ _______ _______ _____ _____    ______ ____
DOCKED: ROOT
DOCKED: ATOM      1  C   UNL     1      30.169 -14.552   0.471 -0.12 -0.00    +0.000 C 
DOCKED: ENDROOT
DOCKED: BRANCH   1   2
DOCKED: ATOM      2  C   UNL     1      29.983 -14.240   1.931 -0.13 -0.00    +0.000 A 
DOCKED: ATOM      3  C   UNL     1      30.759 -14.889   2.904 -0.18 -0.00    +0.000 A 
DOCKED: ATOM      4  C   UNL     1      30.600 -14.582   4.258 -0.26 -0.00    +0.000 A 
DOCKED: ATOM      5  C   UNL     1      29.663 -13.618   4.657 -0.29 -0.00    +0.000 A 
DOCKED: ATOM      6  C   UNL     1      29.500 -13.300   6.014 -0.33 -0.00    +0.000 A 
DOCKED: ATOM      7  C   UNL     1      28.565 -12.331   6.408 -0.37 -0.00    +0.000 A 
DOCKED: ATOM      8  C   UNL     1      27.784 -11.686   5.436 -0.35 +0.00    +0.000 A 
DOCKED: ATOM      9  C   UNL     1      27.940 -11.996   4.083 -0.28 +0.00    +0.000 A 
DOCKED: ATOM     10  C   UNL     1      28.876 -12.960   3.683 -0.22 -0.00    +0.000 A 
DOCKED: ATOM     11  C   UNL     1      29.042 -13.276   2.326 -0.16 -0.00    +0.000 A 
DOCKED: BRANCH   7  12
DOCKED: ATOM     12  C   UNL     1      28.386 -12.009   7.870 -0.14 +0.00    +0.000 C 
DOCKED: BRANCH  12  13
DOCKED: ATOM     13  N   UNL     1      29.464 -11.119   8.352 -0.30 -0.00    +0.000 N 
DOCKED: ATOM     14  H   UNL     1      29.006 -10.610   9.109 -0.51 -0.00    +0.000 HD
DOCKED: BRANCH  13  15
DOCKED: ATOM     15  C   UNL     1      30.589 -11.802   9.035 -0.21 -0.00    +0.000 C 
DOCKED: ATOM     16  C   UNL     1      30.283 -13.237   9.494 -0.31 -0.00    +0.000 C 
DOCKED: ENDBRANCH  13  15
DOCKED: BRANCH  13  17
DOCKED: ATOM     17  C   UNL     1      29.862 -10.036   7.421 -0.22 +0.00    +0.000 C 
DOCKED: ATOM     18  C   UNL     1      29.347  -8.648   7.809 -0.20 +0.00    +0.000 C 
DOCKED: ENDBRANCH  13  17
DOCKED: ENDBRANCH  12  13
DOCKED: ENDBRANCH   7  12
DOCKED: ENDBRANCH   1   2
DOCKED: BRANCH   1  19
DOCKED: ATOM     19  O   UNL     1      29.469 -15.745   0.122 -0.21 -0.00    +0.000 OA
DOCKED: BRANCH  19  21
DOCKED: ATOM     20  O   UNL     1      27.392 -15.175   0.958 -0.36 -0.00    +0.000 OA
DOCKED: ATOM     21  C   UNL     1      28.074 -15.851   0.139 -0.25 -0.00    +0.000 C 
DOCKED: ATOM     22  N   UNL     1      27.428 -16.705  -0.814 -0.39 -0.00    +0.000 N 
DOCKED: ATOM     23  H   UNL     1      27.964 -17.041  -1.567 -0.02 -0.00    +0.000 HD
DOCKED: BRANCH  22  24
DOCKED: ATOM     24  C   UNL     1      26.049 -17.103  -0.740 -0.52 -0.00    +0.000 A 
DOCKED: ATOM     25  C   UNL     1      25.090 -16.403  -1.484 -0.53 -0.00    +0.000 A 
DOCKED: ATOM     26  C   UNL     1      23.746 -16.787  -1.453 -0.39 -0.00    +0.000 A 
DOCKED: ATOM     27  C   UNL     1      23.336 -17.890  -0.683 -0.71 -0.00    +0.000 A 
DOCKED: ATOM     28  C   UNL     1      24.305 -18.612   0.036 -0.40 -0.00    +0.000 A 
DOCKED: ATOM     29  C   UNL     1      25.648 -18.225   0.008 -0.59 -0.00    +0.000 A 
DOCKED: BRANCH  27  30
DOCKED: ATOM     30  C   UNL     1      21.916 -18.318  -0.650 -0.85 -0.00    +0.000 C 
DOCKED: ATOM     31  N   UNL     1      21.556 -19.694  -0.489 -0.69 -0.00    +0.000 N 
DOCKED: ATOM     32  O   UNL     1      20.256 -20.046  -0.360 -1.40 -0.00    +0.000 OA
DOCKED: ATOM     33  O   UNL     1      21.004 -17.456  -0.780 -2.02 -0.00    +0.000 OA
DOCKED: ATOM     34  H   UNL     1      22.256 -20.387  -0.473 -0.26 -0.00    +0.000 HD
DOCKED: ENDBRANCH  27  30
DOCKED: ENDBRANCH  22  24
DOCKED: ENDBRANCH  19  21
DOCKED: ENDBRANCH   1  19
DOCKED: TORSDOF 9
DOCKED: TER
DOCKED: ENDMDL
________________________________________________________________________________


	BEGINNING GENETIC ALGORITHM DOCKING 26 of 100
Run: 26 Seed: 297484939 1226501621 [ Run 26 of 100 GA/GALS ]
Beginning LAMARCKIAN GENETIC ALGORITHM (LGA), with a maximum of 2500000 energy evaluations.

Final-Value: -15.240


	FINAL GENETIC ALGORITHM DOCKED STATE
	_______________________________________________


Detailed state:  trans 27.902 -14.878 -3.536 quatxyzw -0.571162 0.355571 0.449716 0.587451 center 1.436 0.069 -0.007 ntor 9 -169.5307 -31.7839 139.0267 13.8853 -180.0000 172.1333 -114.5576 -168.6028 73.0457
State:	 27.902 -14.878  -3.536  -0.706  0.439  0.556 108.047   -169.53  -31.78  139.03   13.89 -180.00  172.13 -114.56 -168.60   73.05

DOCKED: MODEL       26
DOCKED: USER    Run = 26
DOCKED: USER    DPF = ligand_dock.biased.dpf
DOCKED: USER  
DOCKED: USER    Estimated Free Energy of Binding    =  -10.93 kcal/mol  [=(1)+(2)+(3)-(4)]
DOCKED: USER    Estimated Inhibition Constant, Ki   =    9.72 nM (nanomolar)  [Temperature = 298.15 K]
DOCKED: USER    
DOCKED: USER    (1) Final Intermolecular Energy     =  -13.62 kcal/mol
DOCKED: USER        vdW + Hbond + desolv Energy     =  -13.62 kcal/mol
DOCKED: USER        Electrostatic Energy            =   +0.00 kcal/mol
DOCKED: USER    (2) Final Total Internal Energy     =   -1.62 kcal/mol
DOCKED: USER    (3) Torsional Free Energy           =   +2.68 kcal/mol
DOCKED: USER    (4) Unbound System's Energy  [=(2)] =   -1.62 kcal/mol
DOCKED: USER    
DOCKED: USER    
DOCKED: USER    NEWDPF move ligand.pdbqt
DOCKED: USER    NEWDPF about 1.436000 0.069000 -0.007000
DOCKED: USER    NEWDPF tran0 27.902136 -14.877690 -3.535779
DOCKED: USER    NEWDPF quaternion0 -0.571162 0.355571 0.449716 0.587451
DOCKED: USER    NEWDPF axisangle0 -0.705784 0.439378 0.555713 108.047357
DOCKED: USER    NEWDPF quat0 -0.705784 0.439378 0.555713 108.047357
DOCKED: USER    NEWDPF dihe0 -169.53 -31.78 139.03 13.89 -180.00 172.13 -114.56 -168.60 73.05 
DOCKED: USER  keepresnum = 1 
DOCKED: USER  
DOCKED: REMARK  Name = 
DOCKED: REMARK  11 active torsions:
DOCKED: REMARK  status: ('A' for Active; 'I' for Inactive)
DOCKED: REMARK    1  A    between atoms: C_2  and  O_3
DOCKED: REMARK    2  A    between atoms: O_3  and  C_4
DOCKED: REMARK    3  A    between atoms: C_4  and  C_5
DOCKED: REMARK    4  A    between atoms: C_10  and  C_11
DOCKED: REMARK    5  A    between atoms: C_11  and  N_12
DOCKED: REMARK    6  A    between atoms: N_12  and  C_13
DOCKED: REMARK    7  A    between atoms: N_12  and  C_15
DOCKED: REMARK    8  A    between atoms: C_13  and  C_14
DOCKED: REMARK    9  A    between atoms: C_15  and  C_16
DOCKED: REMARK   10  A    between atoms: N_21  and  C_22
DOCKED: REMARK   11  A    between atoms: C_25  and  C_26
DOCKED: REMARK                            x       y       z     vdW  Elec       q    Type
DOCKED: REMARK                         _______ _______ _______ _____ _____    ______ ____
DOCKED: USER                              x       y       z     vdW  Elec       q    Type
DOCKED: USER                           _______ _______ _______ _____ _____    ______ ____
DOCKED: ROOT
DOCKED: ATOM      1  C   UNL     1      28.243 -15.525   0.326 -0.23 -0.00    +0.000 C 
DOCKED: ENDROOT
DOCKED: BRANCH   1   2
DOCKED: ATOM      2  C   UNL     1      28.043 -14.318  -0.551 -0.17 -0.00    +0.000 A 
DOCKED: ATOM      3  C   UNL     1      28.432 -14.344  -1.899 -0.12 -0.00    +0.000 A 
DOCKED: ATOM      4  C   UNL     1      28.225 -13.230  -2.718 -0.10 -0.00    +0.000 A 
DOCKED: ATOM      5  C   UNL     1      27.623 -12.075  -2.198 -0.11 -0.00    +0.000 A 
DOCKED: ATOM      6  C   UNL     1      27.407 -10.954  -3.014 -0.10 -0.00    +0.000 A 
DOCKED: ATOM      7  C   UNL     1      26.799  -9.802  -2.490 -0.12 -0.00    +0.000 A 
DOCKED: ATOM      8  C   UNL     1      26.415  -9.774  -1.140 -0.10 +0.00    +0.000 A 
DOCKED: ATOM      9  C   UNL     1      26.627 -10.886  -0.321 -0.09 +0.00    +0.000 A 
DOCKED: ATOM     10  C   UNL     1      27.229 -12.041  -0.840 -0.11 -0.00    +0.000 A 
DOCKED: ATOM     11  C   UNL     1      27.443 -13.163  -0.026 -0.18 -0.00    +0.000 A 
DOCKED: BRANCH   7  12
DOCKED: ATOM     12  C   UNL     1      26.587  -8.598  -3.371 -0.12 -0.00    +0.000 C 
DOCKED: BRANCH  12  13
DOCKED: ATOM     13  N   UNL     1      25.147  -8.368  -3.617 -0.22 -0.00    +0.000 N 
DOCKED: ATOM     14  H   UNL     1      24.782  -8.233  -2.674 -0.43 -0.00    +0.000 HD
DOCKED: BRANCH  13  15
DOCKED: ATOM     15  C   UNL     1      24.817  -7.092  -4.296 -0.17 -0.00    +0.000 C 
DOCKED: ATOM     16  C   UNL     1      23.756  -6.241  -3.579 -0.18 -0.00    +0.000 C 
DOCKED: ENDBRANCH  13  15
DOCKED: BRANCH  13  17
DOCKED: ATOM     17  C   UNL     1      24.387  -9.547  -4.098 -0.23 -0.00    +0.000 C 
DOCKED: ATOM     18  C   UNL     1      24.031  -9.504  -5.586 -0.42 -0.00    +0.000 C 
DOCKED: ENDBRANCH  13  17
DOCKED: ENDBRANCH  12  13
DOCKED: ENDBRANCH   7  12
DOCKED: ENDBRANCH   1   2
DOCKED: BRANCH   1  19
DOCKED: ATOM     19  O   UNL     1      27.883 -16.715  -0.373 -0.40 -0.00    +0.000 OA
DOCKED: BRANCH  19  21
DOCKED: ATOM     20  O   UNL     1      26.599 -18.490   0.361 -0.70 -0.00    +0.000 OA
DOCKED: ATOM     21  C   UNL     1      26.654 -17.363  -0.205 -0.55 -0.00    +0.000 C 
DOCKED: ATOM     22  N   UNL     1      25.456 -16.712  -0.646 -0.50 -0.00    +0.000 N 
DOCKED: ATOM     23  H   UNL     1      25.511 -15.757  -0.877 -0.02 -0.00    +0.000 HD
DOCKED: BRANCH  22  24
DOCKED: ATOM     24  C   UNL     1      24.180 -17.362  -0.772 -0.64 -0.00    +0.000 A 
DOCKED: ATOM     25  C   UNL     1      24.122 -18.676  -1.254 -0.59 -0.00    +0.000 A 
DOCKED: ATOM     26  C   UNL     1      22.897 -19.341  -1.360 -0.58 -0.00    +0.000 A 
DOCKED: ATOM     27  C   UNL     1      21.704 -18.706  -0.973 -0.74 -0.00    +0.000 A 
DOCKED: ATOM     28  C   UNL     1      21.768 -17.400  -0.457 -0.53 -0.00    +0.000 A 
DOCKED: ATOM     29  C   UNL     1      22.993 -16.733  -0.355 -0.21 -0.00    +0.000 A 
DOCKED: BRANCH  27  30
DOCKED: ATOM     30  C   UNL     1      20.397 -19.403  -1.066 -0.89 -0.00    +0.000 C 
DOCKED: ATOM     31  N   UNL     1      19.638 -19.725   0.105 -0.75 -0.00    +0.000 N 
DOCKED: ATOM     32  O   UNL     1      18.405 -20.268  -0.013 -0.95 -0.00    +0.000 OA
DOCKED: ATOM     33  O   UNL     1      19.949 -19.734  -2.198 -2.32 -0.00    +0.000 OA
DOCKED: ATOM     34  H   UNL     1      20.015 -19.550   0.998 -0.06 -0.00    +0.000 HD
DOCKED: ENDBRANCH  27  30
DOCKED: ENDBRANCH  22  24
DOCKED: ENDBRANCH  19  21
DOCKED: ENDBRANCH   1  19
DOCKED: TORSDOF 9
DOCKED: TER
DOCKED: ENDMDL
________________________________________________________________________________


	BEGINNING GENETIC ALGORITHM DOCKING 27 of 100
Run: 27 Seed: 1916469093 2029763799 [ Run 27 of 100 GA/GALS ]
Beginning LAMARCKIAN GENETIC ALGORITHM (LGA), with a maximum of 2500000 energy evaluations.

Final-Value: -14.514


	FINAL GENETIC ALGORITHM DOCKED STATE
	_______________________________________________


Detailed state:  trans 30.193 -12.645 0.966 quatxyzw 0.559244 0.158892 -0.809455 0.082362 center 1.436 0.069 -0.007 ntor 9 179.8225 180.0000 163.9432 -81.5268 -93.4685 -176.1891 -143.6508 157.7513 -29.7756
State:	 30.193 -12.645   0.966   0.561  0.159 -0.812 170.551    179.82  180.00  163.94  -81.53  -93.47 -176.19 -143.65  157.75  -29.78

DOCKED: MODEL       27
DOCKED: USER    Run = 27
DOCKED: USER    DPF = ligand_dock.biased.dpf
DOCKED: USER  
DOCKED: USER    Estimated Free Energy of Binding    =  -10.44 kcal/mol  [=(1)+(2)+(3)-(4)]
DOCKED: USER    Estimated Inhibition Constant, Ki   =   22.28 nM (nanomolar)  [Temperature = 298.15 K]
DOCKED: USER    
DOCKED: USER    (1) Final Intermolecular Energy     =  -13.12 kcal/mol
DOCKED: USER        vdW + Hbond + desolv Energy     =  -13.12 kcal/mol
DOCKED: USER        Electrostatic Energy            =   +0.00 kcal/mol
DOCKED: USER    (2) Final Total Internal Energy     =   -1.39 kcal/mol
DOCKED: USER    (3) Torsional Free Energy           =   +2.68 kcal/mol
DOCKED: USER    (4) Unbound System's Energy  [=(2)] =   -1.39 kcal/mol
DOCKED: USER    
DOCKED: USER    
DOCKED: USER    NEWDPF move ligand.pdbqt
DOCKED: USER    NEWDPF about 1.436000 0.069000 -0.007000
DOCKED: USER    NEWDPF tran0 30.192780 -12.644547 0.965688
DOCKED: USER    NEWDPF quaternion0 0.559244 0.158892 -0.809455 0.082362
DOCKED: USER    NEWDPF axisangle0 0.561150 0.159434 -0.812214 170.551362
DOCKED: USER    NEWDPF quat0 0.561150 0.159434 -0.812214 170.551362
DOCKED: USER    NEWDPF dihe0 179.82 180.00 163.94 -81.53 -93.47 -176.19 -143.65 157.75 -29.78 
DOCKED: USER  keepresnum = 1 
DOCKED: USER  
DOCKED: REMARK  Name = 
DOCKED: REMARK  11 active torsions:
DOCKED: REMARK  status: ('A' for Active; 'I' for Inactive)
DOCKED: REMARK    1  A    between atoms: C_2  and  O_3
DOCKED: REMARK    2  A    between atoms: O_3  and  C_4
DOCKED: REMARK    3  A    between atoms: C_4  and  C_5
DOCKED: REMARK    4  A    between atoms: C_10  and  C_11
DOCKED: REMARK    5  A    between atoms: C_11  and  N_12
DOCKED: REMARK    6  A    between atoms: N_12  and  C_13
DOCKED: REMARK    7  A    between atoms: N_12  and  C_15
DOCKED: REMARK    8  A    between atoms: C_13  and  C_14
DOCKED: REMARK    9  A    between atoms: C_15  and  C_16
DOCKED: REMARK   10  A    between atoms: N_21  and  C_22
DOCKED: REMARK   11  A    between atoms: C_25  and  C_26
DOCKED: REMARK                            x       y       z     vdW  Elec       q    Type
DOCKED: REMARK                         _______ _______ _______ _____ _____    ______ ____
DOCKED: USER                              x       y       z     vdW  Elec       q    Type
DOCKED: USER                           _______ _______ _______ _____ _____    ______ ____
DOCKED: ROOT
DOCKED: ATOM      1  C   UNL     1      29.983 -16.236  -0.618 -0.18 -0.00    +0.000 C 
DOCKED: ENDROOT
DOCKED: BRANCH   1   2
DOCKED: ATOM      2  C   UNL     1      30.640 -15.628   0.592 -0.10 -0.00    +0.000 A 
DOCKED: ATOM      3  C   UNL     1      32.017 -15.789   0.812 -0.09 -0.00    +0.000 A 
DOCKED: ATOM      4  C   UNL     1      32.629 -15.206   1.925 -0.09 -0.00    +0.000 A 
DOCKED: ATOM      5  C   UNL     1      31.871 -14.451   2.832 -0.14 -0.00    +0.000 A 
DOCKED: ATOM      6  C   UNL     1      32.479 -13.858   3.950 -0.11 -0.00    +0.000 A 
DOCKED: ATOM      7  C   UNL     1      31.717 -13.099   4.852 -0.14 -0.00    +0.000 A 
DOCKED: ATOM      8  C   UNL     1      30.339 -12.943   4.635 -0.17 -0.00    +0.000 A 
DOCKED: ATOM      9  C   UNL     1      29.726 -13.530   3.525 -0.20 -0.00    +0.000 A 
DOCKED: ATOM     10  C   UNL     1      30.483 -14.285   2.618 -0.16 -0.00    +0.000 A 
DOCKED: ATOM     11  C   UNL     1      29.877 -14.876   1.499 +0.01 -0.00    +0.000 A 
DOCKED: BRANCH   7  12
DOCKED: ATOM     12  C   UNL     1      32.376 -12.480   6.058 -0.13 -0.00    +0.000 C 
DOCKED: BRANCH  12  13
DOCKED: ATOM     13  N   UNL     1      31.374 -12.125   7.086 -0.14 -0.00    +0.000 N 
DOCKED: ATOM     14  H   UNL     1      30.578 -11.827   6.522 +0.01 -0.00    +0.000 HD
DOCKED: BRANCH  13  15
DOCKED: ATOM     15  C   UNL     1      30.831 -13.267   7.860 -0.29 -0.00    +0.000 C 
DOCKED: ATOM     16  C   UNL     1      29.316 -13.208   8.113 -0.43 -0.00    +0.000 C 
DOCKED: ENDBRANCH  13  15
DOCKED: BRANCH  13  17
DOCKED: ATOM     17  C   UNL     1      31.682 -10.916   7.886 -0.09 -0.00    +0.000 C 
DOCKED: ATOM     18  C   UNL     1      30.827  -9.694   7.538 -0.11 -0.00    +0.000 C 
DOCKED: ENDBRANCH  13  17
DOCKED: ENDBRANCH  12  13
DOCKED: ENDBRANCH   7  12
DOCKED: ENDBRANCH   1   2
DOCKED: BRANCH   1  19
DOCKED: ATOM     19  O   UNL     1      28.932 -15.395  -1.090 -0.17 -0.00    +0.000 OA
DOCKED: BRANCH  19  21
DOCKED: ATOM     20  O   UNL     1      27.057 -15.412  -2.440 -0.32 -0.00    +0.000 OA
DOCKED: ATOM     21  C   UNL     1      27.661 -15.870  -1.431 -0.32 -0.00    +0.000 C 
DOCKED: ATOM     22  N   UNL     1      27.072 -16.914  -0.644 -0.44 -0.00    +0.000 N 
DOCKED: ATOM     23  H   UNL     1      27.652 -17.393  -0.009 -0.15 -0.00    +0.000 HD
DOCKED: BRANCH  22  24
DOCKED: ATOM     24  C   UNL     1      25.691 -17.306  -0.721 -0.56 -0.00    +0.000 A 
DOCKED: ATOM     25  C   UNL     1      24.732 -16.370  -1.128 -0.49 -0.00    +0.000 A 
DOCKED: ATOM     26  C   UNL     1      23.386 -16.732  -1.238 -0.25 -0.00    +0.000 A 
DOCKED: ATOM     27  C   UNL     1      22.976 -18.046  -0.955 -0.71 -0.00    +0.000 A 
DOCKED: ATOM     28  C   UNL     1      23.945 -18.993  -0.579 -0.53 -0.00    +0.000 A 
DOCKED: ATOM     29  C   UNL     1      25.290 -18.629  -0.464 -0.51 -0.00    +0.000 A 
DOCKED: BRANCH  27  30
DOCKED: ATOM     30  C   UNL     1      21.553 -18.451  -1.080 -0.76 -0.00    +0.000 C 
DOCKED: ATOM     31  N   UNL     1      21.185 -19.719  -1.633 -0.63 -0.00    +0.000 N 
DOCKED: ATOM     32  O   UNL     1      19.888 -20.105  -1.642 -2.05 -0.00    +0.000 OA
DOCKED: ATOM     33  O   UNL     1      20.647 -17.657  -0.707 -2.20 +0.00    +0.000 OA
DOCKED: ATOM     34  H   UNL     1      21.877 -20.312  -2.007 -0.48 -0.00    +0.000 HD
DOCKED: ENDBRANCH  27  30
DOCKED: ENDBRANCH  22  24
DOCKED: ENDBRANCH  19  21
DOCKED: ENDBRANCH   1  19
DOCKED: TORSDOF 9
DOCKED: TER
DOCKED: ENDMDL
________________________________________________________________________________


	BEGINNING GENETIC ALGORITHM DOCKING 28 of 100
Run: 28 Seed: 404781721 166089750 [ Run 28 of 100 GA/GALS ]
Beginning LAMARCKIAN GENETIC ALGORITHM (LGA), with a maximum of 2500000 energy evaluations.

Final-Value: -16.039


	FINAL GENETIC ALGORITHM DOCKED STATE
	_______________________________________________


Detailed state:  trans 26.969 -14.483 -3.206 quatxyzw -0.146628 -0.265029 -0.793934 -0.527190 center 1.436 0.069 -0.007 ntor 9 -48.5999 -96.9760 161.5400 -25.0234 -151.5114 -178.9961 -40.3995 -17.2983 -165.7795
State:	 26.969 -14.483  -3.206  -0.173 -0.312 -0.934 -116.368    -48.60  -96.98  161.54  -25.02 -151.51 -179.00  -40.40  -17.30 -165.78

DOCKED: MODEL       28
DOCKED: USER    Run = 28
DOCKED: USER    DPF = ligand_dock.biased.dpf
DOCKED: USER  
DOCKED: USER    Estimated Free Energy of Binding    =  -11.94 kcal/mol  [=(1)+(2)+(3)-(4)]
DOCKED: USER    Estimated Inhibition Constant, Ki   =    1.78 nM (nanomolar)  [Temperature = 298.15 K]
DOCKED: USER    
DOCKED: USER    (1) Final Intermolecular Energy     =  -14.62 kcal/mol
DOCKED: USER        vdW + Hbond + desolv Energy     =  -14.62 kcal/mol
DOCKED: USER        Electrostatic Energy            =   +0.00 kcal/mol
DOCKED: USER    (2) Final Total Internal Energy     =   -1.42 kcal/mol
DOCKED: USER    (3) Torsional Free Energy           =   +2.68 kcal/mol
DOCKED: USER    (4) Unbound System's Energy  [=(2)] =   -1.42 kcal/mol
DOCKED: USER    
DOCKED: USER    
DOCKED: USER    NEWDPF move ligand.pdbqt
DOCKED: USER    NEWDPF about 1.436000 0.069000 -0.007000
DOCKED: USER    NEWDPF tran0 26.968868 -14.482931 -3.206275
DOCKED: USER    NEWDPF quaternion0 -0.146628 -0.265029 -0.793934 -0.527190
DOCKED: USER    NEWDPF axisangle0 -0.172555 -0.311891 -0.934317 -116.368478
DOCKED: USER    NEWDPF quat0 -0.172555 -0.311891 -0.934317 -116.368478
DOCKED: USER    NEWDPF dihe0 -48.60 -96.98 161.54 -25.02 -151.51 -179.00 -40.40 -17.30 -165.78 
DOCKED: USER  keepresnum = 1 
DOCKED: USER  
DOCKED: REMARK  Name = 
DOCKED: REMARK  11 active torsions:
DOCKED: REMARK  status: ('A' for Active; 'I' for Inactive)
DOCKED: REMARK    1  A    between atoms: C_2  and  O_3
DOCKED: REMARK    2  A    between atoms: O_3  and  C_4
DOCKED: REMARK    3  A    between atoms: C_4  and  C_5
DOCKED: REMARK    4  A    between atoms: C_10  and  C_11
DOCKED: REMARK    5  A    between atoms: C_11  and  N_12
DOCKED: REMARK    6  A    between atoms: N_12  and  C_13
DOCKED: REMARK    7  A    between atoms: N_12  and  C_15
DOCKED: REMARK    8  A    between atoms: C_13  and  C_14
DOCKED: REMARK    9  A    between atoms: C_15  and  C_16
DOCKED: REMARK   10  A    between atoms: N_21  and  C_22
DOCKED: REMARK   11  A    between atoms: C_25  and  C_26
DOCKED: REMARK                            x       y       z     vdW  Elec       q    Type
DOCKED: REMARK                         _______ _______ _______ _____ _____    ______ ____
DOCKED: USER                              x       y       z     vdW  Elec       q    Type
DOCKED: USER                           _______ _______ _______ _____ _____    ______ ____
DOCKED: ROOT
DOCKED: ATOM      1  C   UNL     1      30.388 -15.777  -1.762 -0.11 -0.00    +0.000 C 
DOCKED: ENDROOT
DOCKED: BRANCH   1   2
DOCKED: ATOM      2  C   UNL     1      29.969 -14.825  -2.849 -0.07 -0.00    +0.000 A 
DOCKED: ATOM      3  C   UNL     1      29.942 -13.441  -2.614 -0.03 -0.00    +0.000 A 
DOCKED: ATOM      4  C   UNL     1      29.573 -12.556  -3.631 -0.04 -0.00    +0.000 A 
DOCKED: ATOM      5  C   UNL     1      29.228 -13.045  -4.900 -0.10 -0.00    +0.000 A 
DOCKED: ATOM      6  C   UNL     1      28.862 -12.164  -5.929 -0.11 -0.00    +0.000 A 
DOCKED: ATOM      7  C   UNL     1      28.523 -12.657  -7.198 -0.22 -0.00    +0.000 A 
DOCKED: ATOM      8  C   UNL     1      28.544 -14.041  -7.432 -0.12 -0.00    +0.000 A 
DOCKED: ATOM      9  C   UNL     1      28.908 -14.925  -6.413 -0.33 -0.00    +0.000 A 
DOCKED: ATOM     10  C   UNL     1      29.252 -14.438  -5.145 -0.19 -0.00    +0.000 A 
DOCKED: ATOM     11  C   UNL     1      29.622 -15.318  -4.117 -0.16 -0.00    +0.000 A 
DOCKED: BRANCH   7  12
DOCKED: ATOM     12  C   UNL     1      28.115 -11.703  -8.291 -0.23 -0.00    +0.000 C 
DOCKED: BRANCH  12  13
DOCKED: ATOM     13  N   UNL     1      28.673 -12.122  -9.596 -0.25 -0.00    +0.000 N 
DOCKED: ATOM     14  H   UNL     1      28.871 -13.110  -9.442 -0.57 -0.00    +0.000 HD
DOCKED: BRANCH  13  15
DOCKED: ATOM     15  C   UNL     1      27.706 -12.141 -10.719 -0.42 -0.00    +0.000 C 
DOCKED: ATOM     16  C   UNL     1      26.246 -11.878 -10.314 -0.45 -0.00    +0.000 C 
DOCKED: ENDBRANCH  13  15
DOCKED: BRANCH  13  17
DOCKED: ATOM     17  C   UNL     1      30.006 -11.565  -9.927 -0.17 -0.00    +0.000 C 
DOCKED: ATOM     18  C   UNL     1      30.457 -11.823 -11.367 -0.18 -0.00    +0.000 C 
DOCKED: ENDBRANCH  13  17
DOCKED: ENDBRANCH  12  13
DOCKED: ENDBRANCH   7  12
DOCKED: ENDBRANCH   1   2
DOCKED: BRANCH   1  19
DOCKED: ATOM     19  O   UNL     1      29.320 -15.980  -0.838 -0.21 -0.00    +0.000 OA
DOCKED: BRANCH  19  21
DOCKED: ATOM     20  O   UNL     1      27.523 -15.876  -2.286 -0.32 -0.00    +0.000 OA
DOCKED: ATOM     21  C   UNL     1      28.025 -16.342  -1.226 -0.34 -0.00    +0.000 C 
DOCKED: ATOM     22  N   UNL     1      27.294 -17.280  -0.426 -0.46 -0.00    +0.000 N 
DOCKED: ATOM     23  H   UNL     1      27.790 -17.783   0.260 -0.40 -0.00    +0.000 HD
DOCKED: BRANCH  22  24
DOCKED: ATOM     24  C   UNL     1      25.886 -17.535  -0.560 -0.56 -0.00    +0.000 A 
DOCKED: ATOM     25  C   UNL     1      25.041 -16.509  -1.005 -0.51 -0.00    +0.000 A 
DOCKED: ATOM     26  C   UNL     1      23.671 -16.738  -1.171 -0.44 -0.00    +0.000 A 
DOCKED: ATOM     27  C   UNL     1      23.122 -18.005  -0.907 -0.71 -0.00    +0.000 A 
DOCKED: ATOM     28  C   UNL     1      23.977 -19.042  -0.494 -0.37 -0.00    +0.000 A 
DOCKED: ATOM     29  C   UNL     1      25.346 -18.812  -0.323 -0.25 -0.00    +0.000 A 
DOCKED: BRANCH  27  30
DOCKED: ATOM     30  C   UNL     1      21.673 -18.268  -1.091 -0.70 -0.00    +0.000 C 
DOCKED: ATOM     31  N   UNL     1      21.207 -19.473  -1.708 -0.67 -0.00    +0.000 N 
DOCKED: ATOM     32  O   UNL     1      19.881 -19.734  -1.772 -2.38 -0.00    +0.000 OA
DOCKED: ATOM     33  O   UNL     1      20.833 -17.407  -0.712 -1.99 +0.00    +0.000 OA
DOCKED: ATOM     34  H   UNL     1      21.853 -20.114  -2.086 -0.55 -0.00    +0.000 HD
DOCKED: ENDBRANCH  27  30
DOCKED: ENDBRANCH  22  24
DOCKED: ENDBRANCH  19  21
DOCKED: ENDBRANCH   1  19
DOCKED: TORSDOF 9
DOCKED: TER
DOCKED: ENDMDL
________________________________________________________________________________


	BEGINNING GENETIC ALGORITHM DOCKING 29 of 100
Run: 29 Seed: 1572739175 510880270 [ Run 29 of 100 GA/GALS ]
Beginning LAMARCKIAN GENETIC ALGORITHM (LGA), with a maximum of 2500000 energy evaluations.

Final-Value: -16.037


	FINAL GENETIC ALGORITHM DOCKED STATE
	_______________________________________________


Detailed state:  trans 27.907 -15.338 1.813 quatxyzw 0.093901 -0.588559 0.610643 0.521436 center 1.436 0.069 -0.007 ntor 9 75.5835 -159.9886 -53.4604 164.7666 12.4663 -5.0511 76.6204 24.4252 -144.5757
State:	 27.907 -15.338   1.813   0.110 -0.690  0.716 117.143     75.58 -159.99  -53.46  164.77   12.47   -5.05   76.62   24.43 -144.58

DOCKED: MODEL       29
DOCKED: USER    Run = 29
DOCKED: USER    DPF = ligand_dock.biased.dpf
DOCKED: USER  
DOCKED: USER    Estimated Free Energy of Binding    =  -11.54 kcal/mol  [=(1)+(2)+(3)-(4)]
DOCKED: USER    Estimated Inhibition Constant, Ki   =    3.45 nM (nanomolar)  [Temperature = 298.15 K]
DOCKED: USER    
DOCKED: USER    (1) Final Intermolecular Energy     =  -14.23 kcal/mol
DOCKED: USER        vdW + Hbond + desolv Energy     =  -14.23 kcal/mol
DOCKED: USER        Electrostatic Energy            =   +0.00 kcal/mol
DOCKED: USER    (2) Final Total Internal Energy     =   -1.81 kcal/mol
DOCKED: USER    (3) Torsional Free Energy           =   +2.68 kcal/mol
DOCKED: USER    (4) Unbound System's Energy  [=(2)] =   -1.81 kcal/mol
DOCKED: USER    
DOCKED: USER    
DOCKED: USER    NEWDPF move ligand.pdbqt
DOCKED: USER    NEWDPF about 1.436000 0.069000 -0.007000
DOCKED: USER    NEWDPF tran0 27.907432 -15.337526 1.813097
DOCKED: USER    NEWDPF quaternion0 0.093901 -0.588559 0.610643 0.521436
DOCKED: USER    NEWDPF axisangle0 0.110046 -0.689752 0.715633 117.142697
DOCKED: USER    NEWDPF quat0 0.110046 -0.689752 0.715633 117.142697
DOCKED: USER    NEWDPF dihe0 75.58 -159.99 -53.46 164.77 12.47 -5.05 76.62 24.43 -144.58 
DOCKED: USER  keepresnum = 1 
DOCKED: USER  
DOCKED: REMARK  Name = 
DOCKED: REMARK  11 active torsions:
DOCKED: REMARK  status: ('A' for Active; 'I' for Inactive)
DOCKED: REMARK    1  A    between atoms: C_2  and  O_3
DOCKED: REMARK    2  A    between atoms: O_3  and  C_4
DOCKED: REMARK    3  A    between atoms: C_4  and  C_5
DOCKED: REMARK    4  A    between atoms: C_10  and  C_11
DOCKED: REMARK    5  A    between atoms: C_11  and  N_12
DOCKED: REMARK    6  A    between atoms: N_12  and  C_13
DOCKED: REMARK    7  A    between atoms: N_12  and  C_15
DOCKED: REMARK    8  A    between atoms: C_13  and  C_14
DOCKED: REMARK    9  A    between atoms: C_15  and  C_16
DOCKED: REMARK   10  A    between atoms: N_21  and  C_22
DOCKED: REMARK   11  A    between atoms: C_25  and  C_26
DOCKED: REMARK                            x       y       z     vdW  Elec       q    Type
DOCKED: REMARK                         _______ _______ _______ _____ _____    ______ ____
DOCKED: USER                              x       y       z     vdW  Elec       q    Type
DOCKED: USER                           _______ _______ _______ _____ _____    ______ ____
DOCKED: ROOT
DOCKED: ATOM      1  C   UNL     1      30.009 -14.847  -1.472 -0.08 -0.00    +0.000 C 
DOCKED: ENDROOT
DOCKED: BRANCH   1   2
DOCKED: ATOM      2  C   UNL     1      29.757 -14.045  -0.224 -0.07 -0.00    +0.000 A 
DOCKED: ATOM      3  C   UNL     1      30.819 -13.694   0.625 -0.05 -0.00    +0.000 A 
DOCKED: ATOM      4  C   UNL     1      30.586 -12.931   1.773 -0.05 -0.00    +0.000 A 
DOCKED: ATOM      5  C   UNL     1      29.287 -12.505   2.085 -0.09 -0.00    +0.000 A 
DOCKED: ATOM      6  C   UNL     1      29.045 -11.734   3.232 -0.12 -0.00    +0.000 A 
DOCKED: ATOM      7  C   UNL     1      27.744 -11.305   3.537 -0.26 +0.00    +0.000 A 
DOCKED: ATOM      8  C   UNL     1      26.682 -11.660   2.691 -0.18 +0.00    +0.000 A 
DOCKED: ATOM      9  C   UNL     1      26.913 -12.428   1.547 -0.28 -0.00    +0.000 A 
DOCKED: ATOM     10  C   UNL     1      28.212 -12.854   1.235 -0.15 -0.00    +0.000 A 
DOCKED: ATOM     11  C   UNL     1      28.455 -13.623   0.086 -0.13 -0.00    +0.000 A 
DOCKED: BRANCH   7  12
DOCKED: ATOM     12  C   UNL     1      27.492 -10.491   4.780 -0.31 +0.00    +0.000 C 
DOCKED: BRANCH  12  13
DOCKED: ATOM     13  N   UNL     1      27.995 -11.191   5.983 -0.39 +0.00    +0.000 N 
DOCKED: ATOM     14  H   UNL     1      27.354 -10.869   6.708 -0.02 +0.00    +0.000 HD
DOCKED: BRANCH  13  15
DOCKED: ATOM     15  C   UNL     1      27.801 -12.660   5.987 -0.39 +0.00    +0.000 C 
DOCKED: ATOM     16  C   UNL     1      29.102 -13.479   6.020 -0.42 -0.00    +0.000 C 
DOCKED: ENDBRANCH  13  15
DOCKED: BRANCH  13  17
DOCKED: ATOM     17  C   UNL     1      29.314 -10.733   6.482 -0.26 +0.00    +0.000 C 
DOCKED: ATOM     18  C   UNL     1      29.328 -10.341   7.962 -0.30 +0.00    +0.000 C 
DOCKED: ENDBRANCH  13  17
DOCKED: ENDBRANCH  12  13
DOCKED: ENDBRANCH   7  12
DOCKED: ENDBRANCH   1   2
DOCKED: BRANCH   1  19
DOCKED: ATOM     19  O   UNL     1      29.695 -16.221  -1.253 -0.18 -0.00    +0.000 OA
DOCKED: BRANCH  19  21
DOCKED: ATOM     20  O   UNL     1      28.154 -17.105  -2.730 -0.24 -0.00    +0.000 OA
DOCKED: ATOM     21  C   UNL     1      28.446 -16.781  -1.546 -0.33 -0.00    +0.000 C 
DOCKED: ATOM     22  N   UNL     1      27.521 -17.019  -0.478 -0.41 -0.00    +0.000 N 
DOCKED: ATOM     23  H   UNL     1      27.859 -16.960   0.445 -0.26 -0.00    +0.000 HD
DOCKED: BRANCH  22  24
DOCKED: ATOM     24  C   UNL     1      26.132 -17.338  -0.665 -0.54 -0.00    +0.000 A 
DOCKED: ATOM     25  C   UNL     1      25.508 -18.235   0.211 -0.51 -0.00    +0.000 A 
DOCKED: ATOM     26  C   UNL     1      24.150 -18.541   0.068 -0.44 -0.00    +0.000 A 
DOCKED: ATOM     27  C   UNL     1      23.388 -17.943  -0.950 -0.71 -0.00    +0.000 A 
DOCKED: ATOM     28  C   UNL     1      24.008 -17.018  -1.807 -0.39 -0.00    +0.000 A 
DOCKED: ATOM     29  C   UNL     1      25.366 -16.715  -1.667 -0.54 -0.00    +0.000 A 
DOCKED: BRANCH  27  30
DOCKED: ATOM     30  C   UNL     1      21.943 -18.247  -1.107 -0.70 -0.00    +0.000 C 
DOCKED: ATOM     31  N   UNL     1      21.499 -19.463  -1.717 -0.59 -0.00    +0.000 N 
DOCKED: ATOM     32  O   UNL     1      20.180 -19.761  -1.756 -2.34 -0.00    +0.000 OA
DOCKED: ATOM     33  O   UNL     1      21.086 -17.411  -0.708 -1.95 -0.00    +0.000 OA
DOCKED: ATOM     34  H   UNL     1      22.155 -20.085  -2.109 -0.54 -0.00    +0.000 HD
DOCKED: ENDBRANCH  27  30
DOCKED: ENDBRANCH  22  24
DOCKED: ENDBRANCH  19  21
DOCKED: ENDBRANCH   1  19
DOCKED: TORSDOF 9
DOCKED: TER
DOCKED: ENDMDL
________________________________________________________________________________


	BEGINNING GENETIC ALGORITHM DOCKING 30 of 100
Run: 30 Seed: 1148278036 665422166 [ Run 30 of 100 GA/GALS ]
Beginning LAMARCKIAN GENETIC ALGORITHM (LGA), with a maximum of 2500000 energy evaluations.

Final-Value: -15.176


	FINAL GENETIC ALGORITHM DOCKED STATE
	_______________________________________________


Detailed state:  trans 27.138 -13.496 -4.700 quatxyzw 0.008950 0.405806 0.879598 0.248091 center 1.436 0.069 -0.007 ntor 9 -115.4243 169.5478 97.6176 -6.4974 174.0375 -31.6681 -92.2666 42.7700 -107.4566
State:	 27.138 -13.496  -4.700   0.009  0.419  0.908 151.271   -115.42  169.55   97.62   -6.50  174.04  -31.67  -92.27   42.77 -107.46

DOCKED: MODEL       30
DOCKED: USER    Run = 30
DOCKED: USER    DPF = ligand_dock.biased.dpf
DOCKED: USER  
DOCKED: USER    Estimated Free Energy of Binding    =  -10.91 kcal/mol  [=(1)+(2)+(3)-(4)]
DOCKED: USER    Estimated Inhibition Constant, Ki   =   10.12 nM (nanomolar)  [Temperature = 298.15 K]
DOCKED: USER    
DOCKED: USER    (1) Final Intermolecular Energy     =  -13.59 kcal/mol
DOCKED: USER        vdW + Hbond + desolv Energy     =  -13.59 kcal/mol
DOCKED: USER        Electrostatic Energy            =   +0.00 kcal/mol
DOCKED: USER    (2) Final Total Internal Energy     =   -1.58 kcal/mol
DOCKED: USER    (3) Torsional Free Energy           =   +2.68 kcal/mol
DOCKED: USER    (4) Unbound System's Energy  [=(2)] =   -1.58 kcal/mol
DOCKED: USER    
DOCKED: USER    
DOCKED: USER    NEWDPF move ligand.pdbqt
DOCKED: USER    NEWDPF about 1.436000 0.069000 -0.007000
DOCKED: USER    NEWDPF tran0 27.137906 -13.495749 -4.700340
DOCKED: USER    NEWDPF quaternion0 0.008950 0.405806 0.879598 0.248091
DOCKED: USER    NEWDPF axisangle0 0.009238 0.418902 0.907984 151.270864
DOCKED: USER    NEWDPF quat0 0.009238 0.418902 0.907984 151.270864
DOCKED: USER    NEWDPF dihe0 -115.42 169.55 97.62 -6.50 174.04 -31.67 -92.27 42.77 -107.46 
DOCKED: USER  keepresnum = 1 
DOCKED: USER  
DOCKED: REMARK  Name = 
DOCKED: REMARK  11 active torsions:
DOCKED: REMARK  status: ('A' for Active; 'I' for Inactive)
DOCKED: REMARK    1  A    between atoms: C_2  and  O_3
DOCKED: REMARK    2  A    between atoms: O_3  and  C_4
DOCKED: REMARK    3  A    between atoms: C_4  and  C_5
DOCKED: REMARK    4  A    between atoms: C_10  and  C_11
DOCKED: REMARK    5  A    between atoms: C_11  and  N_12
DOCKED: REMARK    6  A    between atoms: N_12  and  C_13
DOCKED: REMARK    7  A    between atoms: N_12  and  C_15
DOCKED: REMARK    8  A    between atoms: C_13  and  C_14
DOCKED: REMARK    9  A    between atoms: C_15  and  C_16
DOCKED: REMARK   10  A    between atoms: N_21  and  C_22
DOCKED: REMARK   11  A    between atoms: C_25  and  C_26
DOCKED: REMARK                            x       y       z     vdW  Elec       q    Type
DOCKED: REMARK                         _______ _______ _______ _____ _____    ______ ____
DOCKED: USER                              x       y       z     vdW  Elec       q    Type
DOCKED: USER                           _______ _______ _______ _____ _____    ______ ____
DOCKED: ROOT
DOCKED: ATOM      1  C   UNL     1      28.512 -15.587  -1.669 -0.23 -0.00    +0.000 C 
DOCKED: ENDROOT
DOCKED: BRANCH   1   2
DOCKED: ATOM      2  C   UNL     1      29.119 -14.813  -2.808 -0.12 -0.00    +0.000 A 
DOCKED: ATOM      3  C   UNL     1      30.425 -14.306  -2.709 -0.04 -0.00    +0.000 A 
DOCKED: ATOM      4  C   UNL     1      30.995 -13.606  -3.776 -0.02 -0.00    +0.000 A 
DOCKED: ATOM      5  C   UNL     1      30.267 -13.406  -4.958 -0.06 -0.00    +0.000 A 
DOCKED: ATOM      6  C   UNL     1      30.834 -12.708  -6.036 -0.05 -0.00    +0.000 A 
DOCKED: ATOM      7  C   UNL     1      30.103 -12.515  -7.218 -0.13 -0.00    +0.000 A 
DOCKED: ATOM      8  C   UNL     1      28.796 -13.017  -7.315 -0.25 -0.00    +0.000 A 
DOCKED: ATOM      9  C   UNL     1      28.224 -13.712  -6.246 -0.26 -0.00    +0.000 A 
DOCKED: ATOM     10  C   UNL     1      28.951 -13.913  -5.065 -0.18 -0.00    +0.000 A 
DOCKED: ATOM     11  C   UNL     1      28.386 -14.612  -3.988 -0.20 -0.00    +0.000 A 
DOCKED: BRANCH   7  12
DOCKED: ATOM     12  C   UNL     1      30.715 -11.750  -8.364 -0.11 -0.00    +0.000 C 
DOCKED: BRANCH  12  13
DOCKED: ATOM     13  N   UNL     1      31.099 -12.661  -9.465 -0.13 -0.00    +0.000 N 
DOCKED: ATOM     14  H   UNL     1      30.325 -13.326  -9.478 -0.53 -0.00    +0.000 HD
DOCKED: BRANCH  13  15
DOCKED: ATOM     15  C   UNL     1      31.057 -12.065 -10.821 -0.16 -0.00    +0.000 C 
DOCKED: ATOM     16  C   UNL     1      29.643 -11.845 -11.382 -0.22 -0.00    +0.000 C 
DOCKED: ENDBRANCH  13  15
DOCKED: BRANCH  13  17
DOCKED: ATOM     17  C   UNL     1      32.273 -13.526  -9.197 -0.15 -0.00    +0.000 C 
DOCKED: ATOM     18  C   UNL     1      31.921 -14.931  -8.702 -0.14 -0.00    +0.000 C 
DOCKED: ENDBRANCH  13  17
DOCKED: ENDBRANCH  12  13
DOCKED: ENDBRANCH   7  12
DOCKED: ENDBRANCH   1   2
DOCKED: BRANCH   1  19
DOCKED: ATOM     19  O   UNL     1      27.161 -15.180  -1.453 -0.28 -0.00    +0.000 OA
DOCKED: BRANCH  19  21
DOCKED: ATOM     20  O   UNL     1      25.525 -16.013  -2.855 -0.57 -0.00    +0.000 OA
DOCKED: ATOM     21  C   UNL     1      26.060 -16.002  -1.711 -0.50 -0.00    +0.000 C 
DOCKED: ATOM     22  N   UNL     1      25.574 -16.863  -0.673 -0.51 -0.00    +0.000 N 
DOCKED: ATOM     23  H   UNL     1      26.141 -16.990   0.121 -0.03 -0.00    +0.000 HD
DOCKED: BRANCH  22  24
DOCKED: ATOM     24  C   UNL     1      24.313 -17.553  -0.717 -0.65 -0.00    +0.000 A 
DOCKED: ATOM     25  C   UNL     1      24.295 -18.954  -0.707 -0.53 -0.00    +0.000 A 
DOCKED: ATOM     26  C   UNL     1      23.082 -19.650  -0.720 -0.36 -0.00    +0.000 A 
DOCKED: ATOM     27  C   UNL     1      21.861 -18.954  -0.731 -0.76 -0.00    +0.000 A 
DOCKED: ATOM     28  C   UNL     1      21.881 -17.549  -0.707 -0.65 -0.00    +0.000 A 
DOCKED: ATOM     29  C   UNL     1      23.093 -16.853  -0.698 -0.46 -0.00    +0.000 A 
DOCKED: BRANCH  27  30
DOCKED: ATOM     30  C   UNL     1      20.565 -19.677  -0.732 -0.86 -0.00    +0.000 C 
DOCKED: ATOM     31  N   UNL     1      20.080 -20.340   0.441 -0.71 -0.00    +0.000 N 
DOCKED: ATOM     32  O   UNL     1      18.851 -20.904   0.443 -0.88 -0.00    +0.000 OA
DOCKED: ATOM     33  O   UNL     1      19.880 -19.724  -1.791 -2.38 -0.00    +0.000 OA
DOCKED: ATOM     34  H   UNL     1      20.643 -20.384   1.248 -0.47 -0.00    +0.000 HD
DOCKED: ENDBRANCH  27  30
DOCKED: ENDBRANCH  22  24
DOCKED: ENDBRANCH  19  21
DOCKED: ENDBRANCH   1  19
DOCKED: TORSDOF 9
DOCKED: TER
DOCKED: ENDMDL
________________________________________________________________________________


	BEGINNING GENETIC ALGORITHM DOCKING 31 of 100
Run: 31 Seed: 807994513 1452096513 [ Run 31 of 100 GA/GALS ]
Beginning LAMARCKIAN GENETIC ALGORITHM (LGA), with a maximum of 2500000 energy evaluations.

Final-Value: -15.036


	FINAL GENETIC ALGORITHM DOCKED STATE
	_______________________________________________


Detailed state:  trans 27.117 -14.806 -4.296 quatxyzw 0.210292 0.382456 0.749635 0.497546 center 1.436 0.069 -0.007 ntor 9 180.0000 69.1598 -62.6978 -63.9173 155.4651 -33.1313 -6.8360 1.7426 5.2865
State:	 27.117 -14.806  -4.296   0.242  0.441  0.864 120.324    180.00   69.16  -62.70  -63.92  155.47  -33.13   -6.84    1.74    5.29

DOCKED: MODEL       31
DOCKED: USER    Run = 31
DOCKED: USER    DPF = ligand_dock.biased.dpf
DOCKED: USER  
DOCKED: USER    Estimated Free Energy of Binding    =  -10.71 kcal/mol  [=(1)+(2)+(3)-(4)]
DOCKED: USER    Estimated Inhibition Constant, Ki   =   14.19 nM (nanomolar)  [Temperature = 298.15 K]
DOCKED: USER    
DOCKED: USER    (1) Final Intermolecular Energy     =  -13.39 kcal/mol
DOCKED: USER        vdW + Hbond + desolv Energy     =  -13.39 kcal/mol
DOCKED: USER        Electrostatic Energy            =   +0.00 kcal/mol
DOCKED: USER    (2) Final Total Internal Energy     =   -1.64 kcal/mol
DOCKED: USER    (3) Torsional Free Energy           =   +2.68 kcal/mol
DOCKED: USER    (4) Unbound System's Energy  [=(2)] =   -1.64 kcal/mol
DOCKED: USER    
DOCKED: USER    
DOCKED: USER    NEWDPF move ligand.pdbqt
DOCKED: USER    NEWDPF about 1.436000 0.069000 -0.007000
DOCKED: USER    NEWDPF tran0 27.117414 -14.805844 -4.296005
DOCKED: USER    NEWDPF quaternion0 0.210292 0.382456 0.749635 0.497546
DOCKED: USER    NEWDPF axisangle0 0.242429 0.440903 0.864195 120.324390
DOCKED: USER    NEWDPF quat0 0.242429 0.440903 0.864195 120.324390
DOCKED: USER    NEWDPF dihe0 180.00 69.16 -62.70 -63.92 155.47 -33.13 -6.84 1.74 5.29 
DOCKED: USER  keepresnum = 1 
DOCKED: USER  
DOCKED: REMARK  Name = 
DOCKED: REMARK  11 active torsions:
DOCKED: REMARK  status: ('A' for Active; 'I' for Inactive)
DOCKED: REMARK    1  A    between atoms: C_2  and  O_3
DOCKED: REMARK    2  A    between atoms: O_3  and  C_4
DOCKED: REMARK    3  A    between atoms: C_4  and  C_5
DOCKED: REMARK    4  A    between atoms: C_10  and  C_11
DOCKED: REMARK    5  A    between atoms: C_11  and  N_12
DOCKED: REMARK    6  A    between atoms: N_12  and  C_13
DOCKED: REMARK    7  A    between atoms: N_12  and  C_15
DOCKED: REMARK    8  A    between atoms: C_13  and  C_14
DOCKED: REMARK    9  A    between atoms: C_15  and  C_16
DOCKED: REMARK   10  A    between atoms: N_21  and  C_22
DOCKED: REMARK   11  A    between atoms: C_25  and  C_26
DOCKED: REMARK                            x       y       z     vdW  Elec       q    Type
DOCKED: REMARK                         _______ _______ _______ _____ _____    ______ ____
DOCKED: USER                              x       y       z     vdW  Elec       q    Type
DOCKED: USER                           _______ _______ _______ _____ _____    ______ ____
DOCKED: ROOT
DOCKED: ATOM      1  C   UNL     1      30.494 -15.625  -2.460 -0.09 -0.00    +0.000 C 
DOCKED: ENDROOT
DOCKED: BRANCH   1   2
DOCKED: ATOM      2  C   UNL     1      30.106 -15.021  -3.782 -0.10 -0.00    +0.000 A 
DOCKED: ATOM      3  C   UNL     1      29.948 -15.831  -4.917 -0.22 -0.00    +0.000 A 
DOCKED: ATOM      4  C   UNL     1      29.566 -15.270  -6.139 -0.31 -0.00    +0.000 A 
DOCKED: ATOM      5  C   UNL     1      29.335 -13.891  -6.241 -0.23 -0.00    +0.000 A 
DOCKED: ATOM      6  C   UNL     1      28.946 -13.321  -7.463 -0.27 -0.00    +0.000 A 
DOCKED: ATOM      7  C   UNL     1      28.710 -11.941  -7.559 -0.17 -0.00    +0.000 A 
DOCKED: ATOM      8  C   UNL     1      28.874 -11.130  -6.425 -0.08 -0.00    +0.000 A 
DOCKED: ATOM      9  C   UNL     1      29.261 -11.689  -5.204 -0.06 -0.00    +0.000 A 
DOCKED: ATOM     10  C   UNL     1      29.492 -13.068  -5.102 -0.09 -0.00    +0.000 A 
DOCKED: ATOM     11  C   UNL     1      29.878 -13.639  -3.880 -0.06 -0.00    +0.000 A 
DOCKED: BRANCH   7  12
DOCKED: ATOM     12  C   UNL     1      28.309 -11.336  -8.880 -0.21 -0.00    +0.000 C 
DOCKED: BRANCH  12  13
DOCKED: ATOM     13  N   UNL     1      26.842 -11.376  -9.058 -0.26 -0.00    +0.000 N 
DOCKED: ATOM     14  H   UNL     1      26.557 -12.076  -8.373 +0.00 -0.00    +0.000 HD
DOCKED: BRANCH  13  15
DOCKED: ATOM     15  C   UNL     1      26.118 -10.159  -8.618 -0.23 -0.00    +0.000 C 
DOCKED: ATOM     16  C   UNL     1      24.810 -10.431  -7.857 -0.35 -0.00    +0.000 C 
DOCKED: ENDBRANCH  13  15
DOCKED: BRANCH  13  17
DOCKED: ATOM     17  C   UNL     1      26.370 -11.955 -10.338 -0.44 -0.00    +0.000 C 
DOCKED: ATOM     18  C   UNL     1      27.490 -12.325 -11.314 -0.43 +0.00    +0.000 C 
DOCKED: ENDBRANCH  13  17
DOCKED: ENDBRANCH  12  13
DOCKED: ENDBRANCH   7  12
DOCKED: ENDBRANCH   1   2
DOCKED: BRANCH   1  19
DOCKED: ATOM     19  O   UNL     1      29.403 -15.563  -1.542 -0.14 -0.00    +0.000 OA
DOCKED: BRANCH  19  21
DOCKED: ATOM     20  O   UNL     1      28.100 -17.110  -2.659 -0.26 -0.00    +0.000 OA
DOCKED: ATOM     21  C   UNL     1      28.248 -16.342  -1.667 -0.31 -0.00    +0.000 C 
DOCKED: ATOM     22  N   UNL     1      27.256 -16.290  -0.634 -0.37 -0.00    +0.000 N 
DOCKED: ATOM     23  H   UNL     1      27.501 -15.858   0.216 -0.05 -0.00    +0.000 HD
DOCKED: BRANCH  22  24
DOCKED: ATOM     24  C   UNL     1      25.929 -16.828  -0.758 -0.50 -0.00    +0.000 A 
DOCKED: ATOM     25  C   UNL     1      25.535 -17.886   0.072 -0.52 -0.00    +0.000 A 
DOCKED: ATOM     26  C   UNL     1      24.240 -18.409  -0.009 -0.54 -0.00    +0.000 A 
DOCKED: ATOM     27  C   UNL     1      23.309 -17.872  -0.914 -0.70 -0.00    +0.000 A 
DOCKED: ATOM     28  C   UNL     1      23.695 -16.788  -1.721 +0.01 -0.00    +0.000 A 
DOCKED: ATOM     29  C   UNL     1      24.991 -16.268  -1.644 -0.50 -0.00    +0.000 A 
DOCKED: BRANCH  27  30
DOCKED: ATOM     30  C   UNL     1      21.927 -18.406  -1.002 -0.79 -0.00    +0.000 C 
DOCKED: ATOM     31  N   UNL     1      21.609 -19.515  -1.849 -0.43 -0.00    +0.000 N 
DOCKED: ATOM     32  O   UNL     1      20.365 -20.047  -1.834 -2.23 -0.00    +0.000 OA
DOCKED: ATOM     33  O   UNL     1      21.008 -17.865  -0.329 -1.93 +0.00    +0.000 OA
DOCKED: ATOM     34  H   UNL     1      22.297 -19.893  -2.445 -0.55 -0.00    +0.000 HD
DOCKED: ENDBRANCH  27  30
DOCKED: ENDBRANCH  22  24
DOCKED: ENDBRANCH  19  21
DOCKED: ENDBRANCH   1  19
DOCKED: TORSDOF 9
DOCKED: TER
DOCKED: ENDMDL
________________________________________________________________________________


	BEGINNING GENETIC ALGORITHM DOCKING 32 of 100
Run: 32 Seed: 1292732454 1898214230 [ Run 32 of 100 GA/GALS ]
Beginning LAMARCKIAN GENETIC ALGORITHM (LGA), with a maximum of 2500000 energy evaluations.

Final-Value: -15.875


	FINAL GENETIC ALGORITHM DOCKED STATE
	_______________________________________________


Detailed state:  trans 26.139 -14.447 -1.942 quatxyzw 0.070892 -0.025717 0.739472 0.668950 center 1.436 0.069 -0.007 ntor 9 83.5845 146.1761 161.5925 -177.0403 179.6596 153.9687 23.9002 -15.9526 -137.4665
State:	 26.139 -14.447  -1.942   0.095 -0.035  0.995 96.028     83.58  146.18  161.59 -177.04  179.66  153.97   23.90  -15.95 -137.47

DOCKED: MODEL       32
DOCKED: USER    Run = 32
DOCKED: USER    DPF = ligand_dock.biased.dpf
DOCKED: USER  
DOCKED: USER    Estimated Free Energy of Binding    =  -11.55 kcal/mol  [=(1)+(2)+(3)-(4)]
DOCKED: USER    Estimated Inhibition Constant, Ki   =    3.43 nM (nanomolar)  [Temperature = 298.15 K]
DOCKED: USER    
DOCKED: USER    (1) Final Intermolecular Energy     =  -14.23 kcal/mol
DOCKED: USER        vdW + Hbond + desolv Energy     =  -14.23 kcal/mol
DOCKED: USER        Electrostatic Energy            =   +0.00 kcal/mol
DOCKED: USER    (2) Final Total Internal Energy     =   -1.64 kcal/mol
DOCKED: USER    (3) Torsional Free Energy           =   +2.68 kcal/mol
DOCKED: USER    (4) Unbound System's Energy  [=(2)] =   -1.64 kcal/mol
DOCKED: USER    
DOCKED: USER    
DOCKED: USER    NEWDPF move ligand.pdbqt
DOCKED: USER    NEWDPF about 1.436000 0.069000 -0.007000
DOCKED: USER    NEWDPF tran0 26.138816 -14.446576 -1.941858
DOCKED: USER    NEWDPF quaternion0 0.070892 -0.025717 0.739472 0.668950
DOCKED: USER    NEWDPF axisangle0 0.095374 -0.034598 0.994840 96.027885
DOCKED: USER    NEWDPF quat0 0.095374 -0.034598 0.994840 96.027885
DOCKED: USER    NEWDPF dihe0 83.58 146.18 161.59 -177.04 179.66 153.97 23.90 -15.95 -137.47 
DOCKED: USER  keepresnum = 1 
DOCKED: USER  
DOCKED: REMARK  Name = 
DOCKED: REMARK  11 active torsions:
DOCKED: REMARK  status: ('A' for Active; 'I' for Inactive)
DOCKED: REMARK    1  A    between atoms: C_2  and  O_3
DOCKED: REMARK    2  A    between atoms: O_3  and  C_4
DOCKED: REMARK    3  A    between atoms: C_4  and  C_5
DOCKED: REMARK    4  A    between atoms: C_10  and  C_11
DOCKED: REMARK    5  A    between atoms: C_11  and  N_12
DOCKED: REMARK    6  A    between atoms: N_12  and  C_13
DOCKED: REMARK    7  A    between atoms: N_12  and  C_15
DOCKED: REMARK    8  A    between atoms: C_13  and  C_14
DOCKED: REMARK    9  A    between atoms: C_15  and  C_16
DOCKED: REMARK   10  A    between atoms: N_21  and  C_22
DOCKED: REMARK   11  A    between atoms: C_25  and  C_26
DOCKED: REMARK                            x       y       z     vdW  Elec       q    Type
DOCKED: REMARK                         _______ _______ _______ _____ _____    ______ ____
DOCKED: USER                              x       y       z     vdW  Elec       q    Type
DOCKED: USER                           _______ _______ _______ _____ _____    ______ ____
DOCKED: ROOT
DOCKED: ATOM      1  C   UNL     1      29.993 -15.184  -2.164 -0.10 -0.00    +0.000 C 
DOCKED: ENDROOT
DOCKED: BRANCH   1   2
DOCKED: ATOM      2  C   UNL     1      29.106 -13.999  -2.431 -0.07 -0.00    +0.000 A 
DOCKED: ATOM      3  C   UNL     1      29.367 -12.761  -1.823 -0.04 -0.00    +0.000 A 
DOCKED: ATOM      4  C   UNL     1      28.555 -11.655  -2.088 -0.06 -0.00    +0.000 A 
DOCKED: ATOM      5  C   UNL     1      27.470 -11.773  -2.970 -0.12 -0.00    +0.000 A 
DOCKED: ATOM      6  C   UNL     1      26.652 -10.666  -3.246 -0.12 -0.00    +0.000 A 
DOCKED: ATOM      7  C   UNL     1      25.572 -10.787  -4.133 -0.18 -0.00    +0.000 A 
DOCKED: ATOM      8  C   UNL     1      25.306 -12.026  -4.737 -0.28 -0.00    +0.000 A 
DOCKED: ATOM      9  C   UNL     1      26.115 -13.133  -4.467 -0.32 -0.00    +0.000 A 
DOCKED: ATOM     10  C   UNL     1      27.200 -13.016  -3.587 -0.20 -0.00    +0.000 A 
DOCKED: ATOM     11  C   UNL     1      28.020 -14.121  -3.311 -0.17 -0.00    +0.000 A 
DOCKED: BRANCH   7  12
DOCKED: ATOM     12  C   UNL     1      24.689  -9.597  -4.411 -0.34 -0.00    +0.000 C 
DOCKED: BRANCH  12  13
DOCKED: ATOM     13  N   UNL     1      24.854  -9.128  -5.804 -0.24 -0.00    +0.000 N 
DOCKED: ATOM     14  H   UNL     1      24.989  -8.125  -5.683 +0.00 -0.00    +0.000 HD
DOCKED: BRANCH  13  15
DOCKED: ATOM     15  C   UNL     1      26.105  -9.560  -6.472 -0.16 -0.00    +0.000 C 
DOCKED: ATOM     16  C   UNL     1      25.897 -10.288  -7.811 -0.25 -0.00    +0.000 C 
DOCKED: ENDBRANCH  13  15
DOCKED: BRANCH  13  17
DOCKED: ATOM     17  C   UNL     1      23.637  -9.198  -6.648 -0.44 -0.00    +0.000 C 
DOCKED: ATOM     18  C   UNL     1      22.575  -8.148  -6.312 -0.43 -0.00    +0.000 C 
DOCKED: ENDBRANCH  13  17
DOCKED: ENDBRANCH  12  13
DOCKED: ENDBRANCH   7  12
DOCKED: ENDBRANCH   1   2
DOCKED: BRANCH   1  19
DOCKED: ATOM     19  O   UNL     1      29.329 -16.125  -1.321 -0.20 -0.00    +0.000 OA
DOCKED: BRANCH  19  21
DOCKED: ATOM     20  O   UNL     1      27.648 -16.727  -2.787 -0.30 -0.00    +0.000 OA
DOCKED: ATOM     21  C   UNL     1      28.058 -16.641  -1.596 -0.35 -0.00    +0.000 C 
DOCKED: ATOM     22  N   UNL     1      27.246 -17.110  -0.512 -0.45 -0.00    +0.000 N 
DOCKED: ATOM     23  H   UNL     1      27.676 -17.231   0.365 -0.22 -0.00    +0.000 HD
DOCKED: BRANCH  22  24
DOCKED: ATOM     24  C   UNL     1      25.845 -17.415  -0.622 -0.56 -0.00    +0.000 A 
DOCKED: ATOM     25  C   UNL     1      24.961 -16.428  -1.077 -0.51 -0.00    +0.000 A 
DOCKED: ATOM     26  C   UNL     1      23.598 -16.707  -1.220 -0.34 -0.00    +0.000 A 
DOCKED: ATOM     27  C   UNL     1      23.096 -17.985  -0.922 -0.71 -0.00    +0.000 A 
DOCKED: ATOM     28  C   UNL     1      23.990 -18.983  -0.498 -0.48 -0.00    +0.000 A 
DOCKED: ATOM     29  C   UNL     1      25.352 -18.703  -0.351 -0.41 -0.00    +0.000 A 
DOCKED: BRANCH  27  30
DOCKED: ATOM     30  C   UNL     1      21.654 -18.301  -1.081 -0.73 -0.00    +0.000 C 
DOCKED: ATOM     31  N   UNL     1      21.222 -19.535  -1.664 -0.66 -0.00    +0.000 N 
DOCKED: ATOM     32  O   UNL     1      19.904 -19.842  -1.705 -2.27 -0.00    +0.000 OA
DOCKED: ATOM     33  O   UNL     1      20.790 -17.461  -0.710 -2.05 +0.00    +0.000 OA
DOCKED: ATOM     34  H   UNL     1      21.884 -20.162  -2.036 -0.52 -0.00    +0.000 HD
DOCKED: ENDBRANCH  27  30
DOCKED: ENDBRANCH  22  24
DOCKED: ENDBRANCH  19  21
DOCKED: ENDBRANCH   1  19
DOCKED: TORSDOF 9
DOCKED: TER
DOCKED: ENDMDL
________________________________________________________________________________


	BEGINNING GENETIC ALGORITHM DOCKING 33 of 100
Run: 33 Seed: 672256444 334406196 [ Run 33 of 100 GA/GALS ]
Beginning LAMARCKIAN GENETIC ALGORITHM (LGA), with a maximum of 2500000 energy evaluations.

Final-Value: -14.978


	FINAL GENETIC ALGORITHM DOCKED STATE
	_______________________________________________


Detailed state:  trans 27.671 -15.507 2.821 quatxyzw -0.265728 0.832009 -0.329077 -0.358968 center 1.436 0.069 -0.007 ntor 9 -111.1790 111.7848 157.4325 -45.3789 -2.5655 -29.4602 48.8515 62.6753 91.5923
State:	 27.671 -15.507   2.821  -0.285  0.891 -0.353 -137.926   -111.18  111.78  157.43  -45.38   -2.57  -29.46   48.85   62.68   91.59

DOCKED: MODEL       33
DOCKED: USER    Run = 33
DOCKED: USER    DPF = ligand_dock.biased.dpf
DOCKED: USER  
DOCKED: USER    Estimated Free Energy of Binding    =  -10.80 kcal/mol  [=(1)+(2)+(3)-(4)]
DOCKED: USER    Estimated Inhibition Constant, Ki   =   12.17 nM (nanomolar)  [Temperature = 298.15 K]
DOCKED: USER    
DOCKED: USER    (1) Final Intermolecular Energy     =  -13.48 kcal/mol
DOCKED: USER        vdW + Hbond + desolv Energy     =  -13.48 kcal/mol
DOCKED: USER        Electrostatic Energy            =   +0.00 kcal/mol
DOCKED: USER    (2) Final Total Internal Energy     =   -1.50 kcal/mol
DOCKED: USER    (3) Torsional Free Energy           =   +2.68 kcal/mol
DOCKED: USER    (4) Unbound System's Energy  [=(2)] =   -1.50 kcal/mol
DOCKED: USER    
DOCKED: USER    
DOCKED: USER    NEWDPF move ligand.pdbqt
DOCKED: USER    NEWDPF about 1.436000 0.069000 -0.007000
DOCKED: USER    NEWDPF tran0 27.671026 -15.507229 2.821111
DOCKED: USER    NEWDPF quaternion0 -0.265728 0.832009 -0.329077 -0.358968
DOCKED: USER    NEWDPF axisangle0 -0.284704 0.891422 -0.352576 -137.926382
DOCKED: USER    NEWDPF quat0 -0.284704 0.891422 -0.352576 -137.926382
DOCKED: USER    NEWDPF dihe0 -111.18 111.78 157.43 -45.38 -2.57 -29.46 48.85 62.68 91.59 
DOCKED: USER  keepresnum = 1 
DOCKED: USER  
DOCKED: REMARK  Name = 
DOCKED: REMARK  11 active torsions:
DOCKED: REMARK  status: ('A' for Active; 'I' for Inactive)
DOCKED: REMARK    1  A    between atoms: C_2  and  O_3
DOCKED: REMARK    2  A    between atoms: O_3  and  C_4
DOCKED: REMARK    3  A    between atoms: C_4  and  C_5
DOCKED: REMARK    4  A    between atoms: C_10  and  C_11
DOCKED: REMARK    5  A    between atoms: C_11  and  N_12
DOCKED: REMARK    6  A    between atoms: N_12  and  C_13
DOCKED: REMARK    7  A    between atoms: N_12  and  C_15
DOCKED: REMARK    8  A    between atoms: C_13  and  C_14
DOCKED: REMARK    9  A    between atoms: C_15  and  C_16
DOCKED: REMARK   10  A    between atoms: N_21  and  C_22
DOCKED: REMARK   11  A    between atoms: C_25  and  C_26
DOCKED: REMARK                            x       y       z     vdW  Elec       q    Type
DOCKED: REMARK                         _______ _______ _______ _____ _____    ______ ____
DOCKED: USER                              x       y       z     vdW  Elec       q    Type
DOCKED: USER                           _______ _______ _______ _____ _____    ______ ____
DOCKED: ROOT
DOCKED: ATOM      1  C   UNL     1      26.868 -13.336  -0.355 -0.25 -0.00    +0.000 C 
DOCKED: ENDROOT
DOCKED: BRANCH   1   2
DOCKED: ATOM      2  C   UNL     1      27.488 -13.085   0.993 -0.22 -0.00    +0.000 A 
DOCKED: ATOM      3  C   UNL     1      27.538 -14.105   1.956 -0.25 -0.00    +0.000 A 
DOCKED: ATOM      4  C   UNL     1      28.133 -13.877   3.200 -0.34 -0.00    +0.000 A 
DOCKED: ATOM      5  C   UNL     1      28.688 -12.624   3.496 -0.20 -0.00    +0.000 A 
DOCKED: ATOM      6  C   UNL     1      29.292 -12.387   4.741 -0.20 -0.00    +0.000 A 
DOCKED: ATOM      7  C   UNL     1      29.852 -11.134   5.031 -0.11 -0.00    +0.000 A 
DOCKED: ATOM      8  C   UNL     1      29.797 -10.111   4.071 -0.07 +0.00    +0.000 A 
DOCKED: ATOM      9  C   UNL     1      29.197 -10.338   2.829 -0.07 +0.00    +0.000 A 
DOCKED: ATOM     10  C   UNL     1      28.642 -11.590   2.532 -0.12 -0.00    +0.000 A 
DOCKED: ATOM     11  C   UNL     1      28.040 -11.828   1.287 -0.13 -0.00    +0.000 A 
DOCKED: BRANCH   7  12
DOCKED: ATOM     12  C   UNL     1      30.483 -10.885   6.377 -0.12 -0.00    +0.000 C 
DOCKED: BRANCH  12  13
DOCKED: ATOM     13  N   UNL     1      29.458 -10.831   7.442 -0.27 -0.00    +0.000 N 
DOCKED: ATOM     14  H   UNL     1      28.595 -10.993   6.923 -0.02 +0.00    +0.000 HD
DOCKED: BRANCH  13  15
DOCKED: ATOM     15  C   UNL     1      29.490 -11.955   8.407 -0.35 -0.00    +0.000 C 
DOCKED: ATOM     16  C   UNL     1      29.064 -13.313   7.823 -0.41 -0.00    +0.000 C 
DOCKED: ENDBRANCH  13  15
DOCKED: BRANCH  13  17
DOCKED: ATOM     17  C   UNL     1      29.235  -9.495   8.045 -0.24 +0.00    +0.000 C 
DOCKED: ATOM     18  C   UNL     1      29.293  -8.335   7.048 -0.20 +0.00    +0.000 C 
DOCKED: ENDBRANCH  13  17
DOCKED: ENDBRANCH  12  13
DOCKED: ENDBRANCH   7  12
DOCKED: ENDBRANCH   1   2
DOCKED: BRANCH   1  19
DOCKED: ATOM     19  O   UNL     1      26.903 -14.727  -0.669 -0.31 -0.00    +0.000 OA
DOCKED: BRANCH  19  21
DOCKED: ATOM     20  O   UNL     1      25.141 -15.019  -2.135 -0.43 -0.00    +0.000 OA
DOCKED: ATOM     21  C   UNL     1      25.792 -15.437  -1.137 -0.44 -0.00    +0.000 C 
DOCKED: ATOM     22  N   UNL     1      25.429 -16.667  -0.497 -0.46 -0.00    +0.000 N 
DOCKED: ATOM     23  H   UNL     1      26.077 -17.069   0.125 -0.03 -0.00    +0.000 HD
DOCKED: BRANCH  22  24
DOCKED: ATOM     24  C   UNL     1      24.181 -17.350  -0.702 -0.63 -0.00    +0.000 A 
DOCKED: ATOM     25  C   UNL     1      24.187 -18.654  -1.213 -0.59 -0.00    +0.000 A 
DOCKED: ATOM     26  C   UNL     1      22.988 -19.352  -1.397 -0.58 -0.00    +0.000 A 
DOCKED: ATOM     27  C   UNL     1      21.759 -18.759  -1.059 -0.73 -0.00    +0.000 A 
DOCKED: ATOM     28  C   UNL     1      21.758 -17.463  -0.515 -0.56 -0.00    +0.000 A 
DOCKED: ATOM     29  C   UNL     1      22.956 -16.765  -0.336 -0.24 -0.00    +0.000 A 
DOCKED: BRANCH  27  30
DOCKED: ATOM     30  C   UNL     1      20.480 -19.491  -1.235 -0.84 -0.00    +0.000 C 
DOCKED: ATOM     31  N   UNL     1      19.491 -19.523  -0.200 -0.79 -0.00    +0.000 N 
DOCKED: ATOM     32  O   UNL     1      18.293 -20.111  -0.423 -0.97 -0.00    +0.000 OA
DOCKED: ATOM     33  O   UNL     1      20.262 -20.111  -2.312 -2.17 -0.00    +0.000 OA
DOCKED: ATOM     34  H   UNL     1      19.683 -19.117   0.676 -0.13 -0.00    +0.000 HD
DOCKED: ENDBRANCH  27  30
DOCKED: ENDBRANCH  22  24
DOCKED: ENDBRANCH  19  21
DOCKED: ENDBRANCH   1  19
DOCKED: TORSDOF 9
DOCKED: TER
DOCKED: ENDMDL
________________________________________________________________________________


	BEGINNING GENETIC ALGORITHM DOCKING 34 of 100
Run: 34 Seed: 236667833 720514973 [ Run 34 of 100 GA/GALS ]
Beginning LAMARCKIAN GENETIC ALGORITHM (LGA), with a maximum of 2500000 energy evaluations.

Final-Value: -17.294


	FINAL GENETIC ALGORITHM DOCKED STATE
	_______________________________________________


Detailed state:  trans 28.354 -16.404 3.177 quatxyzw 0.108819 -0.796844 0.377486 0.459023 center 1.436 0.069 -0.007 ntor 9 55.7304 80.6234 154.6821 -78.7222 48.4021 175.4215 69.3053 41.9154 174.6009
State:	 28.354 -16.404   3.177   0.122 -0.897  0.425 125.352     55.73   80.62  154.68  -78.72   48.40  175.42   69.31   41.92  174.60

DOCKED: MODEL       34
DOCKED: USER    Run = 34
DOCKED: USER    DPF = ligand_dock.biased.dpf
DOCKED: USER  
DOCKED: USER    Estimated Free Energy of Binding    =  -13.24 kcal/mol  [=(1)+(2)+(3)-(4)]
DOCKED: USER    Estimated Inhibition Constant, Ki   =  198.75 pM (picomolar)  [Temperature = 298.15 K]
DOCKED: USER    
DOCKED: USER    (1) Final Intermolecular Energy     =  -15.92 kcal/mol
DOCKED: USER        vdW + Hbond + desolv Energy     =  -15.92 kcal/mol
DOCKED: USER        Electrostatic Energy            =   +0.00 kcal/mol
DOCKED: USER    (2) Final Total Internal Energy     =   -1.37 kcal/mol
DOCKED: USER    (3) Torsional Free Energy           =   +2.68 kcal/mol
DOCKED: USER    (4) Unbound System's Energy  [=(2)] =   -1.37 kcal/mol
DOCKED: USER    
DOCKED: USER    
DOCKED: USER    NEWDPF move ligand.pdbqt
DOCKED: USER    NEWDPF about 1.436000 0.069000 -0.007000
DOCKED: USER    NEWDPF tran0 28.354491 -16.404128 3.176883
DOCKED: USER    NEWDPF quaternion0 0.108819 -0.796844 0.377486 0.459023
DOCKED: USER    NEWDPF axisangle0 0.122486 -0.896918 0.424894 125.351882
DOCKED: USER    NEWDPF quat0 0.122486 -0.896918 0.424894 125.351882
DOCKED: USER    NEWDPF dihe0 55.73 80.62 154.68 -78.72 48.40 175.42 69.31 41.92 174.60 
DOCKED: USER  keepresnum = 1 
DOCKED: USER  
DOCKED: REMARK  Name = 
DOCKED: REMARK  11 active torsions:
DOCKED: REMARK  status: ('A' for Active; 'I' for Inactive)
DOCKED: REMARK    1  A    between atoms: C_2  and  O_3
DOCKED: REMARK    2  A    between atoms: O_3  and  C_4
DOCKED: REMARK    3  A    between atoms: C_4  and  C_5
DOCKED: REMARK    4  A    between atoms: C_10  and  C_11
DOCKED: REMARK    5  A    between atoms: C_11  and  N_12
DOCKED: REMARK    6  A    between atoms: N_12  and  C_13
DOCKED: REMARK    7  A    between atoms: N_12  and  C_15
DOCKED: REMARK    8  A    between atoms: C_13  and  C_14
DOCKED: REMARK    9  A    between atoms: C_15  and  C_16
DOCKED: REMARK   10  A    between atoms: N_21  and  C_22
DOCKED: REMARK   11  A    between atoms: C_25  and  C_26
DOCKED: REMARK                            x       y       z     vdW  Elec       q    Type
DOCKED: REMARK                         _______ _______ _______ _____ _____    ______ ____
DOCKED: USER                              x       y       z     vdW  Elec       q    Type
DOCKED: USER                           _______ _______ _______ _____ _____    ______ ____
DOCKED: ROOT
DOCKED: ATOM      1  C   UNL     1      29.060 -14.025   0.129 -0.13 -0.00    +0.000 C 
DOCKED: ENDROOT
DOCKED: BRANCH   1   2
DOCKED: ATOM      2  C   UNL     1      29.250 -13.951   1.620 -0.15 -0.00    +0.000 A 
DOCKED: ATOM      3  C   UNL     1      30.328 -14.607   2.234 -0.11 -0.00    +0.000 A 
DOCKED: ATOM      4  C   UNL     1      30.515 -14.519   3.617 -0.26 -0.00    +0.000 A 
DOCKED: ATOM      5  C   UNL     1      29.627 -13.772   4.403 -0.30 -0.00    +0.000 A 
DOCKED: ATOM      6  C   UNL     1      29.810 -13.674   5.791 -0.31 -0.00    +0.000 A 
DOCKED: ATOM      7  C   UNL     1      28.921 -12.921   6.573 -0.37 -0.00    +0.000 A 
DOCKED: ATOM      8  C   UNL     1      27.839 -12.270   5.959 -0.32 +0.00    +0.000 A 
DOCKED: ATOM      9  C   UNL     1      27.649 -12.362   4.578 -0.26 +0.00    +0.000 A 
DOCKED: ATOM     10  C   UNL     1      28.537 -13.109   3.791 -0.28 -0.00    +0.000 A 
DOCKED: ATOM     11  C   UNL     1      28.356 -13.205   2.403 -0.22 -0.00    +0.000 A 
DOCKED: BRANCH   7  12
DOCKED: ATOM     12  C   UNL     1      29.117 -12.836   8.065 -0.43 -0.00    +0.000 C 
DOCKED: BRANCH  12  13
DOCKED: ATOM     13  N   UNL     1      29.974 -13.940   8.550 -0.37 -0.00    +0.000 N 
DOCKED: ATOM     14  H   UNL     1      29.732 -14.701   7.916 -0.58 -0.00    +0.000 HD
DOCKED: BRANCH  13  15
DOCKED: ATOM     15  C   UNL     1      31.428 -13.758   8.322 -0.24 -0.00    +0.000 C 
DOCKED: ATOM     16  C   UNL     1      32.203 -13.214   9.533 -0.19 -0.00    +0.000 C 
DOCKED: ENDBRANCH  13  15
DOCKED: BRANCH  13  17
DOCKED: ATOM     17  C   UNL     1      29.613 -14.490   9.879 -0.47 -0.00    +0.000 C 
DOCKED: ATOM     18  C   UNL     1      28.305 -13.942  10.454 -0.53 -0.00    +0.000 C 
DOCKED: ENDBRANCH  13  17
DOCKED: ENDBRANCH  12  13
DOCKED: ENDBRANCH   7  12
DOCKED: ENDBRANCH   1   2
DOCKED: BRANCH   1  19
DOCKED: ATOM     19  O   UNL     1      28.918 -15.382  -0.290 -0.21 -0.00    +0.000 OA
DOCKED: BRANCH  19  21
DOCKED: ATOM     20  O   UNL     1      27.300 -15.604  -1.924 -0.30 -0.00    +0.000 OA
DOCKED: ATOM     21  C   UNL     1      27.718 -15.915  -0.774 -0.34 -0.00    +0.000 C 
DOCKED: ATOM     22  N   UNL     1      26.995 -16.852   0.034 -0.44 -0.00    +0.000 N 
DOCKED: ATOM     23  H   UNL     1      27.454 -17.234   0.816 -0.24 -0.00    +0.000 HD
DOCKED: BRANCH  22  24
DOCKED: ATOM     24  C   UNL     1      25.643 -17.269  -0.223 -0.43 -0.00    +0.000 A 
DOCKED: ATOM     25  C   UNL     1      24.727 -16.348  -0.748 -0.40 -0.00    +0.000 A 
DOCKED: ATOM     26  C   UNL     1      23.414 -16.734  -1.033 -0.40 -0.00    +0.000 A 
DOCKED: ATOM     27  C   UNL     1      22.995 -18.057  -0.810 -0.72 -0.00    +0.000 A 
DOCKED: ATOM     28  C   UNL     1      23.925 -18.989  -0.315 -0.36 -0.00    +0.000 A 
DOCKED: ATOM     29  C   UNL     1      25.237 -18.601  -0.026 -0.41 -0.00    +0.000 A 
DOCKED: BRANCH  27  30
DOCKED: ATOM     30  C   UNL     1      21.609 -18.487  -1.120 -0.71 -0.00    +0.000 C 
DOCKED: ATOM     31  N   UNL     1      21.349 -19.663  -1.893 -0.42 -0.00    +0.000 N 
DOCKED: ATOM     32  O   UNL     1      20.077 -20.089  -2.076 -2.21 -0.00    +0.000 OA
DOCKED: ATOM     33  O   UNL     1      20.637 -17.796  -0.708 -2.30 +0.00    +0.000 OA
DOCKED: ATOM     34  H   UNL     1      22.096 -20.165  -2.293 -0.55 -0.00    +0.000 HD
DOCKED: ENDBRANCH  27  30
DOCKED: ENDBRANCH  22  24
DOCKED: ENDBRANCH  19  21
DOCKED: ENDBRANCH   1  19
DOCKED: TORSDOF 9
DOCKED: TER
DOCKED: ENDMDL
________________________________________________________________________________


	BEGINNING GENETIC ALGORITHM DOCKING 35 of 100
Run: 35 Seed: 172194053 1764054269 [ Run 35 of 100 GA/GALS ]
Beginning LAMARCKIAN GENETIC ALGORITHM (LGA), with a maximum of 2500000 energy evaluations.

Final-Value: -14.904


	FINAL GENETIC ALGORITHM DOCKED STATE
	_______________________________________________


Detailed state:  trans 26.655 -14.967 -0.768 quatxyzw -0.230420 0.081984 -0.741216 -0.625127 center 1.436 0.069 -0.007 ntor 9 103.6325 142.8396 -41.7479 163.0124 -176.6238 -94.1608 113.7609 -8.7088 -177.9978
State:	 26.655 -14.967  -0.768  -0.295  0.105 -0.950 -102.617    103.63  142.84  -41.75  163.01 -176.62  -94.16  113.76   -8.71 -178.00

DOCKED: MODEL       35
DOCKED: USER    Run = 35
DOCKED: USER    DPF = ligand_dock.biased.dpf
DOCKED: USER  
DOCKED: USER    Estimated Free Energy of Binding    =  -10.03 kcal/mol  [=(1)+(2)+(3)-(4)]
DOCKED: USER    Estimated Inhibition Constant, Ki   =   44.74 nM (nanomolar)  [Temperature = 298.15 K]
DOCKED: USER    
DOCKED: USER    (1) Final Intermolecular Energy     =  -12.71 kcal/mol
DOCKED: USER        vdW + Hbond + desolv Energy     =  -12.71 kcal/mol
DOCKED: USER        Electrostatic Energy            =   +0.00 kcal/mol
DOCKED: USER    (2) Final Total Internal Energy     =   -2.19 kcal/mol
DOCKED: USER    (3) Torsional Free Energy           =   +2.68 kcal/mol
DOCKED: USER    (4) Unbound System's Energy  [=(2)] =   -2.19 kcal/mol
DOCKED: USER    
DOCKED: USER    
DOCKED: USER    NEWDPF move ligand.pdbqt
DOCKED: USER    NEWDPF about 1.436000 0.069000 -0.007000
DOCKED: USER    NEWDPF tran0 26.654605 -14.967378 -0.768465
DOCKED: USER    NEWDPF quaternion0 -0.230420 0.081984 -0.741216 -0.625127
DOCKED: USER    NEWDPF axisangle0 -0.295213 0.105037 -0.949640 -102.616921
DOCKED: USER    NEWDPF quat0 -0.295213 0.105037 -0.949640 -102.616921
DOCKED: USER    NEWDPF dihe0 103.63 142.84 -41.75 163.01 -176.62 -94.16 113.76 -8.71 -178.00 
DOCKED: USER  keepresnum = 1 
DOCKED: USER  
DOCKED: REMARK  Name = 
DOCKED: REMARK  11 active torsions:
DOCKED: REMARK  status: ('A' for Active; 'I' for Inactive)
DOCKED: REMARK    1  A    between atoms: C_2  and  O_3
DOCKED: REMARK    2  A    between atoms: O_3  and  C_4
DOCKED: REMARK    3  A    between atoms: C_4  and  C_5
DOCKED: REMARK    4  A    between atoms: C_10  and  C_11
DOCKED: REMARK    5  A    between atoms: C_11  and  N_12
DOCKED: REMARK    6  A    between atoms: N_12  and  C_13
DOCKED: REMARK    7  A    between atoms: N_12  and  C_15
DOCKED: REMARK    8  A    between atoms: C_13  and  C_14
DOCKED: REMARK    9  A    between atoms: C_15  and  C_16
DOCKED: REMARK   10  A    between atoms: N_21  and  C_22
DOCKED: REMARK   11  A    between atoms: C_25  and  C_26
DOCKED: REMARK                            x       y       z     vdW  Elec       q    Type
DOCKED: REMARK                         _______ _______ _______ _____ _____    ______ ____
DOCKED: USER                              x       y       z     vdW  Elec       q    Type
DOCKED: USER                           _______ _______ _______ _____ _____    ______ ____
DOCKED: ROOT
DOCKED: ATOM      1  C   UNL     1      30.209 -16.061  -2.042 -0.14 -0.00    +0.000 C 
DOCKED: ENDROOT
DOCKED: BRANCH   1   2
DOCKED: ATOM      2  C   UNL     1      29.336 -14.844  -2.196 -0.09 -0.00    +0.000 A 
DOCKED: ATOM      3  C   UNL     1      29.363 -13.822  -1.234 -0.06 -0.00    +0.000 A 
DOCKED: ATOM      4  C   UNL     1      28.567 -12.683  -1.389 -0.07 -0.00    +0.000 A 
DOCKED: ATOM      5  C   UNL     1      27.737 -12.550  -2.511 -0.11 -0.00    +0.000 A 
DOCKED: ATOM      6  C   UNL     1      26.939 -11.408  -2.678 -0.04 -0.00    +0.000 A 
DOCKED: ATOM      7  C   UNL     1      26.113 -11.277  -3.805 -0.07 -0.00    +0.000 A 
DOCKED: ATOM      8  C   UNL     1      26.082 -12.302  -4.763 -0.27 -0.00    +0.000 A 
DOCKED: ATOM      9  C   UNL     1      26.873 -13.444  -4.606 -0.29 -0.00    +0.000 A 
DOCKED: ATOM     10  C   UNL     1      27.704 -13.576  -3.485 -0.17 -0.00    +0.000 A 
DOCKED: ATOM     11  C   UNL     1      28.504 -14.717  -3.318 -0.16 -0.00    +0.000 A 
DOCKED: BRANCH   7  12
DOCKED: ATOM     12  C   UNL     1      25.248 -10.054  -3.966 -0.22 -0.00    +0.000 C 
DOCKED: BRANCH  12  13
DOCKED: ATOM     13  N   UNL     1      25.656  -9.268  -5.151 -0.18 -0.00    +0.000 N 
DOCKED: ATOM     14  H   UNL     1      25.393  -8.319  -4.885 +0.00 -0.00    +0.000 HD
DOCKED: BRANCH  13  15
DOCKED: ATOM     15  C   UNL     1      27.119  -9.166  -5.368 -0.08 -0.00    +0.000 C 
DOCKED: ATOM     16  C   UNL     1      27.547  -9.138  -6.844 -0.06 -0.00    +0.000 C 
DOCKED: ENDBRANCH  13  15
DOCKED: BRANCH  13  17
DOCKED: ATOM     17  C   UNL     1      24.856  -9.501  -6.377 -0.31 -0.00    +0.000 C 
DOCKED: ATOM     18  C   UNL     1      23.422  -8.971  -6.306 -0.43 -0.00    +0.000 C 
DOCKED: ENDBRANCH  13  17
DOCKED: ENDBRANCH  12  13
DOCKED: ENDBRANCH   7  12
DOCKED: ENDBRANCH   1   2
DOCKED: BRANCH   1  19
DOCKED: ATOM     19  O   UNL     1      29.801 -16.827  -0.910 -0.24 -0.00    +0.000 OA
DOCKED: BRANCH  19  21
DOCKED: ATOM     20  O   UNL     1      28.379 -18.637  -0.710 -0.08 -0.00    +0.000 OA
DOCKED: ATOM     21  C   UNL     1      28.525 -17.385  -0.778 -0.30 -0.00    +0.000 C 
DOCKED: ATOM     22  N   UNL     1      27.390 -16.515  -0.679 -0.38 -0.00    +0.000 N 
DOCKED: ATOM     23  H   UNL     1      27.557 -15.559  -0.516 -0.00 -0.00    +0.000 HD
DOCKED: BRANCH  22  24
DOCKED: ATOM     24  C   UNL     1      26.024 -16.947  -0.802 -0.51 -0.00    +0.000 A 
DOCKED: ATOM     25  C   UNL     1      25.550 -17.972   0.027 -0.56 -0.00    +0.000 A 
DOCKED: ATOM     26  C   UNL     1      24.218 -18.392  -0.053 -0.56 -0.00    +0.000 A 
DOCKED: ATOM     27  C   UNL     1      23.331 -17.784  -0.958 -0.69 -0.00    +0.000 A 
DOCKED: ATOM     28  C   UNL     1      23.801 -16.733  -1.765 -0.03 -0.00    +0.000 A 
DOCKED: ATOM     29  C   UNL     1      25.133 -16.316  -1.688 -0.52 -0.00    +0.000 A 
DOCKED: BRANCH  27  30
DOCKED: ATOM     30  C   UNL     1      21.912 -18.209  -1.046 -0.74 -0.00    +0.000 C 
DOCKED: ATOM     31  N   UNL     1      21.552 -19.514  -1.512 -0.63 -0.00    +0.000 N 
DOCKED: ATOM     32  O   UNL     1      20.259 -19.912  -1.486 -2.22 -0.00    +0.000 OA
DOCKED: ATOM     33  O   UNL     1      21.001 -17.402  -0.717 -2.00 +0.00    +0.000 OA
DOCKED: ATOM     34  H   UNL     1      22.247 -20.124  -1.853 -0.47 -0.00    +0.000 HD
DOCKED: ENDBRANCH  27  30
DOCKED: ENDBRANCH  22  24
DOCKED: ENDBRANCH  19  21
DOCKED: ENDBRANCH   1  19
DOCKED: TORSDOF 9
DOCKED: TER
DOCKED: ENDMDL
________________________________________________________________________________


	BEGINNING GENETIC ALGORITHM DOCKING 36 of 100
Run: 36 Seed: 1095098414 1234708661 [ Run 36 of 100 GA/GALS ]
Beginning LAMARCKIAN GENETIC ALGORITHM (LGA), with a maximum of 2500000 energy evaluations.

Final-Value: -16.039


	FINAL GENETIC ALGORITHM DOCKED STATE
	_______________________________________________


Detailed state:  trans 25.583 -14.256 -1.865 quatxyzw 0.305471 0.086290 0.845836 0.428722 center 1.436 0.069 -0.007 ntor 9 171.7345 -159.4174 135.6769 -33.8163 -92.0773 -179.8717 94.2651 23.0899 130.2917
State:	 25.583 -14.256  -1.865   0.338  0.096  0.936 129.227    171.73 -159.42  135.68  -33.82  -92.08 -179.87   94.27   23.09  130.29

DOCKED: MODEL       36
DOCKED: USER    Run = 36
DOCKED: USER    DPF = ligand_dock.biased.dpf
DOCKED: USER  
DOCKED: USER    Estimated Free Energy of Binding    =  -11.82 kcal/mol  [=(1)+(2)+(3)-(4)]
DOCKED: USER    Estimated Inhibition Constant, Ki   =    2.17 nM (nanomolar)  [Temperature = 298.15 K]
DOCKED: USER    
DOCKED: USER    (1) Final Intermolecular Energy     =  -14.50 kcal/mol
DOCKED: USER        vdW + Hbond + desolv Energy     =  -14.50 kcal/mol
DOCKED: USER        Electrostatic Energy            =   +0.00 kcal/mol
DOCKED: USER    (2) Final Total Internal Energy     =   -1.54 kcal/mol
DOCKED: USER    (3) Torsional Free Energy           =   +2.68 kcal/mol
DOCKED: USER    (4) Unbound System's Energy  [=(2)] =   -1.54 kcal/mol
DOCKED: USER    
DOCKED: USER    
DOCKED: USER    NEWDPF move ligand.pdbqt
DOCKED: USER    NEWDPF about 1.436000 0.069000 -0.007000
DOCKED: USER    NEWDPF tran0 25.583485 -14.256246 -1.864952
DOCKED: USER    NEWDPF quaternion0 0.305471 0.086290 0.845836 0.428722
DOCKED: USER    NEWDPF axisangle0 0.338121 0.095513 0.936243 129.227078
DOCKED: USER    NEWDPF quat0 0.338121 0.095513 0.936243 129.227078
DOCKED: USER    NEWDPF dihe0 171.73 -159.42 135.68 -33.82 -92.08 -179.87 94.27 23.09 130.29 
DOCKED: USER  keepresnum = 1 
DOCKED: USER  
DOCKED: REMARK  Name = 
DOCKED: REMARK  11 active torsions:
DOCKED: REMARK  status: ('A' for Active; 'I' for Inactive)
DOCKED: REMARK    1  A    between atoms: C_2  and  O_3
DOCKED: REMARK    2  A    between atoms: O_3  and  C_4
DOCKED: REMARK    3  A    between atoms: C_4  and  C_5
DOCKED: REMARK    4  A    between atoms: C_10  and  C_11
DOCKED: REMARK    5  A    between atoms: C_11  and  N_12
DOCKED: REMARK    6  A    between atoms: N_12  and  C_13
DOCKED: REMARK    7  A    between atoms: N_12  and  C_15
DOCKED: REMARK    8  A    between atoms: C_13  and  C_14
DOCKED: REMARK    9  A    between atoms: C_15  and  C_16
DOCKED: REMARK   10  A    between atoms: N_21  and  C_22
DOCKED: REMARK   11  A    between atoms: C_25  and  C_26
DOCKED: REMARK                            x       y       z     vdW  Elec       q    Type
DOCKED: REMARK                         _______ _______ _______ _____ _____    ______ ____
DOCKED: USER                              x       y       z     vdW  Elec       q    Type
DOCKED: USER                           _______ _______ _______ _____ _____    ______ ____
DOCKED: ROOT
DOCKED: ATOM      1  C   UNL     1      28.587 -16.791  -1.891 -0.30 -0.00    +0.000 C 
DOCKED: ENDROOT
DOCKED: BRANCH   1   2
DOCKED: ATOM      2  C   UNL     1      28.192 -15.580  -2.692 -0.22 -0.00    +0.000 A 
DOCKED: ATOM      3  C   UNL     1      27.518 -14.511  -2.082 -0.20 -0.00    +0.000 A 
DOCKED: ATOM      4  C   UNL     1      27.171 -13.377  -2.823 -0.19 -0.00    +0.000 A 
DOCKED: ATOM      5  C   UNL     1      27.498 -13.297  -4.184 -0.21 -0.00    +0.000 A 
DOCKED: ATOM      6  C   UNL     1      27.159 -12.161  -4.934 -0.19 -0.00    +0.000 A 
DOCKED: ATOM      7  C   UNL     1      27.493 -12.083  -6.295 -0.17 -0.00    +0.000 A 
DOCKED: ATOM      8  C   UNL     1      28.163 -13.155  -6.906 -0.14 -0.00    +0.000 A 
DOCKED: ATOM      9  C   UNL     1      28.504 -14.290  -6.167 -0.33 -0.00    +0.000 A 
DOCKED: ATOM     10  C   UNL     1      28.178 -14.371  -4.806 -0.27 -0.00    +0.000 A 
DOCKED: ATOM     11  C   UNL     1      28.519 -15.506  -4.055 -0.26 -0.00    +0.000 A 
DOCKED: BRANCH   7  12
DOCKED: ATOM     12  C   UNL     1      27.109 -10.865  -7.095 -0.18 -0.00    +0.000 C 
DOCKED: BRANCH  12  13
DOCKED: ATOM     13  N   UNL     1      27.103 -11.163  -8.544 -0.21 -0.00    +0.000 N 
DOCKED: ATOM     14  H   UNL     1      27.167 -12.181  -8.558 -0.02 -0.00    +0.000 HD
DOCKED: BRANCH  13  15
DOCKED: ATOM     15  C   UNL     1      25.822 -10.894  -9.239 -0.33 -0.00    +0.000 C 
DOCKED: ATOM     16  C   UNL     1      25.504 -11.859 -10.393 -0.44 -0.00    +0.000 C 
DOCKED: ENDBRANCH  13  15
DOCKED: BRANCH  13  17
DOCKED: ATOM     17  C   UNL     1      28.318 -10.746  -9.286 -0.15 -0.00    +0.000 C 
DOCKED: ATOM     18  C   UNL     1      28.965 -11.859 -10.113 -0.24 -0.00    +0.000 C 
DOCKED: ENDBRANCH  13  17
DOCKED: ENDBRANCH  12  13
DOCKED: ENDBRANCH   7  12
DOCKED: ENDBRANCH   1   2
DOCKED: BRANCH   1  19
DOCKED: ATOM     19  O   UNL     1      27.900 -16.808  -0.640 -0.41 -0.00    +0.000 OA
DOCKED: BRANCH  19  21
DOCKED: ATOM     20  O   UNL     1      26.641 -18.613   0.064 -0.71 -0.00    +0.000 OA
DOCKED: ATOM     21  C   UNL     1      26.677 -17.457  -0.443 -0.57 -0.00    +0.000 C 
DOCKED: ATOM     22  N   UNL     1      25.463 -16.776  -0.785 -0.52 -0.00    +0.000 N 
DOCKED: ATOM     23  H   UNL     1      25.514 -15.810  -0.968 -0.02 -0.00    +0.000 HD
DOCKED: BRANCH  22  24
DOCKED: ATOM     24  C   UNL     1      24.176 -17.411  -0.879 -0.64 -0.00    +0.000 A 
DOCKED: ATOM     25  C   UNL     1      24.100 -18.755  -1.268 -0.54 -0.00    +0.000 A 
DOCKED: ATOM     26  C   UNL     1      22.863 -19.405  -1.341 -0.50 -0.00    +0.000 A 
DOCKED: ATOM     27  C   UNL     1      21.679 -18.723  -1.012 -0.73 -0.00    +0.000 A 
DOCKED: ATOM     28  C   UNL     1      21.761 -17.386  -0.589 -0.56 -0.00    +0.000 A 
DOCKED: ATOM     29  C   UNL     1      22.997 -16.735  -0.521 -0.30 -0.00    +0.000 A 
DOCKED: BRANCH  27  30
DOCKED: ATOM     30  C   UNL     1      20.360 -19.403  -1.071 -0.89 -0.00    +0.000 C 
DOCKED: ATOM     31  N   UNL     1      19.617 -19.691   0.118 -0.75 -0.00    +0.000 N 
DOCKED: ATOM     32  O   UNL     1      18.374 -20.218   0.031 -0.93 -0.00    +0.000 OA
DOCKED: ATOM     33  O   UNL     1      19.889 -19.748  -2.189 -2.32 -0.00    +0.000 OA
DOCKED: ATOM     34  H   UNL     1      20.011 -19.505   1.002 -0.06 -0.00    +0.000 HD
DOCKED: ENDBRANCH  27  30
DOCKED: ENDBRANCH  22  24
DOCKED: ENDBRANCH  19  21
DOCKED: ENDBRANCH   1  19
DOCKED: TORSDOF 9
DOCKED: TER
DOCKED: ENDMDL
________________________________________________________________________________


	BEGINNING GENETIC ALGORITHM DOCKING 37 of 100
Run: 37 Seed: 354470679 1064044751 [ Run 37 of 100 GA/GALS ]
Beginning LAMARCKIAN GENETIC ALGORITHM (LGA), with a maximum of 2500000 energy evaluations.

Final-Value: -16.651


	FINAL GENETIC ALGORITHM DOCKED STATE
	_______________________________________________


Detailed state:  trans 26.976 -16.172 1.768 quatxyzw 0.180987 -0.817972 0.288580 0.463558 center 1.436 0.069 -0.007 ntor 9 -109.3577 -33.3742 106.9490 155.7676 179.7761 -23.8365 73.5311 31.2386 127.4555
State:	 26.976 -16.172   1.768   0.204 -0.923  0.326 124.766   -109.36  -33.37  106.95  155.77  179.78  -23.84   73.53   31.24  127.46

DOCKED: MODEL       37
DOCKED: USER    Run = 37
DOCKED: USER    DPF = ligand_dock.biased.dpf
DOCKED: USER  
DOCKED: USER    Estimated Free Energy of Binding    =  -12.26 kcal/mol  [=(1)+(2)+(3)-(4)]
DOCKED: USER    Estimated Inhibition Constant, Ki   =    1.03 nM (nanomolar)  [Temperature = 298.15 K]
DOCKED: USER    
DOCKED: USER    (1) Final Intermolecular Energy     =  -14.94 kcal/mol
DOCKED: USER        vdW + Hbond + desolv Energy     =  -14.94 kcal/mol
DOCKED: USER        Electrostatic Energy            =   +0.00 kcal/mol
DOCKED: USER    (2) Final Total Internal Energy     =   -1.71 kcal/mol
DOCKED: USER    (3) Torsional Free Energy           =   +2.68 kcal/mol
DOCKED: USER    (4) Unbound System's Energy  [=(2)] =   -1.71 kcal/mol
DOCKED: USER    
DOCKED: USER    
DOCKED: USER    NEWDPF move ligand.pdbqt
DOCKED: USER    NEWDPF about 1.436000 0.069000 -0.007000
DOCKED: USER    NEWDPF tran0 26.976072 -16.172344 1.767822
DOCKED: USER    NEWDPF quaternion0 0.180987 -0.817972 0.288580 0.463558
DOCKED: USER    NEWDPF axisangle0 0.204259 -0.923150 0.325687 124.766063
DOCKED: USER    NEWDPF quat0 0.204259 -0.923150 0.325687 124.766063
DOCKED: USER    NEWDPF dihe0 -109.36 -33.37 106.95 155.77 179.78 -23.84 73.53 31.24 127.46 
DOCKED: USER  keepresnum = 1 
DOCKED: USER  
DOCKED: REMARK  Name = 
DOCKED: REMARK  11 active torsions:
DOCKED: REMARK  status: ('A' for Active; 'I' for Inactive)
DOCKED: REMARK    1  A    between atoms: C_2  and  O_3
DOCKED: REMARK    2  A    between atoms: O_3  and  C_4
DOCKED: REMARK    3  A    between atoms: C_4  and  C_5
DOCKED: REMARK    4  A    between atoms: C_10  and  C_11
DOCKED: REMARK    5  A    between atoms: C_11  and  N_12
DOCKED: REMARK    6  A    between atoms: N_12  and  C_13
DOCKED: REMARK    7  A    between atoms: N_12  and  C_15
DOCKED: REMARK    8  A    between atoms: C_13  and  C_14
DOCKED: REMARK    9  A    between atoms: C_15  and  C_16
DOCKED: REMARK   10  A    between atoms: N_21  and  C_22
DOCKED: REMARK   11  A    between atoms: C_25  and  C_26
DOCKED: REMARK                            x       y       z     vdW  Elec       q    Type
DOCKED: REMARK                         _______ _______ _______ _____ _____    ______ ____
DOCKED: USER                              x       y       z     vdW  Elec       q    Type
DOCKED: USER                           _______ _______ _______ _____ _____    ______ ____
DOCKED: ROOT
DOCKED: ATOM      1  C   UNL     1      26.925 -13.455  -1.072 -0.22 -0.00    +0.000 C 
DOCKED: ENDROOT
DOCKED: BRANCH   1   2
DOCKED: ATOM      2  C   UNL     1      27.237 -13.470   0.400 -0.23 -0.00    +0.000 A 
DOCKED: ATOM      3  C   UNL     1      27.787 -14.613   1.001 -0.25 -0.00    +0.000 A 
DOCKED: ATOM      4  C   UNL     1      28.096 -14.618   2.364 -0.07 -0.00    +0.000 A 
DOCKED: ATOM      5  C   UNL     1      27.863 -13.476   3.144 -0.33 -0.00    +0.000 A 
DOCKED: ATOM      6  C   UNL     1      28.176 -13.469   4.512 -0.43 -0.00    +0.000 A 
DOCKED: ATOM      7  C   UNL     1      27.945 -12.323   5.287 -0.38 +0.00    +0.000 A 
DOCKED: ATOM      8  C   UNL     1      27.391 -11.181   4.688 -0.21 +0.00    +0.000 A 
DOCKED: ATOM      9  C   UNL     1      27.076 -11.178   3.326 -0.20 +0.00    +0.000 A 
DOCKED: ATOM     10  C   UNL     1      27.309 -12.319   2.546 -0.27 -0.00    +0.000 A 
DOCKED: ATOM     11  C   UNL     1      26.999 -12.326   1.178 -0.25 -0.00    +0.000 A 
DOCKED: BRANCH   7  12
DOCKED: ATOM     12  C   UNL     1      28.269 -12.332   6.759 -0.35 +0.00    +0.000 C 
DOCKED: BRANCH  12  13
DOCKED: ATOM     13  N   UNL     1      29.403 -11.431   7.058 -0.27 -0.00    +0.000 N 
DOCKED: ATOM     14  H   UNL     1      29.746 -11.797   7.947 -0.00 -0.00    +0.000 HD
DOCKED: BRANCH  13  15
DOCKED: ATOM     15  C   UNL     1      30.574 -11.569   6.160 -0.14 -0.00    +0.000 C 
DOCKED: ATOM     16  C   UNL     1      31.326 -12.905   6.288 -0.21 -0.00    +0.000 C 
DOCKED: ENDBRANCH  13  15
DOCKED: BRANCH  13  17
DOCKED: ATOM     17  C   UNL     1      29.036 -10.034   7.397 -0.28 +0.00    +0.000 C 
DOCKED: ATOM     18  C   UNL     1      29.346  -9.016   6.297 -0.20 +0.00    +0.000 C 
DOCKED: ENDBRANCH  13  17
DOCKED: ENDBRANCH  12  13
DOCKED: ENDBRANCH   7  12
DOCKED: ENDBRANCH   1   2
DOCKED: BRANCH   1  19
DOCKED: ATOM     19  O   UNL     1      27.004 -14.773  -1.612 -0.28 -0.00    +0.000 OA
DOCKED: BRANCH  19  21
DOCKED: ATOM     20  O   UNL     1      25.154 -15.365  -2.862 -0.59 -0.00    +0.000 OA
DOCKED: ATOM     21  C   UNL     1      25.883 -15.574  -1.853 -0.48 -0.00    +0.000 C 
DOCKED: ATOM     22  N   UNL     1      25.598 -16.661  -0.964 -0.50 -0.00    +0.000 N 
DOCKED: ATOM     23  H   UNL     1      26.298 -16.928  -0.325 -0.02 -0.00    +0.000 HD
DOCKED: BRANCH  22  24
DOCKED: ATOM     24  C   UNL     1      24.357 -17.387  -0.943 -0.64 -0.00    +0.000 A 
DOCKED: ATOM     25  C   UNL     1      24.373 -18.782  -1.076 -0.53 -0.00    +0.000 A 
DOCKED: ATOM     26  C   UNL     1      23.183 -19.514  -1.031 -0.50 -0.00    +0.000 A 
DOCKED: ATOM     27  C   UNL     1      21.952 -18.864  -0.839 -0.75 -0.00    +0.000 A 
DOCKED: ATOM     28  C   UNL     1      21.941 -17.468  -0.672 -0.64 -0.00    +0.000 A 
DOCKED: ATOM     29  C   UNL     1      23.130 -16.735  -0.722 -0.40 -0.00    +0.000 A 
DOCKED: BRANCH  27  30
DOCKED: ATOM     30  C   UNL     1      20.681 -19.628  -0.776 -0.86 -0.00    +0.000 C 
DOCKED: ATOM     31  N   UNL     1      20.250 -20.259   0.435 -0.71 -0.00    +0.000 N 
DOCKED: ATOM     32  O   UNL     1      19.041 -20.862   0.493 -0.89 -0.00    +0.000 OA
DOCKED: ATOM     33  O   UNL     1      19.970 -19.738  -1.812 -2.39 -0.00    +0.000 OA
DOCKED: ATOM     34  H   UNL     1      20.835 -20.254   1.227 -0.49 -0.00    +0.000 HD
DOCKED: ENDBRANCH  27  30
DOCKED: ENDBRANCH  22  24
DOCKED: ENDBRANCH  19  21
DOCKED: ENDBRANCH   1  19
DOCKED: TORSDOF 9
DOCKED: TER
DOCKED: ENDMDL
________________________________________________________________________________


	BEGINNING GENETIC ALGORITHM DOCKING 38 of 100
Run: 38 Seed: 1265729114 675293463 [ Run 38 of 100 GA/GALS ]
Beginning LAMARCKIAN GENETIC ALGORITHM (LGA), with a maximum of 2500000 energy evaluations.

Final-Value: -16.416


	FINAL GENETIC ALGORITHM DOCKED STATE
	_______________________________________________


Detailed state:  trans 28.684 -17.299 -2.938 quatxyzw -0.135446 0.711082 -0.035406 0.689031 center 1.436 0.069 -0.007 ntor 9 -145.9181 -88.3927 -61.8656 21.4638 -8.5019 153.0320 -19.7958 -133.8362 -146.8552
State:	 28.684 -17.299  -2.938  -0.187  0.981 -0.049 92.893   -145.92  -88.39  -61.87   21.46   -8.50  153.03  -19.80 -133.84 -146.86

DOCKED: MODEL       38
DOCKED: USER    Run = 38
DOCKED: USER    DPF = ligand_dock.biased.dpf
DOCKED: USER  
DOCKED: USER    Estimated Free Energy of Binding    =  -12.13 kcal/mol  [=(1)+(2)+(3)-(4)]
DOCKED: USER    Estimated Inhibition Constant, Ki   =    1.29 nM (nanomolar)  [Temperature = 298.15 K]
DOCKED: USER    
DOCKED: USER    (1) Final Intermolecular Energy     =  -14.81 kcal/mol
DOCKED: USER        vdW + Hbond + desolv Energy     =  -14.81 kcal/mol
DOCKED: USER        Electrostatic Energy            =   +0.00 kcal/mol
DOCKED: USER    (2) Final Total Internal Energy     =   -1.60 kcal/mol
DOCKED: USER    (3) Torsional Free Energy           =   +2.68 kcal/mol
DOCKED: USER    (4) Unbound System's Energy  [=(2)] =   -1.60 kcal/mol
DOCKED: USER    
DOCKED: USER    
DOCKED: USER    NEWDPF move ligand.pdbqt
DOCKED: USER    NEWDPF about 1.436000 0.069000 -0.007000
DOCKED: USER    NEWDPF tran0 28.684058 -17.299055 -2.937566
DOCKED: USER    NEWDPF quaternion0 -0.135446 0.711082 -0.035406 0.689031
DOCKED: USER    NEWDPF axisangle0 -0.186891 0.981165 -0.048854 92.893112
DOCKED: USER    NEWDPF quat0 -0.186891 0.981165 -0.048854 92.893112
DOCKED: USER    NEWDPF dihe0 -145.92 -88.39 -61.87 21.46 -8.50 153.03 -19.80 -133.84 -146.86 
DOCKED: USER  keepresnum = 1 
DOCKED: USER  
DOCKED: REMARK  Name = 
DOCKED: REMARK  11 active torsions:
DOCKED: REMARK  status: ('A' for Active; 'I' for Inactive)
DOCKED: REMARK    1  A    between atoms: C_2  and  O_3
DOCKED: REMARK    2  A    between atoms: O_3  and  C_4
DOCKED: REMARK    3  A    between atoms: C_4  and  C_5
DOCKED: REMARK    4  A    between atoms: C_10  and  C_11
DOCKED: REMARK    5  A    between atoms: C_11  and  N_12
DOCKED: REMARK    6  A    between atoms: N_12  and  C_13
DOCKED: REMARK    7  A    between atoms: N_12  and  C_15
DOCKED: REMARK    8  A    between atoms: C_13  and  C_14
DOCKED: REMARK    9  A    between atoms: C_15  and  C_16
DOCKED: REMARK   10  A    between atoms: N_21  and  C_22
DOCKED: REMARK   11  A    between atoms: C_25  and  C_26
DOCKED: REMARK                            x       y       z     vdW  Elec       q    Type
DOCKED: REMARK                         _______ _______ _______ _____ _____    ______ ____
DOCKED: USER                              x       y       z     vdW  Elec       q    Type
DOCKED: USER                           _______ _______ _______ _____ _____    ______ ____
DOCKED: ROOT
DOCKED: ATOM      1  C   UNL     1      27.470 -13.663  -2.071 -0.19 -0.00    +0.000 C 
DOCKED: ENDROOT
DOCKED: BRANCH   1   2
DOCKED: ATOM      2  C   UNL     1      28.028 -14.351  -3.287 -0.18 -0.00    +0.000 A 
DOCKED: ATOM      3  C   UNL     1      27.260 -14.467  -4.457 -0.35 -0.00    +0.000 A 
DOCKED: ATOM      4  C   UNL     1      27.788 -15.088  -5.592 -0.37 +0.00    +0.000 A 
DOCKED: ATOM      5  C   UNL     1      29.093 -15.599  -5.574 -0.32 -0.00    +0.000 A 
DOCKED: ATOM      6  C   UNL     1      29.633 -16.219  -6.711 -0.10 -0.00    +0.000 A 
DOCKED: ATOM      7  C   UNL     1      30.942 -16.724  -6.689 -0.27 -0.00    +0.000 A 
DOCKED: ATOM      8  C   UNL     1      31.709 -16.613  -5.519 -0.11 -0.00    +0.000 A 
DOCKED: ATOM      9  C   UNL     1      31.179 -15.998  -4.381 -0.09 -0.00    +0.000 A 
DOCKED: ATOM     10  C   UNL     1      29.874 -15.487  -4.399 -0.17 -0.00    +0.000 A 
DOCKED: ATOM     11  C   UNL     1      29.334 -14.864  -3.263 -0.12 -0.00    +0.000 A 
DOCKED: BRANCH   7  12
DOCKED: ATOM     12  C   UNL     1      31.507 -17.403  -7.911 -0.30 -0.00    +0.000 C 
DOCKED: BRANCH  12  13
DOCKED: ATOM     13  N   UNL     1      30.959 -18.769  -8.059 -0.36 -0.00    +0.000 N 
DOCKED: ATOM     14  H   UNL     1      29.977 -18.590  -8.267 -0.08 -0.00    +0.000 HD
DOCKED: BRANCH  13  15
DOCKED: ATOM     15  C   UNL     1      31.428 -19.512  -9.253 -0.34 -0.00    +0.000 C 
DOCKED: ATOM     16  C   UNL     1      30.402 -19.604 -10.394 -0.40 -0.00    +0.000 C 
DOCKED: ENDBRANCH  13  15
DOCKED: BRANCH  13  17
DOCKED: ATOM     17  C   UNL     1      30.892 -19.568  -6.812 -0.39 -0.00    +0.000 C 
DOCKED: ATOM     18  C   UNL     1      30.749 -21.076  -7.035 -0.36 -0.00    +0.000 C 
DOCKED: ENDBRANCH  13  17
DOCKED: ENDBRANCH  12  13
DOCKED: ENDBRANCH   7  12
DOCKED: ENDBRANCH   1   2
DOCKED: BRANCH   1  19
DOCKED: ATOM     19  O   UNL     1      26.949 -14.621  -1.150 -0.28 -0.00    +0.000 OA
DOCKED: BRANCH  19  21
DOCKED: ATOM     20  O   UNL     1      25.078 -15.164  -2.392 -0.49 -0.00    +0.000 OA
DOCKED: ATOM     21  C   UNL     1      25.850 -15.439  -1.432 -0.45 -0.00    +0.000 C 
DOCKED: ATOM     22  N   UNL     1      25.637 -16.617  -0.643 -0.48 -0.00    +0.000 N 
DOCKED: ATOM     23  H   UNL     1      26.369 -16.915  -0.056 -0.02 -0.00    +0.000 HD
DOCKED: BRANCH  22  24
DOCKED: ATOM     24  C   UNL     1      24.426 -17.390  -0.653 -0.62 -0.00    +0.000 A 
DOCKED: ATOM     25  C   UNL     1      23.211 -16.770  -0.331 -0.20 -0.00    +0.000 A 
DOCKED: ATOM     26  C   UNL     1      22.014 -17.493  -0.359 -0.64 -0.00    +0.000 A 
DOCKED: ATOM     27  C   UNL     1      22.009 -18.850  -0.725 -0.75 -0.00    +0.000 A 
DOCKED: ATOM     28  C   UNL     1      23.223 -19.461  -1.081 -0.56 -0.00    +0.000 A 
DOCKED: ATOM     29  C   UNL     1      24.421 -18.740  -1.048 -0.54 -0.00    +0.000 A 
DOCKED: BRANCH  27  30
DOCKED: ATOM     30  C   UNL     1      20.745 -19.627  -0.774 -0.85 -0.00    +0.000 C 
DOCKED: ATOM     31  N   UNL     1      20.219 -20.269   0.393 -0.71 -0.00    +0.000 N 
DOCKED: ATOM     32  O   UNL     1      19.015 -20.884   0.345 -0.89 -0.00    +0.000 OA
DOCKED: ATOM     33  O   UNL     1      20.127 -19.740  -1.868 -2.38 -0.00    +0.000 OA
DOCKED: ATOM     34  H   UNL     1      20.733 -20.261   1.232 -0.46 -0.00    +0.000 HD
DOCKED: ENDBRANCH  27  30
DOCKED: ENDBRANCH  22  24
DOCKED: ENDBRANCH  19  21
DOCKED: ENDBRANCH   1  19
DOCKED: TORSDOF 9
DOCKED: TER
DOCKED: ENDMDL
________________________________________________________________________________


	BEGINNING GENETIC ALGORITHM DOCKING 39 of 100
Run: 39 Seed: 95436640 649221634 [ Run 39 of 100 GA/GALS ]
Beginning LAMARCKIAN GENETIC ALGORITHM (LGA), with a maximum of 2500000 energy evaluations.

Final-Value: -16.421


	FINAL GENETIC ALGORITHM DOCKED STATE
	_______________________________________________


Detailed state:  trans 25.486 -14.237 -1.933 quatxyzw -0.363519 -0.094987 -0.819758 -0.432237 center 1.436 0.069 -0.007 ntor 9 -177.9125 180.0000 -72.8060 110.8281 113.3489 -5.0339 110.5027 21.9382 37.9333
State:	 25.486 -14.237  -1.933  -0.403 -0.105 -0.909 -128.781   -177.91  180.00  -72.81  110.83  113.35   -5.03  110.50   21.94   37.93

DOCKED: MODEL       39
DOCKED: USER    Run = 39
DOCKED: USER    DPF = ligand_dock.biased.dpf
DOCKED: USER  
DOCKED: USER    Estimated Free Energy of Binding    =  -12.08 kcal/mol  [=(1)+(2)+(3)-(4)]
DOCKED: USER    Estimated Inhibition Constant, Ki   =    1.39 nM (nanomolar)  [Temperature = 298.15 K]
DOCKED: USER    
DOCKED: USER    (1) Final Intermolecular Energy     =  -14.77 kcal/mol
DOCKED: USER        vdW + Hbond + desolv Energy     =  -14.77 kcal/mol
DOCKED: USER        Electrostatic Energy            =   +0.00 kcal/mol
DOCKED: USER    (2) Final Total Internal Energy     =   -1.65 kcal/mol
DOCKED: USER    (3) Torsional Free Energy           =   +2.68 kcal/mol
DOCKED: USER    (4) Unbound System's Energy  [=(2)] =   -1.65 kcal/mol
DOCKED: USER    
DOCKED: USER    
DOCKED: USER    NEWDPF move ligand.pdbqt
DOCKED: USER    NEWDPF about 1.436000 0.069000 -0.007000
DOCKED: USER    NEWDPF tran0 25.486401 -14.237457 -1.932937
DOCKED: USER    NEWDPF quaternion0 -0.363519 -0.094987 -0.819758 -0.432237
DOCKED: USER    NEWDPF axisangle0 -0.403122 -0.105336 -0.909064 -128.780818
DOCKED: USER    NEWDPF quat0 -0.403122 -0.105336 -0.909064 -128.780818
DOCKED: USER    NEWDPF dihe0 -177.91 180.00 -72.81 110.83 113.35 -5.03 110.50 21.94 37.93 
DOCKED: USER  keepresnum = 1 
DOCKED: USER  
DOCKED: REMARK  Name = 
DOCKED: REMARK  11 active torsions:
DOCKED: REMARK  status: ('A' for Active; 'I' for Inactive)
DOCKED: REMARK    1  A    between atoms: C_2  and  O_3
DOCKED: REMARK    2  A    between atoms: O_3  and  C_4
DOCKED: REMARK    3  A    between atoms: C_4  and  C_5
DOCKED: REMARK    4  A    between atoms: C_10  and  C_11
DOCKED: REMARK    5  A    between atoms: C_11  and  N_12
DOCKED: REMARK    6  A    between atoms: N_12  and  C_13
DOCKED: REMARK    7  A    between atoms: N_12  and  C_15
DOCKED: REMARK    8  A    between atoms: C_13  and  C_14
DOCKED: REMARK    9  A    between atoms: C_15  and  C_16
DOCKED: REMARK   10  A    between atoms: N_21  and  C_22
DOCKED: REMARK   11  A    between atoms: C_25  and  C_26
DOCKED: REMARK                            x       y       z     vdW  Elec       q    Type
DOCKED: REMARK                         _______ _______ _______ _____ _____    ______ ____
DOCKED: USER                              x       y       z     vdW  Elec       q    Type
DOCKED: USER                           _______ _______ _______ _____ _____    ______ ____
DOCKED: ROOT
DOCKED: ATOM      1  C   UNL     1      28.538 -16.708  -2.117 -0.30 -0.00    +0.000 C 
DOCKED: ENDROOT
DOCKED: BRANCH   1   2
DOCKED: ATOM      2  C   UNL     1      28.028 -15.562  -2.948 -0.24 -0.00    +0.000 A 
DOCKED: ATOM      3  C   UNL     1      26.736 -15.598  -3.495 -0.39 -0.00    +0.000 A 
DOCKED: ATOM      4  C   UNL     1      26.256 -14.523  -4.249 -0.46 -0.00    +0.000 A 
DOCKED: ATOM      5  C   UNL     1      27.062 -13.396  -4.463 -0.27 -0.00    +0.000 A 
DOCKED: ATOM      6  C   UNL     1      26.587 -12.310  -5.214 -0.21 -0.00    +0.000 A 
DOCKED: ATOM      7  C   UNL     1      27.395 -11.182  -5.421 -0.14 -0.00    +0.000 A 
DOCKED: ATOM      8  C   UNL     1      28.689 -11.148  -4.878 -0.06 -0.00    +0.000 A 
DOCKED: ATOM      9  C   UNL     1      29.171 -12.225  -4.129 -0.06 -0.00    +0.000 A 
DOCKED: ATOM     10  C   UNL     1      28.366 -13.352  -3.915 -0.13 -0.00    +0.000 A 
DOCKED: ATOM     11  C   UNL     1      28.839 -14.437  -3.162 -0.12 -0.00    +0.000 A 
DOCKED: BRANCH   7  12
DOCKED: ATOM     12  C   UNL     1      26.881 -10.028  -6.243 -0.13 -0.00    +0.000 C 
DOCKED: BRANCH  12  13
DOCKED: ATOM     13  N   UNL     1      25.498  -9.676  -5.856 -0.20 -0.00    +0.000 N 
DOCKED: ATOM     14  H   UNL     1      25.427  -8.704  -6.156 +0.00 -0.00    +0.000 HD
DOCKED: BRANCH  13  15
DOCKED: ATOM     15  C   UNL     1      24.432 -10.350  -6.635 -0.45 -0.00    +0.000 C 
DOCKED: ATOM     16  C   UNL     1      23.279  -9.432  -7.072 -0.42 -0.00    +0.000 C 
DOCKED: ENDBRANCH  13  15
DOCKED: BRANCH  13  17
DOCKED: ATOM     17  C   UNL     1      25.247  -9.589  -4.397 -0.30 -0.00    +0.000 C 
DOCKED: ATOM     18  C   UNL     1      25.084  -8.161  -3.869 -0.22 -0.00    +0.000 C 
DOCKED: ENDBRANCH  13  17
DOCKED: ENDBRANCH  12  13
DOCKED: ENDBRANCH   7  12
DOCKED: ENDBRANCH   1   2
DOCKED: BRANCH   1  19
DOCKED: ATOM     19  O   UNL     1      27.989 -16.653  -0.801 -0.38 -0.00    +0.000 OA
DOCKED: BRANCH  19  21
DOCKED: ATOM     20  O   UNL     1      26.813 -18.245   0.392 -0.58 -0.00    +0.000 OA
DOCKED: ATOM     21  C   UNL     1      26.799 -17.293  -0.437 -0.54 -0.00    +0.000 C 
DOCKED: ATOM     22  N   UNL     1      25.560 -16.825  -0.985 -0.52 -0.00    +0.000 N 
DOCKED: ATOM     23  H   UNL     1      25.561 -15.956  -1.446 -0.01 -0.00    +0.000 HD
DOCKED: BRANCH  22  24
DOCKED: ATOM     24  C   UNL     1      24.316 -17.541  -0.903 -0.65 -0.00    +0.000 A 
DOCKED: ATOM     25  C   UNL     1      23.120 -16.828  -0.745 -0.44 -0.00    +0.000 A 
DOCKED: ATOM     26  C   UNL     1      21.894 -17.499  -0.691 -0.64 -0.00    +0.000 A 
DOCKED: ATOM     27  C   UNL     1      21.841 -18.898  -0.808 -0.75 -0.00    +0.000 A 
DOCKED: ATOM     28  C   UNL     1      23.038 -19.609  -1.002 -0.39 -0.00    +0.000 A 
DOCKED: ATOM     29  C   UNL     1      24.264 -18.939  -1.051 -0.50 -0.00    +0.000 A 
DOCKED: BRANCH  27  30
DOCKED: ATOM     30  C   UNL     1      20.546 -19.624  -0.767 -0.87 -0.00    +0.000 C 
DOCKED: ATOM     31  N   UNL     1      20.067 -20.226   0.440 -0.71 -0.00    +0.000 N 
DOCKED: ATOM     32  O   UNL     1      18.839 -20.792   0.476 -0.88 -0.00    +0.000 OA
DOCKED: ATOM     33  O   UNL     1      19.859 -19.727  -1.819 -2.38 -0.00    +0.000 OA
DOCKED: ATOM     34  H   UNL     1      20.632 -20.227   1.247 -0.42 -0.00    +0.000 HD
DOCKED: ENDBRANCH  27  30
DOCKED: ENDBRANCH  22  24
DOCKED: ENDBRANCH  19  21
DOCKED: ENDBRANCH   1  19
DOCKED: TORSDOF 9
DOCKED: TER
DOCKED: ENDMDL
________________________________________________________________________________


	BEGINNING GENETIC ALGORITHM DOCKING 40 of 100
Run: 40 Seed: 327726671 1917104750 [ Run 40 of 100 GA/GALS ]
Beginning LAMARCKIAN GENETIC ALGORITHM (LGA), with a maximum of 2500000 energy evaluations.

Final-Value: -16.638


	FINAL GENETIC ALGORITHM DOCKED STATE
	_______________________________________________


Detailed state:  trans 29.896 -18.246 -3.046 quatxyzw 0.291112 -0.622181 0.078866 -0.722444 center 1.436 0.069 -0.007 ntor 9 -134.5264 -180.0000 95.8990 11.0236 -48.1494 179.8738 178.5018 -170.8394 -102.0349
State:	 29.896 -18.246  -3.046   0.421 -0.900  0.114 -87.487   -134.53 -180.00   95.90   11.02  -48.15  179.87  178.50 -170.84 -102.03

DOCKED: MODEL       40
DOCKED: USER    Run = 40
DOCKED: USER    DPF = ligand_dock.biased.dpf
DOCKED: USER  
DOCKED: USER    Estimated Free Energy of Binding    =  -12.81 kcal/mol  [=(1)+(2)+(3)-(4)]
DOCKED: USER    Estimated Inhibition Constant, Ki   =  405.72 pM (picomolar)  [Temperature = 298.15 K]
DOCKED: USER    
DOCKED: USER    (1) Final Intermolecular Energy     =  -15.50 kcal/mol
DOCKED: USER        vdW + Hbond + desolv Energy     =  -15.50 kcal/mol
DOCKED: USER        Electrostatic Energy            =   +0.00 kcal/mol
DOCKED: USER    (2) Final Total Internal Energy     =   -1.14 kcal/mol
DOCKED: USER    (3) Torsional Free Energy           =   +2.68 kcal/mol
DOCKED: USER    (4) Unbound System's Energy  [=(2)] =   -1.14 kcal/mol
DOCKED: USER    
DOCKED: USER    
DOCKED: USER    NEWDPF move ligand.pdbqt
DOCKED: USER    NEWDPF about 1.436000 0.069000 -0.007000
DOCKED: USER    NEWDPF tran0 29.896087 -18.246370 -3.045541
DOCKED: USER    NEWDPF quaternion0 0.291112 -0.622181 0.078866 -0.722444
DOCKED: USER    NEWDPF axisangle0 0.421030 -0.899847 0.114062 -87.486782
DOCKED: USER    NEWDPF quat0 0.421030 -0.899847 0.114062 -87.486782
DOCKED: USER    NEWDPF dihe0 -134.53 -180.00 95.90 11.02 -48.15 179.87 178.50 -170.84 -102.03 
DOCKED: USER  keepresnum = 1 
DOCKED: USER  
DOCKED: REMARK  Name = 
DOCKED: REMARK  11 active torsions:
DOCKED: REMARK  status: ('A' for Active; 'I' for Inactive)
DOCKED: REMARK    1  A    between atoms: C_2  and  O_3
DOCKED: REMARK    2  A    between atoms: O_3  and  C_4
DOCKED: REMARK    3  A    between atoms: C_4  and  C_5
DOCKED: REMARK    4  A    between atoms: C_10  and  C_11
DOCKED: REMARK    5  A    between atoms: C_11  and  N_12
DOCKED: REMARK    6  A    between atoms: N_12  and  C_13
DOCKED: REMARK    7  A    between atoms: N_12  and  C_15
DOCKED: REMARK    8  A    between atoms: C_13  and  C_14
DOCKED: REMARK    9  A    between atoms: C_15  and  C_16
DOCKED: REMARK   10  A    between atoms: N_21  and  C_22
DOCKED: REMARK   11  A    between atoms: C_25  and  C_26
DOCKED: REMARK                            x       y       z     vdW  Elec       q    Type
DOCKED: REMARK                         _______ _______ _______ _____ _____    ______ ____
DOCKED: USER                              x       y       z     vdW  Elec       q    Type
DOCKED: USER                           _______ _______ _______ _____ _____    ______ ____
DOCKED: ROOT
DOCKED: ATOM      1  C   UNL     1      27.877 -15.282  -1.439 -0.25 -0.00    +0.000 C 
DOCKED: ENDROOT
DOCKED: BRANCH   1   2
DOCKED: ATOM      2  C   UNL     1      28.371 -15.626  -2.818 -0.22 -0.00    +0.000 A 
DOCKED: ATOM      3  C   UNL     1      27.823 -15.001  -3.949 -0.29 -0.00    +0.000 A 
DOCKED: ATOM      4  C   UNL     1      28.298 -15.307  -5.227 -0.35 -0.00    +0.000 A 
DOCKED: ATOM      5  C   UNL     1      29.330 -16.242  -5.391 -0.29 -0.00    +0.000 A 
DOCKED: ATOM      6  C   UNL     1      29.817 -16.551  -6.671 -0.09 -0.00    +0.000 A 
DOCKED: ATOM      7  C   UNL     1      30.854 -17.483  -6.829 -0.30 -0.00    +0.000 A 
DOCKED: ATOM      8  C   UNL     1      31.398 -18.113  -5.699 -0.20 -0.00    +0.000 A 
DOCKED: ATOM      9  C   UNL     1      30.919 -17.811  -4.421 -0.20 -0.00    +0.000 A 
DOCKED: ATOM     10  C   UNL     1      29.887 -16.877  -4.257 -0.23 -0.00    +0.000 A 
DOCKED: ATOM     11  C   UNL     1      29.402 -16.565  -2.978 -0.21 -0.00    +0.000 A 
DOCKED: BRANCH   7  12
DOCKED: ATOM     12  C   UNL     1      31.357 -17.820  -8.209 -0.33 -0.00    +0.000 C 
DOCKED: BRANCH  12  13
DOCKED: ATOM     13  N   UNL     1      31.095 -19.238  -8.537 -0.35 -0.00    +0.000 N 
DOCKED: ATOM     14  H   UNL     1      30.085 -19.307  -8.420 -0.11 -0.00    +0.000 HD
DOCKED: BRANCH  13  15
DOCKED: ATOM     15  C   UNL     1      31.297 -19.606  -9.959 -0.37 -0.00    +0.000 C 
DOCKED: ATOM     16  C   UNL     1      30.034 -19.516 -10.830 -0.27 -0.00    +0.000 C 
DOCKED: ENDBRANCH  13  15
DOCKED: BRANCH  13  17
DOCKED: ATOM     17  C   UNL     1      31.609 -20.225  -7.557 -0.27 -0.00    +0.000 C 
DOCKED: ATOM     18  C   UNL     1      30.527 -20.882  -6.697 -0.39 -0.00    +0.000 C 
DOCKED: ENDBRANCH  13  17
DOCKED: ENDBRANCH  12  13
DOCKED: ENDBRANCH   7  12
DOCKED: ENDBRANCH   1   2
DOCKED: BRANCH   1  19
DOCKED: ATOM     19  O   UNL     1      27.834 -16.448  -0.618 -0.37 -0.00    +0.000 OA
DOCKED: BRANCH  19  21
DOCKED: ATOM     20  O   UNL     1      26.674 -18.144   0.438 -0.64 -0.00    +0.000 OA
DOCKED: ATOM     21  C   UNL     1      26.653 -17.140  -0.327 -0.54 -0.00    +0.000 C 
DOCKED: ATOM     22  N   UNL     1      25.415 -16.669  -0.874 -0.51 -0.00    +0.000 N 
DOCKED: ATOM     23  H   UNL     1      25.404 -15.772  -1.279 -0.01 -0.00    +0.000 HD
DOCKED: BRANCH  22  24
DOCKED: ATOM     24  C   UNL     1      24.190 -17.421  -0.872 -0.65 -0.00    +0.000 A 
DOCKED: ATOM     25  C   UNL     1      24.241 -18.819  -0.939 -0.58 -0.00    +0.000 A 
DOCKED: ATOM     26  C   UNL     1      23.065 -19.576  -0.910 -0.43 -0.00    +0.000 A 
DOCKED: ATOM     27  C   UNL     1      21.814 -18.946  -0.799 -0.75 -0.00    +0.000 A 
DOCKED: ATOM     28  C   UNL     1      21.767 -17.545  -0.697 -0.64 -0.00    +0.000 A 
DOCKED: ATOM     29  C   UNL     1      22.942 -16.788  -0.731 -0.40 -0.00    +0.000 A 
DOCKED: BRANCH  27  30
DOCKED: ATOM     30  C   UNL     1      20.558 -19.735  -0.753 -0.85 -0.00    +0.000 C 
DOCKED: ATOM     31  N   UNL     1      20.208 -20.512   0.397 -0.70 -0.00    +0.000 N 
DOCKED: ATOM     32  O   UNL     1      19.010 -21.140   0.454 -0.83 -0.00    +0.000 OA
DOCKED: ATOM     33  O   UNL     1      19.787 -19.736  -1.752 -2.31 -0.00    +0.000 OA
DOCKED: ATOM     34  H   UNL     1      20.839 -20.590   1.149 -0.53 -0.00    +0.000 HD
DOCKED: ENDBRANCH  27  30
DOCKED: ENDBRANCH  22  24
DOCKED: ENDBRANCH  19  21
DOCKED: ENDBRANCH   1  19
DOCKED: TORSDOF 9
DOCKED: TER
DOCKED: ENDMDL
________________________________________________________________________________


	BEGINNING GENETIC ALGORITHM DOCKING 41 of 100
Run: 41 Seed: 1730213335 1417930535 [ Run 41 of 100 GA/GALS ]
Beginning LAMARCKIAN GENETIC ALGORITHM (LGA), with a maximum of 2500000 energy evaluations.

Final-Value: -14.963


	FINAL GENETIC ALGORITHM DOCKED STATE
	_______________________________________________


Detailed state:  trans 28.018 -16.250 -5.011 quatxyzw 0.416568 -0.428220 -0.525661 -0.605622 center 1.436 0.069 -0.007 ntor 9 -129.5045 -49.6379 77.2672 -42.1068 -41.7761 150.2205 -92.5551 -175.0930 -99.0233
State:	 28.018 -16.250  -5.011   0.523 -0.538 -0.661 -105.453   -129.50  -49.64   77.27  -42.11  -41.78  150.22  -92.56 -175.09  -99.02

DOCKED: MODEL       41
DOCKED: USER    Run = 41
DOCKED: USER    DPF = ligand_dock.biased.dpf
DOCKED: USER  
DOCKED: USER    Estimated Free Energy of Binding    =  -10.68 kcal/mol  [=(1)+(2)+(3)-(4)]
DOCKED: USER    Estimated Inhibition Constant, Ki   =   14.76 nM (nanomolar)  [Temperature = 298.15 K]
DOCKED: USER    
DOCKED: USER    (1) Final Intermolecular Energy     =  -13.37 kcal/mol
DOCKED: USER        vdW + Hbond + desolv Energy     =  -13.37 kcal/mol
DOCKED: USER        Electrostatic Energy            =   +0.00 kcal/mol
DOCKED: USER    (2) Final Total Internal Energy     =   -1.59 kcal/mol
DOCKED: USER    (3) Torsional Free Energy           =   +2.68 kcal/mol
DOCKED: USER    (4) Unbound System's Energy  [=(2)] =   -1.59 kcal/mol
DOCKED: USER    
DOCKED: USER    
DOCKED: USER    NEWDPF move ligand.pdbqt
DOCKED: USER    NEWDPF about 1.436000 0.069000 -0.007000
DOCKED: USER    NEWDPF tran0 28.018478 -16.250397 -5.010653
DOCKED: USER    NEWDPF quaternion0 0.416568 -0.428220 -0.525661 -0.605622
DOCKED: USER    NEWDPF axisangle0 0.523490 -0.538133 -0.660584 -105.452733
DOCKED: USER    NEWDPF quat0 0.523490 -0.538133 -0.660584 -105.452733
DOCKED: USER    NEWDPF dihe0 -129.50 -49.64 77.27 -42.11 -41.78 150.22 -92.56 -175.09 -99.02 
DOCKED: USER  keepresnum = 1 
DOCKED: USER  
DOCKED: REMARK  Name = 
DOCKED: REMARK  11 active torsions:
DOCKED: REMARK  status: ('A' for Active; 'I' for Inactive)
DOCKED: REMARK    1  A    between atoms: C_2  and  O_3
DOCKED: REMARK    2  A    between atoms: O_3  and  C_4
DOCKED: REMARK    3  A    between atoms: C_4  and  C_5
DOCKED: REMARK    4  A    between atoms: C_10  and  C_11
DOCKED: REMARK    5  A    between atoms: C_11  and  N_12
DOCKED: REMARK    6  A    between atoms: N_12  and  C_13
DOCKED: REMARK    7  A    between atoms: N_12  and  C_15
DOCKED: REMARK    8  A    between atoms: C_13  and  C_14
DOCKED: REMARK    9  A    between atoms: C_15  and  C_16
DOCKED: REMARK   10  A    between atoms: N_21  and  C_22
DOCKED: REMARK   11  A    between atoms: C_25  and  C_26
DOCKED: REMARK                            x       y       z     vdW  Elec       q    Type
DOCKED: REMARK                         _______ _______ _______ _____ _____    ______ ____
DOCKED: USER                              x       y       z     vdW  Elec       q    Type
DOCKED: USER                           _______ _______ _______ _____ _____    ______ ____
DOCKED: ROOT
DOCKED: ATOM      1  C   UNL     1      28.877 -16.222  -1.175 -0.26 -0.00    +0.000 C 
DOCKED: ENDROOT
DOCKED: BRANCH   1   2
DOCKED: ATOM      2  C   UNL     1      28.824 -15.197  -2.275 -0.15 -0.00    +0.000 A 
DOCKED: ATOM      3  C   UNL     1      28.818 -13.826  -1.972 -0.08 -0.00    +0.000 A 
DOCKED: ATOM      4  C   UNL     1      28.790 -12.875  -2.996 -0.07 -0.00    +0.000 A 
DOCKED: ATOM      5  C   UNL     1      28.772 -13.283  -4.337 -0.11 -0.00    +0.000 A 
DOCKED: ATOM      6  C   UNL     1      28.749 -12.334  -5.372 -0.11 -0.00    +0.000 A 
DOCKED: ATOM      7  C   UNL     1      28.736 -12.747  -6.713 -0.21 -0.00    +0.000 A 
DOCKED: ATOM      8  C   UNL     1      28.737 -14.118  -7.016 -0.29 -0.00    +0.000 A 
DOCKED: ATOM      9  C   UNL     1      28.759 -15.069  -5.992 -0.36 -0.00    +0.000 A 
DOCKED: ATOM     10  C   UNL     1      28.777 -14.662  -4.651 -0.22 -0.00    +0.000 A 
DOCKED: ATOM     11  C   UNL     1      28.803 -15.609  -3.616 -0.22 -0.00    +0.000 A 
DOCKED: BRANCH   7  12
DOCKED: ATOM     12  C   UNL     1      28.696 -11.721  -7.816 -0.19 -0.00    +0.000 C 
DOCKED: BRANCH  12  13
DOCKED: ATOM     13  N   UNL     1      27.382 -11.724  -8.495 -0.23 -0.00    +0.000 N 
DOCKED: ATOM     14  H   UNL     1      26.855 -12.406  -7.950 +0.05 -0.00    +0.000 HD
DOCKED: BRANCH  13  15
DOCKED: ATOM     15  C   UNL     1      26.588 -10.482  -8.341 -0.21 -0.00    +0.000 C 
DOCKED: ATOM     16  C   UNL     1      25.694 -10.443  -7.091 -0.27 -0.00    +0.000 C 
DOCKED: ENDBRANCH  13  15
DOCKED: BRANCH  13  17
DOCKED: ATOM     17  C   UNL     1      27.370 -12.310  -9.857 -0.34 -0.00    +0.000 C 
DOCKED: ATOM     18  C   UNL     1      26.851 -11.366 -10.945 -0.38 -0.00    +0.000 C 
DOCKED: ENDBRANCH  13  17
DOCKED: ENDBRANCH  12  13
DOCKED: ENDBRANCH   7  12
DOCKED: ENDBRANCH   1   2
DOCKED: BRANCH   1  19
DOCKED: ATOM     19  O   UNL     1      28.117 -17.376  -1.532 -0.40 -0.00    +0.000 OA
DOCKED: BRANCH  19  21
DOCKED: ATOM     20  O   UNL     1      26.799 -18.372   0.084 -0.65 -0.00    +0.000 OA
DOCKED: ATOM     21  C   UNL     1      26.872 -17.680  -0.970 -0.48 -0.00    +0.000 C 
DOCKED: ATOM     22  N   UNL     1      25.685 -17.161  -1.582 -0.54 -0.00    +0.000 N 
DOCKED: ATOM     23  H   UNL     1      25.788 -16.456  -2.261 -0.02 -0.00    +0.000 HD
DOCKED: BRANCH  22  24
DOCKED: ATOM     24  C   UNL     1      24.353 -17.603  -1.270 -0.65 -0.00    +0.000 A 
DOCKED: ATOM     25  C   UNL     1      24.006 -18.944  -1.479 -0.40 -0.00    +0.000 A 
DOCKED: ATOM     26  C   UNL     1      22.726 -19.406  -1.158 -0.54 -0.00    +0.000 A 
DOCKED: ATOM     27  C   UNL     1      21.770 -18.535  -0.607 -0.76 -0.00    +0.000 A 
DOCKED: ATOM     28  C   UNL     1      22.131 -17.198  -0.365 -0.63 -0.00    +0.000 A 
DOCKED: ATOM     29  C   UNL     1      23.409 -16.735  -0.691 -0.42 -0.00    +0.000 A 
DOCKED: BRANCH  27  30
DOCKED: ATOM     30  C   UNL     1      20.412 -19.013  -0.247 -0.75 -0.00    +0.000 C 
DOCKED: ATOM     31  N   UNL     1      20.222 -20.152   0.599 -0.70 -0.00    +0.000 N 
DOCKED: ATOM     32  O   UNL     1      18.977 -20.506   0.993 -0.79 -0.00    +0.000 OA
DOCKED: ATOM     33  O   UNL     1      19.401 -18.414  -0.707 -1.41 -0.00    +0.000 OA
DOCKED: ATOM     34  H   UNL     1      20.999 -20.680   0.894 -0.59 -0.00    +0.000 HD
DOCKED: ENDBRANCH  27  30
DOCKED: ENDBRANCH  22  24
DOCKED: ENDBRANCH  19  21
DOCKED: ENDBRANCH   1  19
DOCKED: TORSDOF 9
DOCKED: TER
DOCKED: ENDMDL
________________________________________________________________________________


	BEGINNING GENETIC ALGORITHM DOCKING 42 of 100
Run: 42 Seed: 681199031 185300153 [ Run 42 of 100 GA/GALS ]
Beginning LAMARCKIAN GENETIC ALGORITHM (LGA), with a maximum of 2500000 energy evaluations.

Final-Value: -14.264


	FINAL GENETIC ALGORITHM DOCKED STATE
	_______________________________________________


Detailed state:  trans 27.656 -14.063 -2.582 quatxyzw -0.227092 -0.411034 -0.837979 -0.277975 center 1.436 0.069 -0.007 ntor 9 90.1400 -141.8598 -36.9096 154.5420 159.7763 93.8806 -144.0703 -3.5129 178.6841
State:	 27.656 -14.063  -2.582  -0.236 -0.428 -0.872 -147.721     90.14 -141.86  -36.91  154.54  159.78   93.88 -144.07   -3.51  178.68

DOCKED: MODEL       42
DOCKED: USER    Run = 42
DOCKED: USER    DPF = ligand_dock.biased.dpf
DOCKED: USER  
DOCKED: USER    Estimated Free Energy of Binding    =   -9.83 kcal/mol  [=(1)+(2)+(3)-(4)]
DOCKED: USER    Estimated Inhibition Constant, Ki   =   61.91 nM (nanomolar)  [Temperature = 298.15 K]
DOCKED: USER    
DOCKED: USER    (1) Final Intermolecular Energy     =  -12.52 kcal/mol
DOCKED: USER        vdW + Hbond + desolv Energy     =  -12.52 kcal/mol
DOCKED: USER        Electrostatic Energy            =   +0.00 kcal/mol
DOCKED: USER    (2) Final Total Internal Energy     =   -1.75 kcal/mol
DOCKED: USER    (3) Torsional Free Energy           =   +2.68 kcal/mol
DOCKED: USER    (4) Unbound System's Energy  [=(2)] =   -1.75 kcal/mol
DOCKED: USER    
DOCKED: USER    
DOCKED: USER    NEWDPF move ligand.pdbqt
DOCKED: USER    NEWDPF about 1.436000 0.069000 -0.007000
DOCKED: USER    NEWDPF tran0 27.656035 -14.063028 -2.581634
DOCKED: USER    NEWDPF quaternion0 -0.227092 -0.411034 -0.837979 -0.277975
DOCKED: USER    NEWDPF axisangle0 -0.236410 -0.427899 -0.872361 -147.721184
DOCKED: USER    NEWDPF quat0 -0.236410 -0.427899 -0.872361 -147.721184
DOCKED: USER    NEWDPF dihe0 90.14 -141.86 -36.91 154.54 159.78 93.88 -144.07 -3.51 178.68 
DOCKED: USER  keepresnum = 1 
DOCKED: USER  
DOCKED: REMARK  Name = 
DOCKED: REMARK  11 active torsions:
DOCKED: REMARK  status: ('A' for Active; 'I' for Inactive)
DOCKED: REMARK    1  A    between atoms: C_2  and  O_3
DOCKED: REMARK    2  A    between atoms: O_3  and  C_4
DOCKED: REMARK    3  A    between atoms: C_4  and  C_5
DOCKED: REMARK    4  A    between atoms: C_10  and  C_11
DOCKED: REMARK    5  A    between atoms: C_11  and  N_12
DOCKED: REMARK    6  A    between atoms: N_12  and  C_13
DOCKED: REMARK    7  A    between atoms: N_12  and  C_15
DOCKED: REMARK    8  A    between atoms: C_13  and  C_14
DOCKED: REMARK    9  A    between atoms: C_15  and  C_16
DOCKED: REMARK   10  A    between atoms: N_21  and  C_22
DOCKED: REMARK   11  A    between atoms: C_25  and  C_26
DOCKED: REMARK                            x       y       z     vdW  Elec       q    Type
DOCKED: REMARK                         _______ _______ _______ _____ _____    ______ ____
DOCKED: USER                              x       y       z     vdW  Elec       q    Type
DOCKED: USER                           _______ _______ _______ _____ _____    ______ ____
DOCKED: ROOT
DOCKED: ATOM      1  C   UNL     1      29.986 -15.919  -0.017 -0.16 -0.00    +0.000 C 
DOCKED: ENDROOT
DOCKED: BRANCH   1   2
DOCKED: ATOM      2  C   UNL     1      30.135 -15.381  -1.415 -0.09 -0.00    +0.000 A 
DOCKED: ATOM      3  C   UNL     1      30.408 -14.021  -1.630 -0.03 -0.00    +0.000 A 
DOCKED: ATOM      4  C   UNL     1      30.567 -13.527  -2.928 -0.02 -0.00    +0.000 A 
DOCKED: ATOM      5  C   UNL     1      30.458 -14.390  -4.028 -0.06 -0.00    +0.000 A 
DOCKED: ATOM      6  C   UNL     1      30.622 -13.904  -5.335 -0.08 -0.00    +0.000 A 
DOCKED: ATOM      7  C   UNL     1      30.517 -14.771  -6.433 -0.20 -0.00    +0.000 A 
DOCKED: ATOM      8  C   UNL     1      30.238 -16.130  -6.218 -0.29 -0.00    +0.000 A 
DOCKED: ATOM      9  C   UNL     1      30.073 -16.622  -4.921 -0.25 -0.00    +0.000 A 
DOCKED: ATOM     10  C   UNL     1      30.182 -15.761  -3.820 -0.13 -0.00    +0.000 A 
DOCKED: ATOM     11  C   UNL     1      30.021 -16.247  -2.513 -0.14 -0.00    +0.000 A 
DOCKED: BRANCH   7  12
DOCKED: ATOM     12  C   UNL     1      30.678 -14.236  -7.832 -0.16 -0.00    +0.000 C 
DOCKED: BRANCH  12  13
DOCKED: ATOM     13  N   UNL     1      32.084 -14.339  -8.281 -0.15 -0.00    +0.000 N 
DOCKED: ATOM     14  H   UNL     1      32.122 -13.658  -9.040 -0.03 -0.00    +0.000 HD
DOCKED: BRANCH  13  15
DOCKED: ATOM     15  C   UNL     1      33.092 -13.832  -7.320 -0.05 -0.00    +0.000 C 
DOCKED: ATOM     16  C   UNL     1      34.278 -14.779  -7.077 -0.02 -0.00    +0.000 C 
DOCKED: ENDBRANCH  13  15
DOCKED: BRANCH  13  17
DOCKED: ATOM     17  C   UNL     1      32.446 -15.607  -8.958 -0.19 -0.00    +0.000 C 
DOCKED: ATOM     18  C   UNL     1      33.463 -15.449 -10.091 -0.15 -0.00    +0.000 C 
DOCKED: ENDBRANCH  13  17
DOCKED: ENDBRANCH  12  13
DOCKED: ENDBRANCH   7  12
DOCKED: ENDBRANCH   1   2
DOCKED: BRANCH   1  19
DOCKED: ATOM     19  O   UNL     1      28.870 -15.313   0.634 -0.23 -0.00    +0.000 OA
DOCKED: BRANCH  19  21
DOCKED: ATOM     20  O   UNL     1      26.733 -14.531   0.237 -0.35 -0.00    +0.000 OA
DOCKED: ATOM     21  C   UNL     1      27.546 -15.496   0.221 -0.32 -0.00    +0.000 C 
DOCKED: ATOM     22  N   UNL     1      27.137 -16.783  -0.261 -0.42 -0.00    +0.000 N 
DOCKED: ATOM     23  H   UNL     1      27.839 -17.441  -0.465 -0.10 -0.00    +0.000 HD
DOCKED: BRANCH  22  24
DOCKED: ATOM     24  C   UNL     1      25.769 -17.174  -0.466 -0.51 -0.00    +0.000 A 
DOCKED: ATOM     25  C   UNL     1      25.234 -18.226   0.290 -0.45 -0.00    +0.000 A 
DOCKED: ATOM     26  C   UNL     1      23.898 -18.608   0.130 -0.40 -0.00    +0.000 A 
DOCKED: ATOM     27  C   UNL     1      23.067 -17.934  -0.782 -0.72 -0.00    +0.000 A 
DOCKED: ATOM     28  C   UNL     1      23.596 -16.857  -1.514 -0.25 -0.00    +0.000 A 
DOCKED: ATOM     29  C   UNL     1      24.933 -16.478  -1.358 -0.53 -0.00    +0.000 A 
DOCKED: BRANCH  27  30
DOCKED: ATOM     30  C   UNL     1      21.644 -18.319  -0.953 -0.77 -0.00    +0.000 C 
DOCKED: ATOM     31  N   UNL     1      21.274 -19.626  -1.403 -0.69 -0.00    +0.000 N 
DOCKED: ATOM     32  O   UNL     1      19.970 -19.983  -1.453 -2.14 -0.00    +0.000 OA
DOCKED: ATOM     33  O   UNL     1      20.739 -17.473  -0.712 -2.06 +0.00    +0.000 OA
DOCKED: ATOM     34  H   UNL     1      21.969 -20.268  -1.676 -0.40 -0.00    +0.000 HD
DOCKED: ENDBRANCH  27  30
DOCKED: ENDBRANCH  22  24
DOCKED: ENDBRANCH  19  21
DOCKED: ENDBRANCH   1  19
DOCKED: TORSDOF 9
DOCKED: TER
DOCKED: ENDMDL
________________________________________________________________________________


	BEGINNING GENETIC ALGORITHM DOCKING 43 of 100
Run: 43 Seed: 759440841 1146613550 [ Run 43 of 100 GA/GALS ]
Beginning LAMARCKIAN GENETIC ALGORITHM (LGA), with a maximum of 2500000 energy evaluations.

Final-Value: -16.499


	FINAL GENETIC ALGORITHM DOCKED STATE
	_______________________________________________


Detailed state:  trans 27.943 -16.908 -4.322 quatxyzw 0.331871 0.603741 0.681507 0.246793 center 1.436 0.069 -0.007 ntor 9 -144.2270 62.3564 108.5708 -108.8602 136.9503 -116.9894 -102.5466 -16.7388 163.5530
State:	 27.943 -16.908  -4.322   0.342  0.623  0.703 151.424   -144.23   62.36  108.57 -108.86  136.95 -116.99 -102.55  -16.74  163.55

DOCKED: MODEL       43
DOCKED: USER    Run = 43
DOCKED: USER    DPF = ligand_dock.biased.dpf
DOCKED: USER  
DOCKED: USER    Estimated Free Energy of Binding    =  -12.13 kcal/mol  [=(1)+(2)+(3)-(4)]
DOCKED: USER    Estimated Inhibition Constant, Ki   =    1.29 nM (nanomolar)  [Temperature = 298.15 K]
DOCKED: USER    
DOCKED: USER    (1) Final Intermolecular Energy     =  -14.81 kcal/mol
DOCKED: USER        vdW + Hbond + desolv Energy     =  -14.81 kcal/mol
DOCKED: USER        Electrostatic Energy            =   +0.00 kcal/mol
DOCKED: USER    (2) Final Total Internal Energy     =   -1.69 kcal/mol
DOCKED: USER    (3) Torsional Free Energy           =   +2.68 kcal/mol
DOCKED: USER    (4) Unbound System's Energy  [=(2)] =   -1.69 kcal/mol
DOCKED: USER    
DOCKED: USER    
DOCKED: USER    NEWDPF move ligand.pdbqt
DOCKED: USER    NEWDPF about 1.436000 0.069000 -0.007000
DOCKED: USER    NEWDPF tran0 27.943332 -16.907557 -4.321872
DOCKED: USER    NEWDPF quaternion0 0.331871 0.603741 0.681507 0.246793
DOCKED: USER    NEWDPF axisangle0 0.342464 0.623012 0.703260 151.424320
DOCKED: USER    NEWDPF quat0 0.342464 0.623012 0.703260 151.424320
DOCKED: USER    NEWDPF dihe0 -144.23 62.36 108.57 -108.86 136.95 -116.99 -102.55 -16.74 163.55 
DOCKED: USER  keepresnum = 1 
DOCKED: USER  
DOCKED: REMARK  Name = 
DOCKED: REMARK  11 active torsions:
DOCKED: REMARK  status: ('A' for Active; 'I' for Inactive)
DOCKED: REMARK    1  A    between atoms: C_2  and  O_3
DOCKED: REMARK    2  A    between atoms: O_3  and  C_4
DOCKED: REMARK    3  A    between atoms: C_4  and  C_5
DOCKED: REMARK    4  A    between atoms: C_10  and  C_11
DOCKED: REMARK    5  A    between atoms: C_11  and  N_12
DOCKED: REMARK    6  A    between atoms: N_12  and  C_13
DOCKED: REMARK    7  A    between atoms: N_12  and  C_15
DOCKED: REMARK    8  A    between atoms: C_13  and  C_14
DOCKED: REMARK    9  A    between atoms: C_15  and  C_16
DOCKED: REMARK   10  A    between atoms: N_21  and  C_22
DOCKED: REMARK   11  A    between atoms: C_25  and  C_26
DOCKED: REMARK                            x       y       z     vdW  Elec       q    Type
DOCKED: REMARK                         _______ _______ _______ _____ _____    ______ ____
DOCKED: USER                              x       y       z     vdW  Elec       q    Type
DOCKED: USER                           _______ _______ _______ _____ _____    ______ ____
DOCKED: ROOT
DOCKED: ATOM      1  C   UNL     1      30.633 -17.196  -1.471 -0.18 -0.00    +0.000 C 
DOCKED: ENDROOT
DOCKED: BRANCH   1   2
DOCKED: ATOM      2  C   UNL     1      30.606 -17.440  -2.955 -0.16 -0.00    +0.000 A 
DOCKED: ATOM      3  C   UNL     1      30.450 -16.370  -3.851 -0.15 -0.00    +0.000 A 
DOCKED: ATOM      4  C   UNL     1      30.447 -16.596  -5.230 -0.23 -0.00    +0.000 A 
DOCKED: ATOM      5  C   UNL     1      30.603 -17.896  -5.732 -0.29 -0.00    +0.000 A 
DOCKED: ATOM      6  C   UNL     1      30.606 -18.132  -7.116 -0.29 -0.00    +0.000 A 
DOCKED: ATOM      7  C   UNL     1      30.768 -19.433  -7.614 -0.37 -0.00    +0.000 A 
DOCKED: ATOM      8  C   UNL     1      30.919 -20.504  -6.718 -0.35 -0.00    +0.000 A 
DOCKED: ATOM      9  C   UNL     1      30.917 -20.279  -5.339 -0.31 -0.00    +0.000 A 
DOCKED: ATOM     10  C   UNL     1      30.761 -18.980  -4.837 -0.26 -0.00    +0.000 A 
DOCKED: ATOM     11  C   UNL     1      30.760 -18.743  -3.453 -0.01 -0.00    +0.000 A 
DOCKED: BRANCH   7  12
DOCKED: ATOM     12  C   UNL     1      30.754 -19.678  -9.101 -0.40 -0.00    +0.000 C 
DOCKED: BRANCH  12  13
DOCKED: ATOM     13  N   UNL     1      31.960 -19.111  -9.743 -0.24 -0.00    +0.000 N 
DOCKED: ATOM     14  H   UNL     1      31.859 -18.114  -9.558 -0.02 -0.00    +0.000 HD
DOCKED: BRANCH  13  15
DOCKED: ATOM     15  C   UNL     1      33.244 -19.450  -9.085 -0.09 -0.00    +0.000 C 
DOCKED: ATOM     16  C   UNL     1      33.839 -18.323  -8.224 -0.05 -0.00    +0.000 C 
DOCKED: ENDBRANCH  13  15
DOCKED: BRANCH  13  17
DOCKED: ATOM     17  C   UNL     1      31.982 -19.172 -11.224 -0.27 -0.00    +0.000 C 
DOCKED: ATOM     18  C   UNL     1      30.882 -20.044 -11.837 -0.37 -0.00    +0.000 C 
DOCKED: ENDBRANCH  13  17
DOCKED: ENDBRANCH  12  13
DOCKED: ENDBRANCH   7  12
DOCKED: ENDBRANCH   1   2
DOCKED: BRANCH   1  19
DOCKED: ATOM     19  O   UNL     1      29.552 -16.350  -1.084 -0.21 -0.00    +0.000 OA
DOCKED: BRANCH  19  21
DOCKED: ATOM     20  O   UNL     1      27.688 -16.002  -2.404 -0.32 -0.00    +0.000 OA
DOCKED: ATOM     21  C   UNL     1      28.219 -16.600  -1.428 -0.34 -0.00    +0.000 C 
DOCKED: ATOM     22  N   UNL     1      27.478 -17.575  -0.683 -0.46 -0.00    +0.000 N 
DOCKED: ATOM     23  H   UNL     1      27.979 -18.171  -0.081 -0.47 -0.00    +0.000 HD
DOCKED: BRANCH  22  24
DOCKED: ATOM     24  C   UNL     1      26.052 -17.739  -0.757 -0.55 -0.00    +0.000 A 
DOCKED: ATOM     25  C   UNL     1      25.391 -17.476  -1.964 -0.42 -0.00    +0.000 A 
DOCKED: ATOM     26  C   UNL     1      24.008 -17.654  -2.071 -0.20 -0.00    +0.000 A 
DOCKED: ATOM     27  C   UNL     1      23.260 -18.112  -0.973 -0.72 -0.00    +0.000 A 
DOCKED: ATOM     28  C   UNL     1      23.930 -18.408   0.227 -0.41 -0.00    +0.000 A 
DOCKED: ATOM     29  C   UNL     1      25.312 -18.226   0.336 -0.43 -0.00    +0.000 A 
DOCKED: BRANCH  27  30
DOCKED: ATOM     30  C   UNL     1      21.794 -18.319  -1.074 -0.75 -0.00    +0.000 C 
DOCKED: ATOM     31  N   UNL     1      21.248 -19.535  -1.596 -0.67 -0.00    +0.000 N 
DOCKED: ATOM     32  O   UNL     1      19.910 -19.739  -1.583 -2.31 -0.00    +0.000 OA
DOCKED: ATOM     33  O   UNL     1      21.010 -17.401  -0.708 -2.01 +0.00    +0.000 OA
DOCKED: ATOM     34  H   UNL     1      21.846 -20.225  -1.964 -0.49 -0.00    +0.000 HD
DOCKED: ENDBRANCH  27  30
DOCKED: ENDBRANCH  22  24
DOCKED: ENDBRANCH  19  21
DOCKED: ENDBRANCH   1  19
DOCKED: TORSDOF 9
DOCKED: TER
DOCKED: ENDMDL
________________________________________________________________________________


	BEGINNING GENETIC ALGORITHM DOCKING 44 of 100
Run: 44 Seed: 641581898 1198239342 [ Run 44 of 100 GA/GALS ]
Beginning LAMARCKIAN GENETIC ALGORITHM (LGA), with a maximum of 2500000 energy evaluations.

Final-Value: -14.865


	FINAL GENETIC ALGORITHM DOCKED STATE
	_______________________________________________


Detailed state:  trans 27.061 -13.314 -0.927 quatxyzw 0.523909 0.174308 -0.782957 -0.286554 center 1.436 0.069 -0.007 ntor 9 -164.1990 152.0311 115.3671 -173.8038 -20.7260 171.4116 -35.3330 -149.2313 -5.1656
State:	 27.061 -13.314  -0.927   0.547  0.182 -0.817 -146.696   -164.20  152.03  115.37 -173.80  -20.73  171.41  -35.33 -149.23   -5.17

DOCKED: MODEL       44
DOCKED: USER    Run = 44
DOCKED: USER    DPF = ligand_dock.biased.dpf
DOCKED: USER  
DOCKED: USER    Estimated Free Energy of Binding    =  -10.60 kcal/mol  [=(1)+(2)+(3)-(4)]
DOCKED: USER    Estimated Inhibition Constant, Ki   =   16.95 nM (nanomolar)  [Temperature = 298.15 K]
DOCKED: USER    
DOCKED: USER    (1) Final Intermolecular Energy     =  -13.29 kcal/mol
DOCKED: USER        vdW + Hbond + desolv Energy     =  -13.29 kcal/mol
DOCKED: USER        Electrostatic Energy            =   +0.00 kcal/mol
DOCKED: USER    (2) Final Total Internal Energy     =   -1.58 kcal/mol
DOCKED: USER    (3) Torsional Free Energy           =   +2.68 kcal/mol
DOCKED: USER    (4) Unbound System's Energy  [=(2)] =   -1.58 kcal/mol
DOCKED: USER    
DOCKED: USER    
DOCKED: USER    NEWDPF move ligand.pdbqt
DOCKED: USER    NEWDPF about 1.436000 0.069000 -0.007000
DOCKED: USER    NEWDPF tran0 27.060989 -13.313626 -0.927432
DOCKED: USER    NEWDPF quaternion0 0.523909 0.174308 -0.782957 -0.286554
DOCKED: USER    NEWDPF axisangle0 0.546842 0.181937 -0.817229 -146.696430
DOCKED: USER    NEWDPF quat0 0.546842 0.181937 -0.817229 -146.696430
DOCKED: USER    NEWDPF dihe0 -164.20 152.03 115.37 -173.80 -20.73 171.41 -35.33 -149.23 -5.17 
DOCKED: USER  keepresnum = 1 
DOCKED: USER  
DOCKED: REMARK  Name = 
DOCKED: REMARK  11 active torsions:
DOCKED: REMARK  status: ('A' for Active; 'I' for Inactive)
DOCKED: REMARK    1  A    between atoms: C_2  and  O_3
DOCKED: REMARK    2  A    between atoms: O_3  and  C_4
DOCKED: REMARK    3  A    between atoms: C_4  and  C_5
DOCKED: REMARK    4  A    between atoms: C_10  and  C_11
DOCKED: REMARK    5  A    between atoms: C_11  and  N_12
DOCKED: REMARK    6  A    between atoms: N_12  and  C_13
DOCKED: REMARK    7  A    between atoms: N_12  and  C_15
DOCKED: REMARK    8  A    between atoms: C_13  and  C_14
DOCKED: REMARK    9  A    between atoms: C_15  and  C_16
DOCKED: REMARK   10  A    between atoms: N_21  and  C_22
DOCKED: REMARK   11  A    between atoms: C_25  and  C_26
DOCKED: REMARK                            x       y       z     vdW  Elec       q    Type
DOCKED: REMARK                         _______ _______ _______ _____ _____    ______ ____
DOCKED: USER                              x       y       z     vdW  Elec       q    Type
DOCKED: USER                           _______ _______ _______ _____ _____    ______ ____
DOCKED: ROOT
DOCKED: ATOM      1  C   UNL     1      29.228 -16.591  -1.036 -0.26 -0.00    +0.000 C 
DOCKED: ENDROOT
DOCKED: BRANCH   1   2
DOCKED: ATOM      2  C   UNL     1      29.170 -15.366  -0.164 -0.16 -0.00    +0.000 A 
DOCKED: ATOM      3  C   UNL     1      30.103 -14.330  -0.327 -0.07 -0.00    +0.000 A 
DOCKED: ATOM      4  C   UNL     1      30.035 -13.184   0.470 -0.05 -0.00    +0.000 A 
DOCKED: ATOM      5  C   UNL     1      29.029 -13.057   1.439 -0.11 -0.00    +0.000 A 
DOCKED: ATOM      6  C   UNL     1      28.949 -11.908   2.239 -0.09 -0.00    +0.000 A 
DOCKED: ATOM      7  C   UNL     1      27.937 -11.783   3.204 -0.23 +0.00    +0.000 A 
DOCKED: ATOM      8  C   UNL     1      27.008 -12.821   3.370 -0.15 -0.00    +0.000 A 
DOCKED: ATOM      9  C   UNL     1      27.079 -13.970   2.577 -0.07 -0.00    +0.000 A 
DOCKED: ATOM     10  C   UNL     1      28.084 -14.097   1.609 -0.24 -0.00    +0.000 A 
DOCKED: ATOM     11  C   UNL     1      28.163 -15.245   0.806 -0.14 -0.00    +0.000 A 
DOCKED: BRANCH   7  12
DOCKED: ATOM     12  C   UNL     1      27.871 -10.551   4.070 -0.30 +0.00    +0.000 C 
DOCKED: BRANCH  12  13
DOCKED: ATOM     13  N   UNL     1      28.693 -10.715   5.289 -0.25 +0.00    +0.000 N 
DOCKED: ATOM     14  H   UNL     1      28.035 -10.476   6.030 -0.03 +0.00    +0.000 HD
DOCKED: BRANCH  13  15
DOCKED: ATOM     15  C   UNL     1      29.074 -12.111   5.611 -0.31 -0.00    +0.000 C 
DOCKED: ATOM     16  C   UNL     1      28.625 -12.593   7.000 -0.42 -0.00    +0.000 C 
DOCKED: ENDBRANCH  13  15
DOCKED: BRANCH  13  17
DOCKED: ATOM     17  C   UNL     1      29.772  -9.714   5.470 -0.13 +0.00    +0.000 C 
DOCKED: ATOM     18  C   UNL     1      29.294  -8.361   6.001 -0.18 +0.00    +0.000 C 
DOCKED: ENDBRANCH  13  17
DOCKED: ENDBRANCH  12  13
DOCKED: ENDBRANCH   7  12
DOCKED: ENDBRANCH   1   2
DOCKED: BRANCH   1  19
DOCKED: ATOM     19  O   UNL     1      28.007 -16.748  -1.758 -0.36 -0.00    +0.000 OA
DOCKED: BRANCH  19  21
DOCKED: ATOM     20  O   UNL     1      26.935 -18.199  -0.314 -0.64 -0.00    +0.000 OA
DOCKED: ATOM     21  C   UNL     1      26.850 -17.304  -1.201 -0.49 -0.00    +0.000 C 
DOCKED: ATOM     22  N   UNL     1      25.570 -16.815  -1.619 -0.53 -0.00    +0.000 N 
DOCKED: ATOM     23  H   UNL     1      25.544 -15.979  -2.138 -0.01 -0.00    +0.000 HD
DOCKED: BRANCH  22  24
DOCKED: ATOM     24  C   UNL     1      24.320 -17.464  -1.328 -0.64 -0.00    +0.000 A 
DOCKED: ATOM     25  C   UNL     1      24.243 -18.862  -1.382 -0.27 -0.00    +0.000 A 
DOCKED: ATOM     26  C   UNL     1      23.047 -19.520  -1.077 -0.48 -0.00    +0.000 A 
DOCKED: ATOM     27  C   UNL     1      21.907 -18.790  -0.700 -0.76 -0.00    +0.000 A 
DOCKED: ATOM     28  C   UNL     1      21.996 -17.390  -0.613 -0.63 -0.00    +0.000 A 
DOCKED: ATOM     29  C   UNL     1      23.190 -16.732  -0.923 -0.34 -0.00    +0.000 A 
DOCKED: BRANCH  27  30
DOCKED: ATOM     30  C   UNL     1      20.634 -19.474  -0.360 -0.87 -0.00    +0.000 C 
DOCKED: ATOM     31  N   UNL     1      20.333 -19.863   0.984 -0.66 -0.00    +0.000 N 
DOCKED: ATOM     32  O   UNL     1      19.125 -20.393   1.284 -0.76 -0.00    +0.000 OA
DOCKED: ATOM     33  O   UNL     1      19.805 -19.733  -1.275 -2.11 -0.00    +0.000 OA
DOCKED: ATOM     34  H   UNL     1      21.007 -19.745   1.693 -0.53 -0.00    +0.000 HD
DOCKED: ENDBRANCH  27  30
DOCKED: ENDBRANCH  22  24
DOCKED: ENDBRANCH  19  21
DOCKED: ENDBRANCH   1  19
DOCKED: TORSDOF 9
DOCKED: TER
DOCKED: ENDMDL
________________________________________________________________________________


	BEGINNING GENETIC ALGORITHM DOCKING 45 of 100
Run: 45 Seed: 1032377417 904684253 [ Run 45 of 100 GA/GALS ]
Beginning LAMARCKIAN GENETIC ALGORITHM (LGA), with a maximum of 2500000 energy evaluations.

Final-Value: -15.882


	FINAL GENETIC ALGORITHM DOCKED STATE
	_______________________________________________


Detailed state:  trans 28.064 -12.877 0.642 quatxyzw 0.652756 0.342942 -0.674161 -0.042504 center 1.436 0.069 -0.007 ntor 9 -63.2260 54.1647 -158.3813 -54.2745 117.8540 178.8185 -160.1263 -155.5229 -45.5158
State:	 28.064 -12.877   0.642   0.653  0.343 -0.675 -175.128    -63.23   54.16 -158.38  -54.27  117.85  178.82 -160.13 -155.52  -45.52

DOCKED: MODEL       45
DOCKED: USER    Run = 45
DOCKED: USER    DPF = ligand_dock.biased.dpf
DOCKED: USER  
DOCKED: USER    Estimated Free Energy of Binding    =  -11.41 kcal/mol  [=(1)+(2)+(3)-(4)]
DOCKED: USER    Estimated Inhibition Constant, Ki   =    4.34 nM (nanomolar)  [Temperature = 298.15 K]
DOCKED: USER    
DOCKED: USER    (1) Final Intermolecular Energy     =  -14.09 kcal/mol
DOCKED: USER        vdW + Hbond + desolv Energy     =  -14.09 kcal/mol
DOCKED: USER        Electrostatic Energy            =   +0.00 kcal/mol
DOCKED: USER    (2) Final Total Internal Energy     =   -1.79 kcal/mol
DOCKED: USER    (3) Torsional Free Energy           =   +2.68 kcal/mol
DOCKED: USER    (4) Unbound System's Energy  [=(2)] =   -1.79 kcal/mol
DOCKED: USER    
DOCKED: USER    
DOCKED: USER    NEWDPF move ligand.pdbqt
DOCKED: USER    NEWDPF about 1.436000 0.069000 -0.007000
DOCKED: USER    NEWDPF tran0 28.064251 -12.877412 0.641627
DOCKED: USER    NEWDPF quaternion0 0.652756 0.342942 -0.674161 -0.042504
DOCKED: USER    NEWDPF axisangle0 0.653347 0.343252 -0.674771 -175.127945
DOCKED: USER    NEWDPF quat0 0.653347 0.343252 -0.674771 -175.127945
DOCKED: USER    NEWDPF dihe0 -63.23 54.16 -158.38 -54.27 117.85 178.82 -160.13 -155.52 -45.52 
DOCKED: USER  keepresnum = 1 
DOCKED: USER  
DOCKED: REMARK  Name = 
DOCKED: REMARK  11 active torsions:
DOCKED: REMARK  status: ('A' for Active; 'I' for Inactive)
DOCKED: REMARK    1  A    between atoms: C_2  and  O_3
DOCKED: REMARK    2  A    between atoms: O_3  and  C_4
DOCKED: REMARK    3  A    between atoms: C_4  and  C_5
DOCKED: REMARK    4  A    between atoms: C_10  and  C_11
DOCKED: REMARK    5  A    between atoms: C_11  and  N_12
DOCKED: REMARK    6  A    between atoms: N_12  and  C_13
DOCKED: REMARK    7  A    between atoms: N_12  and  C_15
DOCKED: REMARK    8  A    between atoms: C_13  and  C_14
DOCKED: REMARK    9  A    between atoms: C_15  and  C_16
DOCKED: REMARK   10  A    between atoms: N_21  and  C_22
DOCKED: REMARK   11  A    between atoms: C_25  and  C_26
DOCKED: REMARK                            x       y       z     vdW  Elec       q    Type
DOCKED: REMARK                         _______ _______ _______ _____ _____    ______ ____
DOCKED: USER                              x       y       z     vdW  Elec       q    Type
DOCKED: USER                           _______ _______ _______ _____ _____    ______ ____
DOCKED: ROOT
DOCKED: ATOM      1  C   UNL     1      29.752 -15.855  -1.291 -0.16 -0.00    +0.000 C 
DOCKED: ENDROOT
DOCKED: BRANCH   1   2
DOCKED: ATOM      2  C   UNL     1      29.699 -15.391   0.140 -0.13 -0.00    +0.000 A 
DOCKED: ATOM      3  C   UNL     1      30.833 -15.481   0.962 -0.09 -0.00    +0.000 A 
DOCKED: ATOM      4  C   UNL     1      30.788 -15.030   2.284 -0.08 -0.00    +0.000 A 
DOCKED: ATOM      5  C   UNL     1      29.607 -14.480   2.801 -0.14 -0.00    +0.000 A 
DOCKED: ATOM      6  C   UNL     1      29.554 -14.019   4.126 -0.31 -0.00    +0.000 A 
DOCKED: ATOM      7  C   UNL     1      28.371 -13.464   4.637 -0.41 -0.00    +0.000 A 
DOCKED: ATOM      8  C   UNL     1      27.235 -13.379   3.818 -0.33 -0.00    +0.000 A 
DOCKED: ATOM      9  C   UNL     1      27.278 -13.835   2.497 -0.25 -0.00    +0.000 A 
DOCKED: ATOM     10  C   UNL     1      28.459 -14.386   1.980 -0.19 -0.00    +0.000 A 
DOCKED: ATOM     11  C   UNL     1      28.513 -14.844   0.654 -0.19 -0.00    +0.000 A 
DOCKED: BRANCH   7  12
DOCKED: ATOM     12  C   UNL     1      28.320 -12.988   6.066 -0.45 -0.00    +0.000 C 
DOCKED: BRANCH  12  13
DOCKED: ATOM     13  N   UNL     1      29.463 -12.100   6.370 -0.26 -0.00    +0.000 N 
DOCKED: ATOM     14  H   UNL     1      30.039 -12.190   5.534 +0.01 -0.00    +0.000 HD
DOCKED: BRANCH  13  15
DOCKED: ATOM     15  C   UNL     1      29.145 -10.652   6.408 -0.28 +0.00    +0.000 C 
DOCKED: ATOM     16  C   UNL     1      27.869 -10.256   5.648 -0.34 +0.00    +0.000 C 
DOCKED: ENDBRANCH  13  15
DOCKED: BRANCH  13  17
DOCKED: ATOM     17  C   UNL     1      30.367 -12.570   7.447 -0.28 -0.00    +0.000 C 
DOCKED: ATOM     18  C   UNL     1      29.753 -13.624   8.372 -0.40 -0.00    +0.000 C 
DOCKED: ENDBRANCH  13  17
DOCKED: ENDBRANCH  12  13
DOCKED: ENDBRANCH   7  12
DOCKED: ENDBRANCH   1   2
DOCKED: BRANCH   1  19
DOCKED: ATOM     19  O   UNL     1      28.676 -15.290  -2.039 -0.17 -0.00    +0.000 OA
DOCKED: BRANCH  19  21
DOCKED: ATOM     20  O   UNL     1      26.643 -15.613  -3.088 -0.42 -0.00    +0.000 OA
DOCKED: ATOM     21  C   UNL     1      27.404 -15.868  -2.114 -0.34 -0.00    +0.000 C 
DOCKED: ATOM     22  N   UNL     1      26.995 -16.787  -1.092 -0.42 -0.00    +0.000 N 
DOCKED: ATOM     23  H   UNL     1      27.683 -17.127  -0.477 -0.05 -0.00    +0.000 HD
DOCKED: BRANCH  22  24
DOCKED: ATOM     24  C   UNL     1      25.644 -17.242  -0.908 -0.56 -0.00    +0.000 A 
DOCKED: ATOM     25  C   UNL     1      24.580 -16.387  -1.223 -0.46 -0.00    +0.000 A 
DOCKED: ATOM     26  C   UNL     1      23.256 -16.815  -1.079 -0.39 -0.00    +0.000 A 
DOCKED: ATOM     27  C   UNL     1      22.972 -18.115  -0.628 -0.73 -0.00    +0.000 A 
DOCKED: ATOM     28  C   UNL     1      24.041 -18.983  -0.345 -0.35 -0.00    +0.000 A 
DOCKED: ATOM     29  C   UNL     1      25.364 -18.554  -0.484 -0.54 -0.00    +0.000 A 
DOCKED: BRANCH  27  30
DOCKED: ATOM     30  C   UNL     1      21.573 -18.589  -0.483 -0.84 -0.00    +0.000 C 
DOCKED: ATOM     31  N   UNL     1      21.279 -19.931  -0.080 -0.58 -0.00    +0.000 N 
DOCKED: ATOM     32  O   UNL     1      19.999 -20.308   0.143 -1.09 -0.00    +0.000 OA
DOCKED: ATOM     33  O   UNL     1      20.621 -17.801  -0.733 -2.29 -0.00    +0.000 OA
DOCKED: ATOM     34  H   UNL     1      22.009 -20.582   0.035 -0.56 -0.00    +0.000 HD
DOCKED: ENDBRANCH  27  30
DOCKED: ENDBRANCH  22  24
DOCKED: ENDBRANCH  19  21
DOCKED: ENDBRANCH   1  19
DOCKED: TORSDOF 9
DOCKED: TER
DOCKED: ENDMDL
________________________________________________________________________________


	BEGINNING GENETIC ALGORITHM DOCKING 46 of 100
Run: 46 Seed: 1139027405 356181020 [ Run 46 of 100 GA/GALS ]
Beginning LAMARCKIAN GENETIC ALGORITHM (LGA), with a maximum of 2500000 energy evaluations.

Final-Value: -16.440


	FINAL GENETIC ALGORITHM DOCKED STATE
	_______________________________________________


Detailed state:  trans 27.732 -17.186 -4.207 quatxyzw -0.291988 -0.629999 -0.638919 -0.331100 center 1.436 0.069 -0.007 ntor 9 32.0902 137.0889 170.1432 -49.8893 -175.7513 147.8240 -69.2153 -21.3188 167.6908
State:	 27.732 -17.186  -4.207  -0.309 -0.668 -0.677 -141.329     32.09  137.09  170.14  -49.89 -175.75  147.82  -69.22  -21.32  167.69

DOCKED: MODEL       46
DOCKED: USER    Run = 46
DOCKED: USER    DPF = ligand_dock.biased.dpf
DOCKED: USER  
DOCKED: USER    Estimated Free Energy of Binding    =  -12.16 kcal/mol  [=(1)+(2)+(3)-(4)]
DOCKED: USER    Estimated Inhibition Constant, Ki   =    1.22 nM (nanomolar)  [Temperature = 298.15 K]
DOCKED: USER    
DOCKED: USER    (1) Final Intermolecular Energy     =  -14.84 kcal/mol
DOCKED: USER        vdW + Hbond + desolv Energy     =  -14.84 kcal/mol
DOCKED: USER        Electrostatic Energy            =   +0.00 kcal/mol
DOCKED: USER    (2) Final Total Internal Energy     =   -1.60 kcal/mol
DOCKED: USER    (3) Torsional Free Energy           =   +2.68 kcal/mol
DOCKED: USER    (4) Unbound System's Energy  [=(2)] =   -1.60 kcal/mol
DOCKED: USER    
DOCKED: USER    
DOCKED: USER    NEWDPF move ligand.pdbqt
DOCKED: USER    NEWDPF about 1.436000 0.069000 -0.007000
DOCKED: USER    NEWDPF tran0 27.732446 -17.185934 -4.206584
DOCKED: USER    NEWDPF quaternion0 -0.291988 -0.629999 -0.638919 -0.331100
DOCKED: USER    NEWDPF axisangle0 -0.309442 -0.667658 -0.677110 -141.328932
DOCKED: USER    NEWDPF quat0 -0.309442 -0.667658 -0.677110 -141.328932
DOCKED: USER    NEWDPF dihe0 32.09 137.09 170.14 -49.89 -175.75 147.82 -69.22 -21.32 167.69 
DOCKED: USER  keepresnum = 1 
DOCKED: USER  
DOCKED: REMARK  Name = 
DOCKED: REMARK  11 active torsions:
DOCKED: REMARK  status: ('A' for Active; 'I' for Inactive)
DOCKED: REMARK    1  A    between atoms: C_2  and  O_3
DOCKED: REMARK    2  A    between atoms: O_3  and  C_4
DOCKED: REMARK    3  A    between atoms: C_4  and  C_5
DOCKED: REMARK    4  A    between atoms: C_10  and  C_11
DOCKED: REMARK    5  A    between atoms: C_11  and  N_12
DOCKED: REMARK    6  A    between atoms: N_12  and  C_13
DOCKED: REMARK    7  A    between atoms: N_12  and  C_15
DOCKED: REMARK    8  A    between atoms: C_13  and  C_14
DOCKED: REMARK    9  A    between atoms: C_15  and  C_16
DOCKED: REMARK   10  A    between atoms: N_21  and  C_22
DOCKED: REMARK   11  A    between atoms: C_25  and  C_26
DOCKED: REMARK                            x       y       z     vdW  Elec       q    Type
DOCKED: REMARK                         _______ _______ _______ _____ _____    ______ ____
DOCKED: USER                              x       y       z     vdW  Elec       q    Type
DOCKED: USER                           _______ _______ _______ _____ _____    ______ ____
DOCKED: ROOT
DOCKED: ATOM      1  C   UNL     1      30.595 -16.880  -1.531 -0.17 -0.00    +0.000 C 
DOCKED: ENDROOT
DOCKED: BRANCH   1   2
DOCKED: ATOM      2  C   UNL     1      30.527 -17.150  -3.009 -0.16 -0.00    +0.000 A 
DOCKED: ATOM      3  C   UNL     1      30.188 -16.126  -3.907 -0.16 -0.00    +0.000 A 
DOCKED: ATOM      4  C   UNL     1      30.146 -16.374  -5.282 -0.25 -0.00    +0.000 A 
DOCKED: ATOM      5  C   UNL     1      30.446 -17.651  -5.778 -0.31 -0.00    +0.000 A 
DOCKED: ATOM      6  C   UNL     1      30.411 -17.908  -7.157 -0.23 -0.00    +0.000 A 
DOCKED: ATOM      7  C   UNL     1      30.717 -19.186  -7.649 -0.36 -0.00    +0.000 A 
DOCKED: ATOM      8  C   UNL     1      31.050 -20.212  -6.751 -0.33 -0.00    +0.000 A 
DOCKED: ATOM      9  C   UNL     1      31.087 -19.965  -5.376 -0.28 -0.00    +0.000 A 
DOCKED: ATOM     10  C   UNL     1      30.788 -18.689  -4.880 -0.26 -0.00    +0.000 A 
DOCKED: ATOM     11  C   UNL     1      30.825 -18.431  -3.501 -0.12 -0.00    +0.000 A 
DOCKED: BRANCH   7  12
DOCKED: ATOM     12  C   UNL     1      30.661 -19.455  -9.130 -0.37 -0.00    +0.000 C 
DOCKED: BRANCH  12  13
DOCKED: ATOM     13  N   UNL     1      31.997 -19.812  -9.656 -0.20 -0.00    +0.000 N 
DOCKED: ATOM     14  H   UNL     1      32.592 -19.699  -8.835 +0.00 -0.00    +0.000 HD
DOCKED: BRANCH  13  15
DOCKED: ATOM     15  C   UNL     1      32.176 -21.240 -10.009 -0.17 -0.00    +0.000 C 
DOCKED: ATOM     16  C   UNL     1      31.468 -21.674 -11.303 -0.19 -0.00    +0.000 C 
DOCKED: ENDBRANCH  13  15
DOCKED: BRANCH  13  17
DOCKED: ATOM     17  C   UNL     1      32.580 -18.851 -10.622 -0.20 -0.00    +0.000 C 
DOCKED: ATOM     18  C   UNL     1      32.862 -17.463 -10.039 -0.20 -0.00    +0.000 C 
DOCKED: ENDBRANCH  13  17
DOCKED: ENDBRANCH  12  13
DOCKED: ENDBRANCH   7  12
DOCKED: ENDBRANCH   1   2
DOCKED: BRANCH   1  19
DOCKED: ATOM     19  O   UNL     1      29.391 -16.260  -1.081 -0.22 -0.00    +0.000 OA
DOCKED: BRANCH  19  21
DOCKED: ATOM     20  O   UNL     1      27.715 -16.690  -2.612 -0.35 -0.00    +0.000 OA
DOCKED: ATOM     21  C   UNL     1      28.115 -16.726  -1.415 -0.36 -0.00    +0.000 C 
DOCKED: ATOM     22  N   UNL     1      27.285 -17.284  -0.388 -0.46 -0.00    +0.000 N 
DOCKED: ATOM     23  H   UNL     1      27.704 -17.496   0.477 -0.32 -0.00    +0.000 HD
DOCKED: BRANCH  22  24
DOCKED: ATOM     24  C   UNL     1      25.881 -17.553  -0.538 -0.57 -0.00    +0.000 A 
DOCKED: ATOM     25  C   UNL     1      24.998 -16.491  -0.776 -0.46 -0.00    +0.000 A 
DOCKED: ATOM     26  C   UNL     1      23.632 -16.729  -0.953 -0.45 -0.00    +0.000 A 
DOCKED: ATOM     27  C   UNL     1      23.123 -18.038  -0.910 -0.72 -0.00    +0.000 A 
DOCKED: ATOM     28  C   UNL     1      24.016 -19.106  -0.706 -0.49 -0.00    +0.000 A 
DOCKED: ATOM     29  C   UNL     1      25.381 -18.868  -0.524 -0.22 -0.00    +0.000 A 
DOCKED: BRANCH  27  30
DOCKED: ATOM     30  C   UNL     1      21.678 -18.309  -1.110 -0.67 -0.00    +0.000 C 
DOCKED: ATOM     31  N   UNL     1      21.226 -19.496  -1.769 -0.63 -0.00    +0.000 N 
DOCKED: ATOM     32  O   UNL     1      19.903 -19.767  -1.849 -2.37 -0.00    +0.000 OA
DOCKED: ATOM     33  O   UNL     1      20.827 -17.469  -0.707 -2.06 +0.00    +0.000 OA
DOCKED: ATOM     34  H   UNL     1      21.879 -20.118  -2.165 -0.56 -0.00    +0.000 HD
DOCKED: ENDBRANCH  27  30
DOCKED: ENDBRANCH  22  24
DOCKED: ENDBRANCH  19  21
DOCKED: ENDBRANCH   1  19
DOCKED: TORSDOF 9
DOCKED: TER
DOCKED: ENDMDL
________________________________________________________________________________


	BEGINNING GENETIC ALGORITHM DOCKING 47 of 100
Run: 47 Seed: 1735003000 1694875934 [ Run 47 of 100 GA/GALS ]
Beginning LAMARCKIAN GENETIC ALGORITHM (LGA), with a maximum of 2500000 energy evaluations.

Final-Value: -15.736


	FINAL GENETIC ALGORITHM DOCKED STATE
	_______________________________________________


Detailed state:  trans 27.878 -18.103 -3.846 quatxyzw 0.067753 0.923991 0.376300 0.006921 center 1.436 0.069 -0.007 ntor 9 -172.1231 -142.7068 104.1516 176.9331 -179.9332 -61.8605 -139.0186 4.7603 -37.9722
State:	 27.878 -18.103  -3.846   0.068  0.924  0.376 179.207   -172.12 -142.71  104.15  176.93 -179.93  -61.86 -139.02    4.76  -37.97

DOCKED: MODEL       47
DOCKED: USER    Run = 47
DOCKED: USER    DPF = ligand_dock.biased.dpf
DOCKED: USER  
DOCKED: USER    Estimated Free Energy of Binding    =  -11.38 kcal/mol  [=(1)+(2)+(3)-(4)]
DOCKED: USER    Estimated Inhibition Constant, Ki   =    4.57 nM (nanomolar)  [Temperature = 298.15 K]
DOCKED: USER    
DOCKED: USER    (1) Final Intermolecular Energy     =  -14.06 kcal/mol
DOCKED: USER        vdW + Hbond + desolv Energy     =  -14.06 kcal/mol
DOCKED: USER        Electrostatic Energy            =   +0.00 kcal/mol
DOCKED: USER    (2) Final Total Internal Energy     =   -1.67 kcal/mol
DOCKED: USER    (3) Torsional Free Energy           =   +2.68 kcal/mol
DOCKED: USER    (4) Unbound System's Energy  [=(2)] =   -1.67 kcal/mol
DOCKED: USER    
DOCKED: USER    
DOCKED: USER    NEWDPF move ligand.pdbqt
DOCKED: USER    NEWDPF about 1.436000 0.069000 -0.007000
DOCKED: USER    NEWDPF tran0 27.877798 -18.103343 -3.845632
DOCKED: USER    NEWDPF quaternion0 0.067753 0.923991 0.376300 0.006921
DOCKED: USER    NEWDPF axisangle0 0.067755 0.924014 0.376309 179.206921
DOCKED: USER    NEWDPF quat0 0.067755 0.924014 0.376309 179.206921
DOCKED: USER    NEWDPF dihe0 -172.12 -142.71 104.15 176.93 -179.93 -61.86 -139.02 4.76 -37.97 
DOCKED: USER  keepresnum = 1 
DOCKED: USER  
DOCKED: REMARK  Name = 
DOCKED: REMARK  11 active torsions:
DOCKED: REMARK  status: ('A' for Active; 'I' for Inactive)
DOCKED: REMARK    1  A    between atoms: C_2  and  O_3
DOCKED: REMARK    2  A    between atoms: O_3  and  C_4
DOCKED: REMARK    3  A    between atoms: C_4  and  C_5
DOCKED: REMARK    4  A    between atoms: C_10  and  C_11
DOCKED: REMARK    5  A    between atoms: C_11  and  N_12
DOCKED: REMARK    6  A    between atoms: N_12  and  C_13
DOCKED: REMARK    7  A    between atoms: N_12  and  C_15
DOCKED: REMARK    8  A    between atoms: C_13  and  C_14
DOCKED: REMARK    9  A    between atoms: C_15  and  C_16
DOCKED: REMARK   10  A    between atoms: N_21  and  C_22
DOCKED: REMARK   11  A    between atoms: C_25  and  C_26
DOCKED: REMARK                            x       y       z     vdW  Elec       q    Type
DOCKED: REMARK                         _______ _______ _______ _____ _____    ______ ____
DOCKED: USER                              x       y       z     vdW  Elec       q    Type
DOCKED: USER                           _______ _______ _______ _____ _____    ______ ____
DOCKED: ROOT
DOCKED: ATOM      1  C   UNL     1      28.050 -15.106  -1.308 -0.22 -0.00    +0.000 C 
DOCKED: ENDROOT
DOCKED: BRANCH   1   2
DOCKED: ATOM      2  C   UNL     1      29.014 -16.143  -1.818 -0.21 -0.00    +0.000 A 
DOCKED: ATOM      3  C   UNL     1      29.845 -16.843  -0.929 -0.20 -0.00    +0.000 A 
DOCKED: ATOM      4  C   UNL     1      30.724 -17.821  -1.402 -0.18 -0.00    +0.000 A 
DOCKED: ATOM      5  C   UNL     1      30.782 -18.114  -2.772 -0.14 -0.00    +0.000 A 
DOCKED: ATOM      6  C   UNL     1      31.658 -19.098  -3.255 -0.13 -0.00    +0.000 A 
DOCKED: ATOM      7  C   UNL     1      31.708 -19.393  -4.626 -0.16 -0.00    +0.000 A 
DOCKED: ATOM      8  C   UNL     1      30.881 -18.689  -5.516 -0.28 -0.00    +0.000 A 
DOCKED: ATOM      9  C   UNL     1      30.006 -17.708  -5.044 -0.27 -0.00    +0.000 A 
DOCKED: ATOM     10  C   UNL     1      29.948 -17.414  -3.675 -0.18 -0.00    +0.000 A 
DOCKED: ATOM     11  C   UNL     1      29.070 -16.432  -3.191 -0.22 -0.00    +0.000 A 
DOCKED: BRANCH   7  12
DOCKED: ATOM     12  C   UNL     1      32.665 -20.440  -5.136 -0.10 -0.00    +0.000 C 
DOCKED: BRANCH  12  13
DOCKED: ATOM     13  N   UNL     1      31.935 -21.620  -5.648 -0.16 -0.00    +0.000 N 
DOCKED: ATOM     14  H   UNL     1      32.485 -22.395  -5.277 +0.00 -0.00    +0.000 HD
DOCKED: BRANCH  13  15
DOCKED: ATOM     15  C   UNL     1      30.595 -21.840  -5.055 -0.36 -0.00    +0.000 C 
DOCKED: ATOM     16  C   UNL     1      30.345 -23.270  -4.548 -0.31 -0.00    +0.000 C 
DOCKED: ENDBRANCH  13  15
DOCKED: BRANCH  13  17
DOCKED: ATOM     17  C   UNL     1      32.013 -21.833  -7.113 -0.20 -0.00    +0.000 C 
DOCKED: ATOM     18  C   UNL     1      32.076 -23.303  -7.535 -0.18 -0.00    +0.000 C 
DOCKED: ENDBRANCH  13  17
DOCKED: ENDBRANCH  12  13
DOCKED: ENDBRANCH   7  12
DOCKED: ENDBRANCH   1   2
DOCKED: BRANCH   1  19
DOCKED: ATOM     19  O   UNL     1      26.943 -14.974  -2.199 -0.30 -0.00    +0.000 OA
DOCKED: BRANCH  19  21
DOCKED: ATOM     20  O   UNL     1      25.504 -16.289  -3.439 -0.61 -0.00    +0.000 OA
DOCKED: ATOM     21  C   UNL     1      25.923 -15.927  -2.305 -0.52 -0.00    +0.000 C 
DOCKED: ATOM     22  N   UNL     1      25.392 -16.516  -1.112 -0.51 -0.00    +0.000 N 
DOCKED: ATOM     23  H   UNL     1      25.885 -16.376  -0.271 -0.02 -0.00    +0.000 HD
DOCKED: BRANCH  22  24
DOCKED: ATOM     24  C   UNL     1      24.186 -17.297  -1.061 -0.64 -0.00    +0.000 A 
DOCKED: ATOM     25  C   UNL     1      24.249 -18.675  -1.303 -0.51 -0.00    +0.000 A 
DOCKED: ATOM     26  C   UNL     1      23.095 -19.463  -1.233 -0.49 -0.00    +0.000 A 
DOCKED: ATOM     27  C   UNL     1      21.856 -18.886  -0.906 -0.75 -0.00    +0.000 A 
DOCKED: ATOM     28  C   UNL     1      21.801 -17.508  -0.631 -0.62 -0.00    +0.000 A 
DOCKED: ATOM     29  C   UNL     1      22.953 -16.720  -0.706 -0.34 -0.00    +0.000 A 
DOCKED: BRANCH  27  30
DOCKED: ATOM     30  C   UNL     1      20.625 -19.710  -0.815 -0.85 -0.00    +0.000 C 
DOCKED: ATOM     31  N   UNL     1      20.339 -20.495   0.348 -0.68 -0.00    +0.000 N 
DOCKED: ATOM     32  O   UNL     1      19.163 -21.157   0.448 -0.83 -0.00    +0.000 OA
DOCKED: ATOM     33  O   UNL     1      19.819 -19.733  -1.785 -2.34 -0.00    +0.000 OA
DOCKED: ATOM     34  H   UNL     1      20.999 -20.554   1.076 -0.58 -0.00    +0.000 HD
DOCKED: ENDBRANCH  27  30
DOCKED: ENDBRANCH  22  24
DOCKED: ENDBRANCH  19  21
DOCKED: ENDBRANCH   1  19
DOCKED: TORSDOF 9
DOCKED: TER
DOCKED: ENDMDL
________________________________________________________________________________


	BEGINNING GENETIC ALGORITHM DOCKING 48 of 100
Run: 48 Seed: 102812318 2761027 [ Run 48 of 100 GA/GALS ]
Beginning LAMARCKIAN GENETIC ALGORITHM (LGA), with a maximum of 2500000 energy evaluations.

Final-Value: -16.702


	FINAL GENETIC ALGORITHM DOCKED STATE
	_______________________________________________


Detailed state:  trans 27.293 -16.046 1.234 quatxyzw -0.000234 0.598552 -0.521446 -0.608137 center 1.436 0.069 -0.007 ntor 9 -84.1562 155.3355 150.1731 -58.8378 -46.3346 151.7211 102.7455 -0.5241 2.5821
State:	 27.293 -16.046   1.234  -0.000  0.754 -0.657 -105.090    -84.16  155.34  150.17  -58.84  -46.33  151.72  102.75   -0.52    2.58

DOCKED: MODEL       48
DOCKED: USER    Run = 48
DOCKED: USER    DPF = ligand_dock.biased.dpf
DOCKED: USER  
DOCKED: USER    Estimated Free Energy of Binding    =  -11.99 kcal/mol  [=(1)+(2)+(3)-(4)]
DOCKED: USER    Estimated Inhibition Constant, Ki   =    1.63 nM (nanomolar)  [Temperature = 298.15 K]
DOCKED: USER    
DOCKED: USER    (1) Final Intermolecular Energy     =  -14.67 kcal/mol
DOCKED: USER        vdW + Hbond + desolv Energy     =  -14.67 kcal/mol
DOCKED: USER        Electrostatic Energy            =   +0.00 kcal/mol
DOCKED: USER    (2) Final Total Internal Energy     =   -2.03 kcal/mol
DOCKED: USER    (3) Torsional Free Energy           =   +2.68 kcal/mol
DOCKED: USER    (4) Unbound System's Energy  [=(2)] =   -2.03 kcal/mol
DOCKED: USER    
DOCKED: USER    
DOCKED: USER    NEWDPF move ligand.pdbqt
DOCKED: USER    NEWDPF about 1.436000 0.069000 -0.007000
DOCKED: USER    NEWDPF tran0 27.293355 -16.046245 1.233930
DOCKED: USER    NEWDPF quaternion0 -0.000234 0.598552 -0.521446 -0.608137
DOCKED: USER    NEWDPF axisangle0 -0.000295 0.754003 -0.656871 -105.090223
DOCKED: USER    NEWDPF quat0 -0.000295 0.754003 -0.656871 -105.090223
DOCKED: USER    NEWDPF dihe0 -84.16 155.34 150.17 -58.84 -46.33 151.72 102.75 -0.52 2.58 
DOCKED: USER  keepresnum = 1 
DOCKED: USER  
DOCKED: REMARK  Name = 
DOCKED: REMARK  11 active torsions:
DOCKED: REMARK  status: ('A' for Active; 'I' for Inactive)
DOCKED: REMARK    1  A    between atoms: C_2  and  O_3
DOCKED: REMARK    2  A    between atoms: O_3  and  C_4
DOCKED: REMARK    3  A    between atoms: C_4  and  C_5
DOCKED: REMARK    4  A    between atoms: C_10  and  C_11
DOCKED: REMARK    5  A    between atoms: C_11  and  N_12
DOCKED: REMARK    6  A    between atoms: N_12  and  C_13
DOCKED: REMARK    7  A    between atoms: N_12  and  C_15
DOCKED: REMARK    8  A    between atoms: C_13  and  C_14
DOCKED: REMARK    9  A    between atoms: C_15  and  C_16
DOCKED: REMARK   10  A    between atoms: N_21  and  C_22
DOCKED: REMARK   11  A    between atoms: C_25  and  C_26
DOCKED: REMARK                            x       y       z     vdW  Elec       q    Type
DOCKED: REMARK                         _______ _______ _______ _____ _____    ______ ____
DOCKED: USER                              x       y       z     vdW  Elec       q    Type
DOCKED: USER                           _______ _______ _______ _____ _____    ______ ____
DOCKED: ROOT
DOCKED: ATOM      1  C   UNL     1      29.878 -14.659  -1.382 -0.08 -0.00    +0.000 C 
DOCKED: ENDROOT
DOCKED: BRANCH   1   2
DOCKED: ATOM      2  C   UNL     1      29.324 -14.193  -0.063 -0.10 -0.00    +0.000 A 
DOCKED: ATOM      3  C   UNL     1      28.213 -13.336  -0.018 -0.12 -0.00    +0.000 A 
DOCKED: ATOM      4  C   UNL     1      27.687 -12.921   1.208 -0.20 -0.00    +0.000 A 
DOCKED: ATOM      5  C   UNL     1      28.265 -13.361   2.408 -0.23 -0.00    +0.000 A 
DOCKED: ATOM      6  C   UNL     1      27.741 -12.953   3.644 -0.33 -0.00    +0.000 A 
DOCKED: ATOM      7  C   UNL     1      28.319 -13.400   4.842 -0.43 -0.00    +0.000 A 
DOCKED: ATOM      8  C   UNL     1      29.433 -14.252   4.798 -0.36 -0.00    +0.000 A 
DOCKED: ATOM      9  C   UNL     1      29.963 -14.663   3.572 -0.21 -0.00    +0.000 A 
DOCKED: ATOM     10  C   UNL     1      29.385 -14.224   2.372 -0.16 -0.00    +0.000 A 
DOCKED: ATOM     11  C   UNL     1      29.908 -14.633   1.135 -0.12 -0.00    +0.000 A 
DOCKED: BRANCH   7  12
DOCKED: ATOM     12  C   UNL     1      27.758 -12.943   6.165 -0.17 +0.00    +0.000 C 
DOCKED: BRANCH  12  13
DOCKED: ATOM     13  N   UNL     1      28.731 -12.098   6.890 -0.38 -0.00    +0.000 N 
DOCKED: ATOM     14  H   UNL     1      29.592 -12.258   6.367 +0.00 -0.00    +0.000 HD
DOCKED: BRANCH  13  15
DOCKED: ATOM     15  C   UNL     1      28.520 -10.637   6.758 -0.33 +0.00    +0.000 C 
DOCKED: ATOM     16  C   UNL     1      28.162 -10.166   5.339 -0.34 +0.00    +0.000 C 
DOCKED: ENDBRANCH  13  15
DOCKED: BRANCH  13  17
DOCKED: ATOM     17  C   UNL     1      29.084 -12.559   8.254 -0.42 -0.00    +0.000 C 
DOCKED: ATOM     18  C   UNL     1      30.151 -13.656   8.293 -0.37 -0.00    +0.000 C 
DOCKED: ENDBRANCH  13  17
DOCKED: ENDBRANCH  12  13
DOCKED: ENDBRANCH   7  12
DOCKED: ENDBRANCH   1   2
DOCKED: BRANCH   1  19
DOCKED: ATOM     19  O   UNL     1      29.680 -16.064  -1.538 -0.16 -0.00    +0.000 OA
DOCKED: BRANCH  19  21
DOCKED: ATOM     20  O   UNL     1      28.066 -17.089  -2.834 -0.15 -0.00    +0.000 OA
DOCKED: ATOM     21  C   UNL     1      28.420 -16.649  -1.706 -0.32 -0.00    +0.000 C 
DOCKED: ATOM     22  N   UNL     1      27.555 -16.778  -0.571 -0.39 -0.00    +0.000 N 
DOCKED: ATOM     23  H   UNL     1      27.942 -16.628   0.322 -0.21 -0.00    +0.000 HD
DOCKED: BRANCH  22  24
DOCKED: ATOM     24  C   UNL     1      26.159 -17.113  -0.650 -0.52 -0.00    +0.000 A 
DOCKED: ATOM     25  C   UNL     1      25.294 -16.288  -1.382 -0.50 -0.00    +0.000 A 
DOCKED: ATOM     26  C   UNL     1      23.937 -16.606  -1.499 -0.29 -0.00    +0.000 A 
DOCKED: ATOM     27  C   UNL     1      23.421 -17.766  -0.895 -0.69 -0.00    +0.000 A 
DOCKED: ATOM     28  C   UNL     1      24.297 -18.610  -0.190 -0.53 -0.00    +0.000 A 
DOCKED: ATOM     29  C   UNL     1      25.653 -18.290  -0.070 -0.58 -0.00    +0.000 A 
DOCKED: BRANCH  27  30
DOCKED: ATOM     30  C   UNL     1      21.987 -18.124  -1.021 -0.73 -0.00    +0.000 C 
DOCKED: ATOM     31  N   UNL     1      21.579 -19.406  -1.510 -0.70 -0.00    +0.000 N 
DOCKED: ATOM     32  O   UNL     1      20.269 -19.745  -1.519 -2.25 -0.00    +0.000 OA
DOCKED: ATOM     33  O   UNL     1      21.105 -17.279  -0.705 -1.84 -0.00    +0.000 OA
DOCKED: ATOM     34  H   UNL     1      22.253 -20.044  -1.841 -0.46 -0.00    +0.000 HD
DOCKED: ENDBRANCH  27  30
DOCKED: ENDBRANCH  22  24
DOCKED: ENDBRANCH  19  21
DOCKED: ENDBRANCH   1  19
DOCKED: TORSDOF 9
DOCKED: TER
DOCKED: ENDMDL
________________________________________________________________________________


	BEGINNING GENETIC ALGORITHM DOCKING 49 of 100
Run: 49 Seed: 1131218472 1505873312 [ Run 49 of 100 GA/GALS ]
Beginning LAMARCKIAN GENETIC ALGORITHM (LGA), with a maximum of 2500000 energy evaluations.

Final-Value: -16.195


	FINAL GENETIC ALGORITHM DOCKED STATE
	_______________________________________________


Detailed state:  trans 27.594 -16.706 -4.646 quatxyzw 0.087113 0.750513 0.640950 0.135366 center 1.436 0.069 -0.007 ntor 9 111.1776 -178.8240 -66.3454 -14.5892 159.7866 147.3943 -118.2264 14.5136 -43.9454
State:	 27.594 -16.706  -4.646   0.088  0.757  0.647 164.440    111.18 -178.82  -66.35  -14.59  159.79  147.39 -118.23   14.51  -43.95

DOCKED: MODEL       49
DOCKED: USER    Run = 49
DOCKED: USER    DPF = ligand_dock.biased.dpf
DOCKED: USER  
DOCKED: USER    Estimated Free Energy of Binding    =  -11.84 kcal/mol  [=(1)+(2)+(3)-(4)]
DOCKED: USER    Estimated Inhibition Constant, Ki   =    2.08 nM (nanomolar)  [Temperature = 298.15 K]
DOCKED: USER    
DOCKED: USER    (1) Final Intermolecular Energy     =  -14.53 kcal/mol
DOCKED: USER        vdW + Hbond + desolv Energy     =  -14.53 kcal/mol
DOCKED: USER        Electrostatic Energy            =   +0.00 kcal/mol
DOCKED: USER    (2) Final Total Internal Energy     =   -1.67 kcal/mol
DOCKED: USER    (3) Torsional Free Energy           =   +2.68 kcal/mol
DOCKED: USER    (4) Unbound System's Energy  [=(2)] =   -1.67 kcal/mol
DOCKED: USER    
DOCKED: USER    
DOCKED: USER    NEWDPF move ligand.pdbqt
DOCKED: USER    NEWDPF about 1.436000 0.069000 -0.007000
DOCKED: USER    NEWDPF tran0 27.594010 -16.706273 -4.646307
DOCKED: USER    NEWDPF quaternion0 0.087113 0.750513 0.640950 0.135366
DOCKED: USER    NEWDPF axisangle0 0.087923 0.757485 0.646905 164.440408
DOCKED: USER    NEWDPF quat0 0.087923 0.757485 0.646905 164.440408
DOCKED: USER    NEWDPF dihe0 111.18 -178.82 -66.35 -14.59 159.79 147.39 -118.23 14.51 -43.95 
DOCKED: USER  keepresnum = 1 
DOCKED: USER  
DOCKED: REMARK  Name = 
DOCKED: REMARK  11 active torsions:
DOCKED: REMARK  status: ('A' for Active; 'I' for Inactive)
DOCKED: REMARK    1  A    between atoms: C_2  and  O_3
DOCKED: REMARK    2  A    between atoms: O_3  and  C_4
DOCKED: REMARK    3  A    between atoms: C_4  and  C_5
DOCKED: REMARK    4  A    between atoms: C_10  and  C_11
DOCKED: REMARK    5  A    between atoms: C_11  and  N_12
DOCKED: REMARK    6  A    between atoms: N_12  and  C_13
DOCKED: REMARK    7  A    between atoms: N_12  and  C_15
DOCKED: REMARK    8  A    between atoms: C_13  and  C_14
DOCKED: REMARK    9  A    between atoms: C_15  and  C_16
DOCKED: REMARK   10  A    between atoms: N_21  and  C_22
DOCKED: REMARK   11  A    between atoms: C_25  and  C_26
DOCKED: REMARK                            x       y       z     vdW  Elec       q    Type
DOCKED: REMARK                         _______ _______ _______ _____ _____    ______ ____
DOCKED: USER                              x       y       z     vdW  Elec       q    Type
DOCKED: USER                           _______ _______ _______ _____ _____    ______ ____
DOCKED: ROOT
DOCKED: ATOM      1  C   UNL     1      28.424 -15.813  -0.910 -0.27 -0.00    +0.000 C 
DOCKED: ENDROOT
DOCKED: BRANCH   1   2
DOCKED: ATOM      2  C   UNL     1      29.215 -16.238  -2.118 -0.20 -0.00    +0.000 A 
DOCKED: ATOM      3  C   UNL     1      30.275 -17.149  -1.991 -0.18 -0.00    +0.000 A 
DOCKED: ATOM      4  C   UNL     1      30.995 -17.559  -3.117 -0.15 -0.00    +0.000 A 
DOCKED: ATOM      5  C   UNL     1      30.661 -17.064  -4.386 -0.19 -0.00    +0.000 A 
DOCKED: ATOM      6  C   UNL     1      31.375 -17.474  -5.523 -0.18 -0.00    +0.000 A 
DOCKED: ATOM      7  C   UNL     1      31.034 -16.981  -6.791 -0.27 -0.00    +0.000 A 
DOCKED: ATOM      8  C   UNL     1      29.977 -16.065  -6.917 -0.21 -0.00    +0.000 A 
DOCKED: ATOM      9  C   UNL     1      29.261 -15.651  -5.791 -0.33 -0.00    +0.000 A 
DOCKED: ATOM     10  C   UNL     1      29.594 -16.145  -4.522 -0.24 -0.00    +0.000 A 
DOCKED: ATOM     11  C   UNL     1      28.879 -15.738  -3.385 -0.21 -0.00    +0.000 A 
DOCKED: BRANCH   7  12
DOCKED: ATOM     12  C   UNL     1      31.817 -17.415  -8.003 -0.26 -0.00    +0.000 C 
DOCKED: BRANCH  12  13
DOCKED: ATOM     13  N   UNL     1      31.198 -18.598  -8.639 -0.34 -0.00    +0.000 N 
DOCKED: ATOM     14  H   UNL     1      30.208 -18.462  -8.437 -0.07 -0.00    +0.000 HD
DOCKED: BRANCH  13  15
DOCKED: ATOM     15  C   UNL     1      31.243 -18.614 -10.121 -0.30 -0.00    +0.000 C 
DOCKED: ATOM     16  C   UNL     1      31.223 -20.018 -10.747 -0.36 -0.00    +0.000 C 
DOCKED: ENDBRANCH  13  15
DOCKED: BRANCH  13  17
DOCKED: ATOM     17  C   UNL     1      31.492 -19.898  -7.990 -0.30 -0.00    +0.000 C 
DOCKED: ATOM     18  C   UNL     1      30.309 -20.506  -7.232 -0.37 -0.00    +0.000 C 
DOCKED: ENDBRANCH  13  17
DOCKED: ENDBRANCH  12  13
DOCKED: ENDBRANCH   7  12
DOCKED: ENDBRANCH   1   2
DOCKED: BRANCH   1  19
DOCKED: ATOM     19  O   UNL     1      27.156 -15.289  -1.303 -0.29 -0.00    +0.000 OA
DOCKED: BRANCH  19  21
DOCKED: ATOM     20  O   UNL     1      25.560 -16.145  -2.737 -0.57 -0.00    +0.000 OA
DOCKED: ATOM     21  C   UNL     1      26.043 -16.092  -1.572 -0.50 -0.00    +0.000 C 
DOCKED: ATOM     22  N   UNL     1      25.484 -16.886  -0.517 -0.50 -0.00    +0.000 N 
DOCKED: ATOM     23  H   UNL     1      26.010 -16.989   0.308 -0.03 -0.00    +0.000 HD
DOCKED: BRANCH  22  24
DOCKED: ATOM     24  C   UNL     1      24.206 -17.541  -0.586 -0.63 -0.00    +0.000 A 
DOCKED: ATOM     25  C   UNL     1      23.044 -16.769  -0.709 -0.41 -0.00    +0.000 A 
DOCKED: ATOM     26  C   UNL     1      21.790 -17.382  -0.807 -0.48 -0.00    +0.000 A 
DOCKED: ATOM     27  C   UNL     1      21.678 -18.783  -0.795 -0.76 -0.00    +0.000 A 
DOCKED: ATOM     28  C   UNL     1      22.849 -19.556  -0.705 -0.47 -0.00    +0.000 A 
DOCKED: ATOM     29  C   UNL     1      24.101 -18.943  -0.603 -0.53 -0.00    +0.000 A 
DOCKED: BRANCH  27  30
DOCKED: ATOM     30  C   UNL     1      20.357 -19.449  -0.911 -0.88 -0.00    +0.000 C 
DOCKED: ATOM     31  N   UNL     1      19.584 -19.778   0.248 -0.74 -0.00    +0.000 N 
DOCKED: ATOM     32  O   UNL     1      18.339 -20.292   0.111 -0.91 -0.00    +0.000 OA
DOCKED: ATOM     33  O   UNL     1      19.909 -19.746  -2.052 -2.35 -0.00    +0.000 OA
DOCKED: ATOM     34  H   UNL     1      19.958 -19.630   1.147 -0.06 -0.00    +0.000 HD
DOCKED: ENDBRANCH  27  30
DOCKED: ENDBRANCH  22  24
DOCKED: ENDBRANCH  19  21
DOCKED: ENDBRANCH   1  19
DOCKED: TORSDOF 9
DOCKED: TER
DOCKED: ENDMDL
________________________________________________________________________________


	BEGINNING GENETIC ALGORITHM DOCKING 50 of 100
Run: 50 Seed: 1533175717 362082065 [ Run 50 of 100 GA/GALS ]
Beginning LAMARCKIAN GENETIC ALGORITHM (LGA), with a maximum of 2500000 energy evaluations.

Final-Value: -15.876


	FINAL GENETIC ALGORITHM DOCKED STATE
	_______________________________________________


Detailed state:  trans 26.181 -11.501 -2.529 quatxyzw -0.727666 0.044701 0.561103 0.392005 center 1.436 0.069 -0.007 ntor 9 144.9101 -160.0702 -75.0267 -14.1756 -65.8469 149.6286 152.5881 -169.5083 -106.7533
State:	 26.181 -11.501  -2.529  -0.791  0.049  0.610 133.841    144.91 -160.07  -75.03  -14.18  -65.85  149.63  152.59 -169.51 -106.75

DOCKED: MODEL       50
DOCKED: USER    Run = 50
DOCKED: USER    DPF = ligand_dock.biased.dpf
DOCKED: USER  
DOCKED: USER    Estimated Free Energy of Binding    =  -11.78 kcal/mol  [=(1)+(2)+(3)-(4)]
DOCKED: USER    Estimated Inhibition Constant, Ki   =    2.33 nM (nanomolar)  [Temperature = 298.15 K]
DOCKED: USER    
DOCKED: USER    (1) Final Intermolecular Energy     =  -14.46 kcal/mol
DOCKED: USER        vdW + Hbond + desolv Energy     =  -14.46 kcal/mol
DOCKED: USER        Electrostatic Energy            =   +0.00 kcal/mol
DOCKED: USER    (2) Final Total Internal Energy     =   -1.41 kcal/mol
DOCKED: USER    (3) Torsional Free Energy           =   +2.68 kcal/mol
DOCKED: USER    (4) Unbound System's Energy  [=(2)] =   -1.41 kcal/mol
DOCKED: USER    
DOCKED: USER    
DOCKED: USER    NEWDPF move ligand.pdbqt
DOCKED: USER    NEWDPF about 1.436000 0.069000 -0.007000
DOCKED: USER    NEWDPF tran0 26.180793 -11.500571 -2.528655
DOCKED: USER    NEWDPF quaternion0 -0.727666 0.044701 0.561103 0.392005
DOCKED: USER    NEWDPF axisangle0 -0.790973 0.048590 0.609919 133.841379
DOCKED: USER    NEWDPF quat0 -0.790973 0.048590 0.609919 133.841379
DOCKED: USER    NEWDPF dihe0 144.91 -160.07 -75.03 -14.18 -65.85 149.63 152.59 -169.51 -106.75 
DOCKED: USER  keepresnum = 1 
DOCKED: USER  
DOCKED: REMARK  Name = 
DOCKED: REMARK  11 active torsions:
DOCKED: REMARK  status: ('A' for Active; 'I' for Inactive)
DOCKED: REMARK    1  A    between atoms: C_2  and  O_3
DOCKED: REMARK    2  A    between atoms: O_3  and  C_4
DOCKED: REMARK    3  A    between atoms: C_4  and  C_5
DOCKED: REMARK    4  A    between atoms: C_10  and  C_11
DOCKED: REMARK    5  A    between atoms: C_11  and  N_12
DOCKED: REMARK    6  A    between atoms: N_12  and  C_13
DOCKED: REMARK    7  A    between atoms: N_12  and  C_15
DOCKED: REMARK    8  A    between atoms: C_13  and  C_14
DOCKED: REMARK    9  A    between atoms: C_15  and  C_16
DOCKED: REMARK   10  A    between atoms: N_21  and  C_22
DOCKED: REMARK   11  A    between atoms: C_25  and  C_26
DOCKED: REMARK                            x       y       z     vdW  Elec       q    Type
DOCKED: REMARK                         _______ _______ _______ _____ _____    ______ ____
DOCKED: USER                              x       y       z     vdW  Elec       q    Type
DOCKED: USER                           _______ _______ _______ _____ _____    ______ ____
DOCKED: ROOT
DOCKED: ATOM      1  C   UNL     1      27.539 -14.510  -0.397 -0.26 -0.00    +0.000 C 
DOCKED: ENDROOT
DOCKED: BRANCH   1   2
DOCKED: ATOM      2  C   UNL     1      27.044 -13.120  -0.104 -0.21 -0.00    +0.000 A 
DOCKED: ATOM      3  C   UNL     1      26.546 -12.792   1.167 -0.31 -0.00    +0.000 A 
DOCKED: ATOM      4  C   UNL     1      26.106 -11.495   1.442 -0.35 +0.00    +0.000 A 
DOCKED: ATOM      5  C   UNL     1      26.161 -10.505   0.450 -0.26 +0.00    +0.000 A 
DOCKED: ATOM      6  C   UNL     1      25.727  -9.199   0.720 -0.20 +0.00    +0.000 A 
DOCKED: ATOM      7  C   UNL     1      25.789  -8.211  -0.275 -0.25 +0.00    +0.000 A 
DOCKED: ATOM      8  C   UNL     1      26.282  -8.539  -1.548 -0.16 -0.00    +0.000 A 
DOCKED: ATOM      9  C   UNL     1      26.717  -9.838  -1.825 -0.12 -0.00    +0.000 A 
DOCKED: ATOM     10  C   UNL     1      26.661 -10.827  -0.834 +0.05 -0.00    +0.000 A 
DOCKED: ATOM     11  C   UNL     1      27.098 -12.133  -1.102 -0.07 -0.00    +0.000 A 
DOCKED: BRANCH   7  12
DOCKED: ATOM     12  C   UNL     1      25.305  -6.814   0.020 -0.23 +0.00    +0.000 C 
DOCKED: BRANCH  12  13
DOCKED: ATOM     13  N   UNL     1      24.441  -6.312  -1.070 -0.23 +0.00    +0.000 N 
DOCKED: ATOM     14  H   UNL     1      23.995  -7.165  -1.407 -0.59 -0.00    +0.000 HD
DOCKED: BRANCH  13  15
DOCKED: ATOM     15  C   UNL     1      23.294  -5.479  -0.635 -0.14 +0.00    +0.000 C 
DOCKED: ATOM     16  C   UNL     1      22.314  -5.101  -1.757 -0.25 -0.00    +0.000 C 
DOCKED: ENDBRANCH  13  15
DOCKED: BRANCH  13  17
DOCKED: ATOM     17  C   UNL     1      25.154  -5.815  -2.271 -0.13 -0.00    +0.000 C 
DOCKED: ATOM     18  C   UNL     1      24.695  -6.451  -3.586 -0.15 -0.00    +0.000 C 
DOCKED: ENDBRANCH  13  17
DOCKED: ENDBRANCH  12  13
DOCKED: ENDBRANCH   7  12
DOCKED: ENDBRANCH   1   2
DOCKED: BRANCH   1  19
DOCKED: ATOM     19  O   UNL     1      27.089 -14.941  -1.680 -0.27 -0.00    +0.000 OA
DOCKED: BRANCH  19  21
DOCKED: ATOM     20  O   UNL     1      25.367 -15.801  -2.958 -0.58 -0.00    +0.000 OA
DOCKED: ATOM     21  C   UNL     1      26.000 -15.799  -1.865 -0.49 -0.00    +0.000 C 
DOCKED: ATOM     22  N   UNL     1      25.640 -16.705  -0.815 -0.50 -0.00    +0.000 N 
DOCKED: ATOM     23  H   UNL     1      26.278 -16.830  -0.077 -0.02 -0.00    +0.000 HD
DOCKED: BRANCH  22  24
DOCKED: ATOM     24  C   UNL     1      24.406 -17.443  -0.769 -0.64 -0.00    +0.000 A 
DOCKED: ATOM     25  C   UNL     1      23.191 -16.748  -0.723 -0.41 -0.00    +0.000 A 
DOCKED: ATOM     26  C   UNL     1      21.976 -17.440  -0.706 -0.64 -0.00    +0.000 A 
DOCKED: ATOM     27  C   UNL     1      21.955 -18.845  -0.747 -0.75 -0.00    +0.000 A 
DOCKED: ATOM     28  C   UNL     1      23.175 -19.539  -0.827 -0.46 -0.00    +0.000 A 
DOCKED: ATOM     29  C   UNL     1      24.389 -18.847  -0.840 -0.53 -0.00    +0.000 A 
DOCKED: BRANCH  27  30
DOCKED: ATOM     30  C   UNL     1      20.674 -19.595  -0.744 -0.87 -0.00    +0.000 C 
DOCKED: ATOM     31  N   UNL     1      20.156 -20.180   0.456 -0.71 -0.00    +0.000 N 
DOCKED: ATOM     32  O   UNL     1      18.938 -20.769   0.453 -0.90 -0.00    +0.000 OA
DOCKED: ATOM     33  O   UNL     1      20.033 -19.734  -1.821 -2.39 -0.00    +0.000 OA
DOCKED: ATOM     34  H   UNL     1      20.687 -20.153   1.285 -0.43 -0.00    +0.000 HD
DOCKED: ENDBRANCH  27  30
DOCKED: ENDBRANCH  22  24
DOCKED: ENDBRANCH  19  21
DOCKED: ENDBRANCH   1  19
DOCKED: TORSDOF 9
DOCKED: TER
DOCKED: ENDMDL
________________________________________________________________________________


	BEGINNING GENETIC ALGORITHM DOCKING 51 of 100
Run: 51 Seed: 1340813493 1108293172 [ Run 51 of 100 GA/GALS ]
Beginning LAMARCKIAN GENETIC ALGORITHM (LGA), with a maximum of 2500000 energy evaluations.

Final-Value: -15.752


	FINAL GENETIC ALGORITHM DOCKED STATE
	_______________________________________________


Detailed state:  trans 25.699 -14.373 -0.350 quatxyzw 0.330280 -0.109895 0.809584 0.472664 center 1.436 0.069 -0.007 ntor 9 135.2474 -159.9299 135.9000 -11.2073 -86.9045 155.1992 156.4990 6.3873 150.1555
State:	 25.699 -14.373  -0.350   0.375 -0.125  0.919 123.585    135.25 -159.93  135.90  -11.21  -86.90  155.20  156.50    6.39  150.16

DOCKED: MODEL       51
DOCKED: USER    Run = 51
DOCKED: USER    DPF = ligand_dock.biased.dpf
DOCKED: USER  
DOCKED: USER    Estimated Free Energy of Binding    =  -11.56 kcal/mol  [=(1)+(2)+(3)-(4)]
DOCKED: USER    Estimated Inhibition Constant, Ki   =    3.34 nM (nanomolar)  [Temperature = 298.15 K]
DOCKED: USER    
DOCKED: USER    (1) Final Intermolecular Energy     =  -14.25 kcal/mol
DOCKED: USER        vdW + Hbond + desolv Energy     =  -14.25 kcal/mol
DOCKED: USER        Electrostatic Energy            =   +0.00 kcal/mol
DOCKED: USER    (2) Final Total Internal Energy     =   -1.50 kcal/mol
DOCKED: USER    (3) Torsional Free Energy           =   +2.68 kcal/mol
DOCKED: USER    (4) Unbound System's Energy  [=(2)] =   -1.50 kcal/mol
DOCKED: USER    
DOCKED: USER    
DOCKED: USER    NEWDPF move ligand.pdbqt
DOCKED: USER    NEWDPF about 1.436000 0.069000 -0.007000
DOCKED: USER    NEWDPF tran0 25.698791 -14.372560 -0.349936
DOCKED: USER    NEWDPF quaternion0 0.330280 -0.109895 0.809584 0.472664
DOCKED: USER    NEWDPF axisangle0 0.374789 -0.124705 0.918685 123.585282
DOCKED: USER    NEWDPF quat0 0.374789 -0.124705 0.918685 123.585282
DOCKED: USER    NEWDPF dihe0 135.25 -159.93 135.90 -11.21 -86.90 155.20 156.50 6.39 150.16 
DOCKED: USER  keepresnum = 1 
DOCKED: USER  
DOCKED: REMARK  Name = 
DOCKED: REMARK  11 active torsions:
DOCKED: REMARK  status: ('A' for Active; 'I' for Inactive)
DOCKED: REMARK    1  A    between atoms: C_2  and  O_3
DOCKED: REMARK    2  A    between atoms: O_3  and  C_4
DOCKED: REMARK    3  A    between atoms: C_4  and  C_5
DOCKED: REMARK    4  A    between atoms: C_10  and  C_11
DOCKED: REMARK    5  A    between atoms: C_11  and  N_12
DOCKED: REMARK    6  A    between atoms: N_12  and  C_13
DOCKED: REMARK    7  A    between atoms: N_12  and  C_15
DOCKED: REMARK    8  A    between atoms: C_13  and  C_14
DOCKED: REMARK    9  A    between atoms: C_15  and  C_16
DOCKED: REMARK   10  A    between atoms: N_21  and  C_22
DOCKED: REMARK   11  A    between atoms: C_25  and  C_26
DOCKED: REMARK                            x       y       z     vdW  Elec       q    Type
DOCKED: REMARK                         _______ _______ _______ _____ _____    ______ ____
DOCKED: USER                              x       y       z     vdW  Elec       q    Type
DOCKED: USER                           _______ _______ _______ _____ _____    ______ ____
DOCKED: ROOT
DOCKED: ATOM      1  C   UNL     1      28.462 -16.696  -1.904 -0.31 -0.00    +0.000 C 
DOCKED: ENDROOT
DOCKED: BRANCH   1   2
DOCKED: ATOM      2  C   UNL     1      27.964 -15.298  -2.154 -0.21 -0.00    +0.000 A 
DOCKED: ATOM      3  C   UNL     1      27.905 -14.364  -1.108 -0.16 -0.00    +0.000 A 
DOCKED: ATOM      4  C   UNL     1      27.463 -13.060  -1.347 -0.14 -0.00    +0.000 A 
DOCKED: ATOM      5  C   UNL     1      27.075 -12.672  -2.638 -0.14 -0.00    +0.000 A 
DOCKED: ATOM      6  C   UNL     1      26.634 -11.363  -2.887 +0.06 -0.00    +0.000 A 
DOCKED: ATOM      7  C   UNL     1      26.252 -10.978  -4.182 -0.21 -0.00    +0.000 A 
DOCKED: ATOM      8  C   UNL     1      26.304 -11.914  -5.227 -0.22 -0.00    +0.000 A 
DOCKED: ATOM      9  C   UNL     1      26.742 -13.219  -4.987 -0.22 -0.00    +0.000 A 
DOCKED: ATOM     10  C   UNL     1      27.130 -13.607  -3.697 -0.24 -0.00    +0.000 A 
DOCKED: ATOM     11  C   UNL     1      27.574 -14.915  -3.447 -0.27 -0.00    +0.000 A 
DOCKED: BRANCH   7  12
DOCKED: ATOM     12  C   UNL     1      25.764  -9.575  -4.436 -0.24 -0.00    +0.000 C 
DOCKED: BRANCH  12  13
DOCKED: ATOM     13  N   UNL     1      24.877  -9.528  -5.618 -0.28 -0.00    +0.000 N 
DOCKED: ATOM     14  H   UNL     1      24.393 -10.424  -5.565 -0.04 -0.00    +0.000 HD
DOCKED: BRANCH  13  15
DOCKED: ATOM     15  C   UNL     1      23.773  -8.542  -5.542 -0.38 -0.00    +0.000 C 
DOCKED: ATOM     16  C   UNL     1      22.901  -8.456  -6.805 -0.42 -0.00    +0.000 C 
DOCKED: ENDBRANCH  13  15
DOCKED: BRANCH  13  17
DOCKED: ATOM     17  C   UNL     1      25.561  -9.601  -6.932 -0.22 -0.00    +0.000 C 
DOCKED: ATOM     18  C   UNL     1      25.032 -10.699  -7.858 -0.30 -0.00    +0.000 C 
DOCKED: ENDBRANCH  13  17
DOCKED: ENDBRANCH  12  13
DOCKED: ENDBRANCH   7  12
DOCKED: ENDBRANCH   1   2
DOCKED: BRANCH   1  19
DOCKED: ATOM     19  O   UNL     1      28.084 -17.134  -0.600 -0.42 -0.00    +0.000 OA
DOCKED: BRANCH  19  21
DOCKED: ATOM     20  O   UNL     1      26.574 -18.245   0.750 -0.61 -0.00    +0.000 OA
DOCKED: ATOM     21  C   UNL     1      26.783 -17.528  -0.268 -0.55 -0.00    +0.000 C 
DOCKED: ATOM     22  N   UNL     1      25.690 -17.073  -1.075 -0.54 -0.00    +0.000 N 
DOCKED: ATOM     23  H   UNL     1      25.863 -16.349  -1.718 -0.01 -0.00    +0.000 HD
DOCKED: BRANCH  22  24
DOCKED: ATOM     24  C   UNL     1      24.356 -17.604  -1.005 -0.66 -0.00    +0.000 A 
DOCKED: ATOM     25  C   UNL     1      24.153 -18.979  -1.181 -0.44 -0.00    +0.000 A 
DOCKED: ATOM     26  C   UNL     1      22.869 -19.526  -1.091 -0.43 -0.00    +0.000 A 
DOCKED: ATOM     27  C   UNL     1      21.763 -18.707  -0.809 -0.76 -0.00    +0.000 A 
DOCKED: ATOM     28  C   UNL     1      21.972 -17.333  -0.598 -0.60 -0.00    +0.000 A 
DOCKED: ATOM     29  C   UNL     1      23.255 -16.785  -0.693 -0.43 -0.00    +0.000 A 
DOCKED: BRANCH  27  30
DOCKED: ATOM     30  C   UNL     1      20.396 -19.274  -0.696 -0.90 -0.00    +0.000 C 
DOCKED: ATOM     31  N   UNL     1      19.707 -19.316   0.559 -0.62 -0.00    +0.000 N 
DOCKED: ATOM     32  O   UNL     1      18.425 -19.744   0.616 -0.75 -0.00    +0.000 OA
DOCKED: ATOM     33  O   UNL     1      19.831 -19.743  -1.722 -2.32 -0.00    +0.000 OA
DOCKED: ATOM     34  H   UNL     1      20.168 -19.033   1.382 -0.26 -0.00    +0.000 HD
DOCKED: ENDBRANCH  27  30
DOCKED: ENDBRANCH  22  24
DOCKED: ENDBRANCH  19  21
DOCKED: ENDBRANCH   1  19
DOCKED: TORSDOF 9
DOCKED: TER
DOCKED: ENDMDL
________________________________________________________________________________


	BEGINNING GENETIC ALGORITHM DOCKING 52 of 100
Run: 52 Seed: 214108429 113474248 [ Run 52 of 100 GA/GALS ]
Beginning LAMARCKIAN GENETIC ALGORITHM (LGA), with a maximum of 2500000 energy evaluations.

Final-Value: -16.048


	FINAL GENETIC ALGORITHM DOCKED STATE
	_______________________________________________


Detailed state:  trans 27.417 -17.303 -4.562 quatxyzw -0.067620 -0.879763 -0.455417 -0.118489 center 1.436 0.069 -0.007 ntor 9 -126.8079 101.6297 -65.8409 -30.7831 -154.4889 116.1446 -130.4257 5.2344 -10.4978
State:	 27.417 -17.303  -4.562  -0.068 -0.886 -0.459 -166.390   -126.81  101.63  -65.84  -30.78 -154.49  116.14 -130.43    5.23  -10.50

DOCKED: MODEL       52
DOCKED: USER    Run = 52
DOCKED: USER    DPF = ligand_dock.biased.dpf
DOCKED: USER  
DOCKED: USER    Estimated Free Energy of Binding    =  -11.68 kcal/mol  [=(1)+(2)+(3)-(4)]
DOCKED: USER    Estimated Inhibition Constant, Ki   =    2.74 nM (nanomolar)  [Temperature = 298.15 K]
DOCKED: USER    
DOCKED: USER    (1) Final Intermolecular Energy     =  -14.37 kcal/mol
DOCKED: USER        vdW + Hbond + desolv Energy     =  -14.37 kcal/mol
DOCKED: USER        Electrostatic Energy            =   +0.00 kcal/mol
DOCKED: USER    (2) Final Total Internal Energy     =   -1.68 kcal/mol
DOCKED: USER    (3) Torsional Free Energy           =   +2.68 kcal/mol
DOCKED: USER    (4) Unbound System's Energy  [=(2)] =   -1.68 kcal/mol
DOCKED: USER    
DOCKED: USER    
DOCKED: USER    NEWDPF move ligand.pdbqt
DOCKED: USER    NEWDPF about 1.436000 0.069000 -0.007000
DOCKED: USER    NEWDPF tran0 27.416650 -17.302553 -4.562353
DOCKED: USER    NEWDPF quaternion0 -0.067620 -0.879763 -0.455417 -0.118489
DOCKED: USER    NEWDPF axisangle0 -0.068099 -0.886005 -0.458648 -166.390171
DOCKED: USER    NEWDPF quat0 -0.068099 -0.886005 -0.458648 -166.390171
DOCKED: USER    NEWDPF dihe0 -126.81 101.63 -65.84 -30.78 -154.49 116.14 -130.43 5.23 -10.50 
DOCKED: USER  keepresnum = 1 
DOCKED: USER  
DOCKED: REMARK  Name = 
DOCKED: REMARK  11 active torsions:
DOCKED: REMARK  status: ('A' for Active; 'I' for Inactive)
DOCKED: REMARK    1  A    between atoms: C_2  and  O_3
DOCKED: REMARK    2  A    between atoms: O_3  and  C_4
DOCKED: REMARK    3  A    between atoms: C_4  and  C_5
DOCKED: REMARK    4  A    between atoms: C_10  and  C_11
DOCKED: REMARK    5  A    between atoms: C_11  and  N_12
DOCKED: REMARK    6  A    between atoms: N_12  and  C_13
DOCKED: REMARK    7  A    between atoms: N_12  and  C_15
DOCKED: REMARK    8  A    between atoms: C_13  and  C_14
DOCKED: REMARK    9  A    between atoms: C_15  and  C_16
DOCKED: REMARK   10  A    between atoms: N_21  and  C_22
DOCKED: REMARK   11  A    between atoms: C_25  and  C_26
DOCKED: REMARK                            x       y       z     vdW  Elec       q    Type
DOCKED: REMARK                         _______ _______ _______ _____ _____    ______ ____
DOCKED: USER                              x       y       z     vdW  Elec       q    Type
DOCKED: USER                           _______ _______ _______ _____ _____    ______ ____
DOCKED: ROOT
DOCKED: ATOM      1  C   UNL     1      27.924 -14.824  -1.554 -0.21 -0.00    +0.000 C 
DOCKED: ENDROOT
DOCKED: BRANCH   1   2
DOCKED: ATOM      2  C   UNL     1      28.824 -15.652  -2.432 -0.18 -0.00    +0.000 A 
DOCKED: ATOM      3  C   UNL     1      29.438 -16.811  -1.932 -0.22 -0.00    +0.000 A 
DOCKED: ATOM      4  C   UNL     1      30.256 -17.591  -2.754 -0.14 -0.00    +0.000 A 
DOCKED: ATOM      5  C   UNL     1      30.468 -17.222  -4.091 -0.20 -0.00    +0.000 A 
DOCKED: ATOM      6  C   UNL     1      31.283 -18.002  -4.925 -0.19 -0.00    +0.000 A 
DOCKED: ATOM      7  C   UNL     1      31.488 -17.632  -6.263 -0.20 -0.00    +0.000 A 
DOCKED: ATOM      8  C   UNL     1      30.879 -16.470  -6.762 -0.27 -0.00    +0.000 A 
DOCKED: ATOM      9  C   UNL     1      30.065 -15.688  -5.938 -0.27 -0.00    +0.000 A 
DOCKED: ATOM     10  C   UNL     1      29.853 -16.056  -4.602 -0.22 -0.00    +0.000 A 
DOCKED: ATOM     11  C   UNL     1      29.035 -15.278  -3.768 -0.19 -0.00    +0.000 A 
DOCKED: BRANCH   7  12
DOCKED: ATOM     12  C   UNL     1      32.379 -18.467  -7.147 -0.14 -0.00    +0.000 C 
DOCKED: BRANCH  12  13
DOCKED: ATOM     13  N   UNL     1      31.786 -18.634  -8.492 -0.25 -0.00    +0.000 N 
DOCKED: ATOM     14  H   UNL     1      31.063 -17.915  -8.503 -0.03 -0.00    +0.000 HD
DOCKED: BRANCH  13  15
DOCKED: ATOM     15  C   UNL     1      32.665 -18.248  -9.622 -0.20 -0.00    +0.000 C 
DOCKED: ATOM     16  C   UNL     1      32.637 -16.751  -9.972 -0.20 -0.00    +0.000 C 
DOCKED: ENDBRANCH  13  15
DOCKED: BRANCH  13  17
DOCKED: ATOM     17  C   UNL     1      31.014 -19.883  -8.698 -0.37 -0.00    +0.000 C 
DOCKED: ATOM     18  C   UNL     1      30.378 -20.449  -7.426 -0.40 -0.00    +0.000 C 
DOCKED: ENDBRANCH  13  17
DOCKED: ENDBRANCH  12  13
DOCKED: ENDBRANCH   7  12
DOCKED: ENDBRANCH   1   2
DOCKED: BRANCH   1  19
DOCKED: ATOM     19  O   UNL     1      26.655 -14.636  -2.178 -0.31 -0.00    +0.000 OA
DOCKED: BRANCH  19  21
DOCKED: ATOM     20  O   UNL     1      25.185 -15.941  -3.391 -0.59 -0.00    +0.000 OA
DOCKED: ATOM     21  C   UNL     1      25.688 -15.642  -2.272 -0.52 -0.00    +0.000 C 
DOCKED: ATOM     22  N   UNL     1      25.307 -16.357  -1.090 -0.50 -0.00    +0.000 N 
DOCKED: ATOM     23  H   UNL     1      25.869 -16.251  -0.288 -0.02 -0.00    +0.000 HD
DOCKED: BRANCH  22  24
DOCKED: ATOM     24  C   UNL     1      24.159 -17.218  -0.997 -0.63 -0.00    +0.000 A 
DOCKED: ATOM     25  C   UNL     1      22.951 -16.703  -0.508 -0.21 -0.00    +0.000 A 
DOCKED: ATOM     26  C   UNL     1      21.812 -17.511  -0.434 -0.58 -0.00    +0.000 A 
DOCKED: ATOM     27  C   UNL     1      21.857 -18.849  -0.862 -0.75 -0.00    +0.000 A 
DOCKED: ATOM     28  C   UNL     1      23.061 -19.353  -1.385 -0.59 -0.00    +0.000 A 
DOCKED: ATOM     29  C   UNL     1      24.201 -18.547  -1.454 -0.54 -0.00    +0.000 A 
DOCKED: BRANCH  27  30
DOCKED: ATOM     30  C   UNL     1      20.654 -19.715  -0.803 -0.85 -0.00    +0.000 C 
DOCKED: ATOM     31  N   UNL     1      20.360 -20.505   0.354 -0.67 -0.00    +0.000 N 
DOCKED: ATOM     32  O   UNL     1      19.205 -21.207   0.422 -0.83 -0.00    +0.000 OA
DOCKED: ATOM     33  O   UNL     1      19.879 -19.771  -1.797 -2.36 -0.00    +0.000 OA
DOCKED: ATOM     34  H   UNL     1      20.999 -20.538   1.103 -0.57 -0.00    +0.000 HD
DOCKED: ENDBRANCH  27  30
DOCKED: ENDBRANCH  22  24
DOCKED: ENDBRANCH  19  21
DOCKED: ENDBRANCH   1  19
DOCKED: TORSDOF 9
DOCKED: TER
DOCKED: ENDMDL
________________________________________________________________________________


	BEGINNING GENETIC ALGORITHM DOCKING 53 of 100
Run: 53 Seed: 1621933060 487009498 [ Run 53 of 100 GA/GALS ]
Beginning LAMARCKIAN GENETIC ALGORITHM (LGA), with a maximum of 2500000 energy evaluations.

Final-Value: -14.758


	FINAL GENETIC ALGORITHM DOCKED STATE
	_______________________________________________


Detailed state:  trans 28.951 -19.005 -0.197 quatxyzw 0.378546 0.819307 0.005946 0.430586 center 1.436 0.069 -0.007 ntor 9 -161.0065 -97.9408 150.2742 -10.8237 18.4326 156.3372 -52.5041 -100.1164 -137.3542
State:	 28.951 -19.005  -0.197   0.419  0.908  0.007 128.991   -161.01  -97.94  150.27  -10.82   18.43  156.34  -52.50 -100.12 -137.35

DOCKED: MODEL       53
DOCKED: USER    Run = 53
DOCKED: USER    DPF = ligand_dock.biased.dpf
DOCKED: USER  
DOCKED: USER    Estimated Free Energy of Binding    =  -10.20 kcal/mol  [=(1)+(2)+(3)-(4)]
DOCKED: USER    Estimated Inhibition Constant, Ki   =   33.14 nM (nanomolar)  [Temperature = 298.15 K]
DOCKED: USER    
DOCKED: USER    (1) Final Intermolecular Energy     =  -12.89 kcal/mol
DOCKED: USER        vdW + Hbond + desolv Energy     =  -12.89 kcal/mol
DOCKED: USER        Electrostatic Energy            =   +0.00 kcal/mol
DOCKED: USER    (2) Final Total Internal Energy     =   -1.87 kcal/mol
DOCKED: USER    (3) Torsional Free Energy           =   +2.68 kcal/mol
DOCKED: USER    (4) Unbound System's Energy  [=(2)] =   -1.87 kcal/mol
DOCKED: USER    
DOCKED: USER    
DOCKED: USER    NEWDPF move ligand.pdbqt
DOCKED: USER    NEWDPF about 1.436000 0.069000 -0.007000
DOCKED: USER    NEWDPF tran0 28.950627 -19.004662 -0.197329
DOCKED: USER    NEWDPF quaternion0 0.378546 0.819307 0.005946 0.430586
DOCKED: USER    NEWDPF axisangle0 0.419418 0.907769 0.006588 128.990503
DOCKED: USER    NEWDPF quat0 0.419418 0.907769 0.006588 128.990503
DOCKED: USER    NEWDPF dihe0 -161.01 -97.94 150.27 -10.82 18.43 156.34 -52.50 -100.12 -137.35 
DOCKED: USER  keepresnum = 1 
DOCKED: USER  
DOCKED: REMARK  Name = 
DOCKED: REMARK  11 active torsions:
DOCKED: REMARK  status: ('A' for Active; 'I' for Inactive)
DOCKED: REMARK    1  A    between atoms: C_2  and  O_3
DOCKED: REMARK    2  A    between atoms: O_3  and  C_4
DOCKED: REMARK    3  A    between atoms: C_4  and  C_5
DOCKED: REMARK    4  A    between atoms: C_10  and  C_11
DOCKED: REMARK    5  A    between atoms: C_11  and  N_12
DOCKED: REMARK    6  A    between atoms: N_12  and  C_13
DOCKED: REMARK    7  A    between atoms: N_12  and  C_15
DOCKED: REMARK    8  A    between atoms: C_13  and  C_14
DOCKED: REMARK    9  A    between atoms: C_15  and  C_16
DOCKED: REMARK   10  A    between atoms: N_21  and  C_22
DOCKED: REMARK   11  A    between atoms: C_25  and  C_26
DOCKED: REMARK                            x       y       z     vdW  Elec       q    Type
DOCKED: REMARK                         _______ _______ _______ _____ _____    ______ ____
DOCKED: USER                              x       y       z     vdW  Elec       q    Type
DOCKED: USER                           _______ _______ _______ _____ _____    ______ ____
DOCKED: ROOT
DOCKED: ATOM      1  C   UNL     1      31.080 -15.911  -1.356 -0.08 -0.00    +0.000 C 
DOCKED: ENDROOT
DOCKED: BRANCH   1   2
DOCKED: ATOM      2  C   UNL     1      31.083 -17.389  -1.640 -0.14 -0.00    +0.000 A 
DOCKED: ATOM      3  C   UNL     1      31.035 -17.861  -2.961 -0.15 -0.00    +0.000 A 
DOCKED: ATOM      4  C   UNL     1      31.060 -19.234  -3.224 -0.01 -0.00    +0.000 A 
DOCKED: ATOM      5  C   UNL     1      31.137 -20.153  -2.167 +0.01 -0.00    +0.000 A 
DOCKED: ATOM      6  C   UNL     1      31.168 -21.532  -2.422 -0.01 -0.00    +0.000 A 
DOCKED: ATOM      7  C   UNL     1      31.251 -22.448  -1.362 -0.13 -0.00    +0.000 A 
DOCKED: ATOM      8  C   UNL     1      31.294 -21.976  -0.041 -0.20 -0.00    +0.000 A 
DOCKED: ATOM      9  C   UNL     1      31.263 -20.604   0.222 -0.18 -0.00    +0.000 A 
DOCKED: ATOM     10  C   UNL     1      31.186 -19.685  -0.833 -0.17 -0.00    +0.000 A 
DOCKED: ATOM     11  C   UNL     1      31.158 -18.305  -0.580 -0.16 -0.00    +0.000 A 
DOCKED: BRANCH   7  12
DOCKED: ATOM     12  C   UNL     1      31.267 -23.928  -1.646 -0.16 -0.00    +0.000 C 
DOCKED: BRANCH  12  13
DOCKED: ATOM     13  N   UNL     1      30.173 -24.303  -2.568 -0.23 -0.00    +0.000 N 
DOCKED: ATOM     14  H   UNL     1      30.116 -23.490  -3.182 -0.01 -0.00    +0.000 HD
DOCKED: BRANCH  13  15
DOCKED: ATOM     15  C   UNL     1      30.486 -25.411  -3.502 -0.17 -0.00    +0.000 C 
DOCKED: ATOM     16  C   UNL     1      30.412 -25.035  -4.990 -0.22 -0.00    +0.000 C 
DOCKED: ENDBRANCH  13  15
DOCKED: BRANCH  13  17
DOCKED: ATOM     17  C   UNL     1      28.820 -24.356  -1.965 -0.30 -0.00    +0.000 C 
DOCKED: ATOM     18  C   UNL     1      27.744 -24.944  -2.880 -0.52 -0.00    +0.000 C 
DOCKED: ENDBRANCH  13  17
DOCKED: ENDBRANCH  12  13
DOCKED: ENDBRANCH   7  12
DOCKED: ENDBRANCH   1   2
DOCKED: BRANCH   1  19
DOCKED: ATOM     19  O   UNL     1      29.817 -15.507  -0.827 -0.14 -0.00    +0.000 OA
DOCKED: BRANCH  19  21
DOCKED: ATOM     20  O   UNL     1      28.315 -16.330  -2.378 -0.30 -0.00    +0.000 OA
DOCKED: ATOM     21  C   UNL     1      28.609 -16.125  -1.167 -0.28 -0.00    +0.000 C 
DOCKED: ATOM     22  N   UNL     1      27.729 -16.559  -0.123 -0.35 -0.00    +0.000 N 
DOCKED: ATOM     23  H   UNL     1      28.083 -16.582   0.795 -0.52 -0.00    +0.000 HD
DOCKED: BRANCH  22  24
DOCKED: ATOM     24  C   UNL     1      26.364 -16.961  -0.328 -0.47 -0.00    +0.000 A 
DOCKED: ATOM     25  C   UNL     1      25.482 -16.092  -0.984 -0.45 -0.00    +0.000 A 
DOCKED: ATOM     26  C   UNL     1      24.157 -16.470  -1.221 -0.34 -0.00    +0.000 A 
DOCKED: ATOM     27  C   UNL     1      23.692 -17.734  -0.816 -0.69 -0.00    +0.000 A 
DOCKED: ATOM     28  C   UNL     1      24.587 -18.617  -0.189 -0.48 -0.00    +0.000 A 
DOCKED: ATOM     29  C   UNL     1      25.911 -18.237   0.052 -0.59 -0.00    +0.000 A 
DOCKED: BRANCH  27  30
DOCKED: ATOM     30  C   UNL     1      22.292 -18.155  -1.073 -0.76 -0.00    +0.000 C 
DOCKED: ATOM     31  N   UNL     1      21.995 -19.377  -1.758 -0.58 -0.00    +0.000 N 
DOCKED: ATOM     32  O   UNL     1      20.713 -19.787  -1.889 -1.94 -0.00    +0.000 OA
DOCKED: ATOM     33  O   UNL     1      21.342 -17.417  -0.694 -1.74 -0.00    +0.000 OA
DOCKED: ATOM     34  H   UNL     1      22.726 -19.919  -2.135 -0.44 -0.00    +0.000 HD
DOCKED: ENDBRANCH  27  30
DOCKED: ENDBRANCH  22  24
DOCKED: ENDBRANCH  19  21
DOCKED: ENDBRANCH   1  19
DOCKED: TORSDOF 9
DOCKED: TER
DOCKED: ENDMDL
________________________________________________________________________________


	BEGINNING GENETIC ALGORITHM DOCKING 54 of 100
Run: 54 Seed: 1899912085 798111676 [ Run 54 of 100 GA/GALS ]
Beginning LAMARCKIAN GENETIC ALGORITHM (LGA), with a maximum of 2500000 energy evaluations.

Final-Value: -15.183


	FINAL GENETIC ALGORITHM DOCKED STATE
	_______________________________________________


Detailed state:  trans 27.190 -14.884 -2.649 quatxyzw -0.386509 -0.267610 -0.769176 -0.432855 center 1.436 0.069 -0.007 ntor 9 141.3291 125.3259 136.8229 -173.9227 -1.2963 -54.3789 -162.9309 -20.2067 -11.0952
State:	 27.190 -14.884  -2.649  -0.429 -0.297 -0.853 -128.702    141.33  125.33  136.82 -173.92   -1.30  -54.38 -162.93  -20.21  -11.10

DOCKED: MODEL       54
DOCKED: USER    Run = 54
DOCKED: USER    DPF = ligand_dock.biased.dpf
DOCKED: USER  
DOCKED: USER    Estimated Free Energy of Binding    =  -10.57 kcal/mol  [=(1)+(2)+(3)-(4)]
DOCKED: USER    Estimated Inhibition Constant, Ki   =   17.89 nM (nanomolar)  [Temperature = 298.15 K]
DOCKED: USER    
DOCKED: USER    (1) Final Intermolecular Energy     =  -13.25 kcal/mol
DOCKED: USER        vdW + Hbond + desolv Energy     =  -13.25 kcal/mol
DOCKED: USER        Electrostatic Energy            =   +0.00 kcal/mol
DOCKED: USER    (2) Final Total Internal Energy     =   -1.93 kcal/mol
DOCKED: USER    (3) Torsional Free Energy           =   +2.68 kcal/mol
DOCKED: USER    (4) Unbound System's Energy  [=(2)] =   -1.93 kcal/mol
DOCKED: USER    
DOCKED: USER    
DOCKED: USER    NEWDPF move ligand.pdbqt
DOCKED: USER    NEWDPF about 1.436000 0.069000 -0.007000
DOCKED: USER    NEWDPF tran0 27.189629 -14.883819 -2.649020
DOCKED: USER    NEWDPF quaternion0 -0.386509 -0.267610 -0.769176 -0.432855
DOCKED: USER    NEWDPF axisangle0 -0.428757 -0.296862 -0.853253 -128.702202
DOCKED: USER    NEWDPF quat0 -0.428757 -0.296862 -0.853253 -128.702202
DOCKED: USER    NEWDPF dihe0 141.33 125.33 136.82 -173.92 -1.30 -54.38 -162.93 -20.21 -11.10 
DOCKED: USER  keepresnum = 1 
DOCKED: USER  
DOCKED: REMARK  Name = 
DOCKED: REMARK  11 active torsions:
DOCKED: REMARK  status: ('A' for Active; 'I' for Inactive)
DOCKED: REMARK    1  A    between atoms: C_2  and  O_3
DOCKED: REMARK    2  A    between atoms: O_3  and  C_4
DOCKED: REMARK    3  A    between atoms: C_4  and  C_5
DOCKED: REMARK    4  A    between atoms: C_10  and  C_11
DOCKED: REMARK    5  A    between atoms: C_11  and  N_12
DOCKED: REMARK    6  A    between atoms: N_12  and  C_13
DOCKED: REMARK    7  A    between atoms: N_12  and  C_15
DOCKED: REMARK    8  A    between atoms: C_13  and  C_14
DOCKED: REMARK    9  A    between atoms: C_15  and  C_16
DOCKED: REMARK   10  A    between atoms: N_21  and  C_22
DOCKED: REMARK   11  A    between atoms: C_25  and  C_26
DOCKED: REMARK                            x       y       z     vdW  Elec       q    Type
DOCKED: REMARK                         _______ _______ _______ _____ _____    ______ ____
DOCKED: USER                              x       y       z     vdW  Elec       q    Type
DOCKED: USER                           _______ _______ _______ _____ _____    ______ ____
DOCKED: ROOT
DOCKED: ATOM      1  C   UNL     1      30.583 -16.722  -1.905 -0.15 -0.00    +0.000 C 
DOCKED: ENDROOT
DOCKED: BRANCH   1   2
DOCKED: ATOM      2  C   UNL     1      29.990 -15.987  -3.076 -0.14 -0.00    +0.000 A 
DOCKED: ATOM      3  C   UNL     1      29.559 -16.687  -4.214 -0.23 -0.00    +0.000 A 
DOCKED: ATOM      4  C   UNL     1      28.989 -16.005  -5.292 -0.30 -0.00    +0.000 A 
DOCKED: ATOM      5  C   UNL     1      28.840 -14.611  -5.245 -0.26 -0.00    +0.000 A 
DOCKED: ATOM      6  C   UNL     1      28.264 -13.918  -6.321 -0.27 -0.00    +0.000 A 
DOCKED: ATOM      7  C   UNL     1      28.113 -12.524  -6.267 -0.19 -0.00    +0.000 A 
DOCKED: ATOM      8  C   UNL     1      28.549 -11.823  -5.132 -0.09 -0.00    +0.000 A 
DOCKED: ATOM      9  C   UNL     1      29.124 -12.505  -4.057 -0.06 -0.00    +0.000 A 
DOCKED: ATOM     10  C   UNL     1      29.273 -13.897  -4.103 -0.10 -0.00    +0.000 A 
DOCKED: ATOM     11  C   UNL     1      29.846 -14.592  -3.026 -0.07 -0.00    +0.000 A 
DOCKED: BRANCH   7  12
DOCKED: ATOM     12  C   UNL     1      27.508 -11.788  -7.435 -0.17 -0.00    +0.000 C 
DOCKED: BRANCH  12  13
DOCKED: ATOM     13  N   UNL     1      28.415 -11.810  -8.603 -0.22 -0.00    +0.000 N 
DOCKED: ATOM     14  H   UNL     1      28.474 -10.823  -8.853 +0.00 -0.00    +0.000 HD
DOCKED: BRANCH  13  15
DOCKED: ATOM     15  C   UNL     1      29.822 -12.169  -8.304 -0.18 -0.00    +0.000 C 
DOCKED: ATOM     16  C   UNL     1      30.768 -12.113  -9.514 -0.14 -0.00    +0.000 C 
DOCKED: ENDBRANCH  13  15
DOCKED: BRANCH  13  17
DOCKED: ATOM     17  C   UNL     1      27.858 -12.428  -9.831 -0.30 -0.00    +0.000 C 
DOCKED: ATOM     18  C   UNL     1      26.498 -11.870 -10.257 -0.44 -0.00    +0.000 C 
DOCKED: ENDBRANCH  13  17
DOCKED: ENDBRANCH  12  13
DOCKED: ENDBRANCH   7  12
DOCKED: ENDBRANCH   1   2
DOCKED: BRANCH   1  19
DOCKED: ATOM     19  O   UNL     1      29.904 -16.371  -0.700 -0.21 -0.00    +0.000 OA
DOCKED: BRANCH  19  21
DOCKED: ATOM     20  O   UNL     1      27.953 -15.700   0.340 -0.34 -0.00    +0.000 OA
DOCKED: ATOM     21  C   UNL     1      28.510 -16.367  -0.576 -0.29 -0.00    +0.000 C 
DOCKED: ATOM     22  N   UNL     1      27.723 -17.095  -1.526 -0.38 -0.00    +0.000 N 
DOCKED: ATOM     23  H   UNL     1      28.170 -17.417  -2.342 -0.03 -0.00    +0.000 HD
DOCKED: BRANCH  22  24
DOCKED: ATOM     24  C   UNL     1      26.325 -17.387  -1.366 -0.45 -0.00    +0.000 A 
DOCKED: ATOM     25  C   UNL     1      25.374 -16.536  -1.945 -0.52 -0.00    +0.000 A 
DOCKED: ATOM     26  C   UNL     1      24.008 -16.812  -1.829 -0.30 -0.00    +0.000 A 
DOCKED: ATOM     27  C   UNL     1      23.567 -17.955  -1.139 -0.69 -0.00    +0.000 A 
DOCKED: ATOM     28  C   UNL     1      24.524 -18.826  -0.588 -0.46 -0.00    +0.000 A 
DOCKED: ATOM     29  C   UNL     1      25.889 -18.547  -0.701 -0.47 -0.00    +0.000 A 
DOCKED: BRANCH  27  30
DOCKED: ATOM     30  C   UNL     1      22.122 -18.269  -1.018 -0.78 -0.00    +0.000 C 
DOCKED: ATOM     31  N   UNL     1      21.549 -19.407  -1.670 -0.64 -0.00    +0.000 N 
DOCKED: ATOM     32  O   UNL     1      20.252 -19.729  -1.462 -2.24 -0.00    +0.000 OA
DOCKED: ATOM     33  O   UNL     1      21.376 -17.512  -0.338 -1.59 +0.00    +0.000 OA
DOCKED: ATOM     34  H   UNL     1      22.101 -19.958  -2.273 -0.55 -0.00    +0.000 HD
DOCKED: ENDBRANCH  27  30
DOCKED: ENDBRANCH  22  24
DOCKED: ENDBRANCH  19  21
DOCKED: ENDBRANCH   1  19
DOCKED: TORSDOF 9
DOCKED: TER
DOCKED: ENDMDL
________________________________________________________________________________


	BEGINNING GENETIC ALGORITHM DOCKING 55 of 100
Run: 55 Seed: 39377463 322771341 [ Run 55 of 100 GA/GALS ]
Beginning LAMARCKIAN GENETIC ALGORITHM (LGA), with a maximum of 2500000 energy evaluations.

Final-Value: -15.590


	FINAL GENETIC ALGORITHM DOCKED STATE
	_______________________________________________


Detailed state:  trans 27.113 -14.650 2.946 quatxyzw 0.050130 -0.729974 0.483539 0.480432 center 1.436 0.069 -0.007 ntor 9 125.9906 10.9253 -0.5355 -73.7607 -91.1053 81.7178 6.3413 22.3333 -46.1992
State:	 27.113 -14.650   2.946   0.057 -0.832  0.551 122.573    125.99   10.93   -0.54  -73.76  -91.11   81.72    6.34   22.33  -46.20

DOCKED: MODEL       55
DOCKED: USER    Run = 55
DOCKED: USER    DPF = ligand_dock.biased.dpf
DOCKED: USER  
DOCKED: USER    Estimated Free Energy of Binding    =  -11.48 kcal/mol  [=(1)+(2)+(3)-(4)]
DOCKED: USER    Estimated Inhibition Constant, Ki   =    3.84 nM (nanomolar)  [Temperature = 298.15 K]
DOCKED: USER    
DOCKED: USER    (1) Final Intermolecular Energy     =  -14.17 kcal/mol
DOCKED: USER        vdW + Hbond + desolv Energy     =  -14.17 kcal/mol
DOCKED: USER        Electrostatic Energy            =   +0.00 kcal/mol
DOCKED: USER    (2) Final Total Internal Energy     =   -1.42 kcal/mol
DOCKED: USER    (3) Torsional Free Energy           =   +2.68 kcal/mol
DOCKED: USER    (4) Unbound System's Energy  [=(2)] =   -1.42 kcal/mol
DOCKED: USER    
DOCKED: USER    
DOCKED: USER    NEWDPF move ligand.pdbqt
DOCKED: USER    NEWDPF about 1.436000 0.069000 -0.007000
DOCKED: USER    NEWDPF tran0 27.112992 -14.650014 2.945863
DOCKED: USER    NEWDPF quaternion0 0.050130 -0.729974 0.483539 0.480432
DOCKED: USER    NEWDPF axisangle0 0.057159 -0.832323 0.551336 122.572744
DOCKED: USER    NEWDPF quat0 0.057159 -0.832323 0.551336 122.572744
DOCKED: USER    NEWDPF dihe0 125.99 10.93 -0.54 -73.76 -91.11 81.72 6.34 22.33 -46.20 
DOCKED: USER  keepresnum = 1 
DOCKED: USER  
DOCKED: REMARK  Name = 
DOCKED: REMARK  11 active torsions:
DOCKED: REMARK  status: ('A' for Active; 'I' for Inactive)
DOCKED: REMARK    1  A    between atoms: C_2  and  O_3
DOCKED: REMARK    2  A    between atoms: O_3  and  C_4
DOCKED: REMARK    3  A    between atoms: C_4  and  C_5
DOCKED: REMARK    4  A    between atoms: C_10  and  C_11
DOCKED: REMARK    5  A    between atoms: C_11  and  N_12
DOCKED: REMARK    6  A    between atoms: N_12  and  C_13
DOCKED: REMARK    7  A    between atoms: N_12  and  C_15
DOCKED: REMARK    8  A    between atoms: C_13  and  C_14
DOCKED: REMARK    9  A    between atoms: C_15  and  C_16
DOCKED: REMARK   10  A    between atoms: N_21  and  C_22
DOCKED: REMARK   11  A    between atoms: C_25  and  C_26
DOCKED: REMARK                            x       y       z     vdW  Elec       q    Type
DOCKED: REMARK                         _______ _______ _______ _____ _____    ______ ____
DOCKED: USER                              x       y       z     vdW  Elec       q    Type
DOCKED: USER                           _______ _______ _______ _____ _____    ______ ____
DOCKED: ROOT
DOCKED: ATOM      1  C   UNL     1      28.661 -12.960  -0.248 -0.09 -0.00    +0.000 C 
DOCKED: ENDROOT
DOCKED: BRANCH   1   2
DOCKED: ATOM      2  C   UNL     1      28.637 -12.659   1.227 -0.11 -0.00    +0.000 A 
DOCKED: ATOM      3  C   UNL     1      28.533 -11.336   1.683 -0.09 -0.00    +0.000 A 
DOCKED: ATOM      4  C   UNL     1      28.490 -11.059   3.052 -0.15 +0.00    +0.000 A 
DOCKED: ATOM      5  C   UNL     1      28.547 -12.105   3.984 -0.22 -0.00    +0.000 A 
DOCKED: ATOM      6  C   UNL     1      28.499 -11.838   5.361 -0.31 +0.00    +0.000 A 
DOCKED: ATOM      7  C   UNL     1      28.551 -12.888   6.290 -0.39 -0.00    +0.000 A 
DOCKED: ATOM      8  C   UNL     1      28.661 -14.211   5.835 +0.05 -0.00    +0.000 A 
DOCKED: ATOM      9  C   UNL     1      28.709 -14.487   4.466 -0.46 -0.00    +0.000 A 
DOCKED: ATOM     10  C   UNL     1      28.652 -13.442   3.533 -0.28 -0.00    +0.000 A 
DOCKED: ATOM     11  C   UNL     1      28.697 -13.709   2.156 -0.20 -0.00    +0.000 A 
DOCKED: BRANCH   7  12
DOCKED: ATOM     12  C   UNL     1      28.516 -12.588   7.767 -0.37 -0.00    +0.000 C 
DOCKED: BRANCH  12  13
DOCKED: ATOM     13  N   UNL     1      29.075 -13.712   8.549 -0.43 -0.00    +0.000 N 
DOCKED: ATOM     14  H   UNL     1      28.883 -14.514   7.949 -0.59 -0.00    +0.000 HD
DOCKED: BRANCH  13  15
DOCKED: ATOM     15  C   UNL     1      30.552 -13.724   8.670 -0.34 -0.00    +0.000 C 
DOCKED: ATOM     16  C   UNL     1      31.102 -14.711   9.713 -0.36 -0.00    +0.000 C 
DOCKED: ENDBRANCH  13  15
DOCKED: BRANCH  13  17
DOCKED: ATOM     17  C   UNL     1      28.343 -14.049   9.794 -0.45 -0.00    +0.000 C 
DOCKED: ATOM     18  C   UNL     1      28.319 -12.928  10.835 -0.52 -0.00    +0.000 C 
DOCKED: ENDBRANCH  13  17
DOCKED: ENDBRANCH  12  13
DOCKED: ENDBRANCH   7  12
DOCKED: ENDBRANCH   1   2
DOCKED: BRANCH   1  19
DOCKED: ATOM     19  O   UNL     1      28.351 -14.334  -0.481 -0.16 -0.00    +0.000 OA
DOCKED: BRANCH  19  21
DOCKED: ATOM     20  O   UNL     1      26.104 -13.990  -0.893 -0.33 -0.00    +0.000 OA
DOCKED: ATOM     21  C   UNL     1      27.052 -14.802  -0.704 -0.31 -0.00    +0.000 C 
DOCKED: ATOM     22  N   UNL     1      26.820 -16.215  -0.759 -0.38 -0.00    +0.000 N 
DOCKED: ATOM     23  H   UNL     1      27.603 -16.807  -0.827 -0.02 -0.00    +0.000 HD
DOCKED: BRANCH  22  24
DOCKED: ATOM     24  C   UNL     1      25.518 -16.824  -0.719 -0.51 -0.00    +0.000 A 
DOCKED: ATOM     25  C   UNL     1      25.269 -17.855   0.196 -0.35 -0.00    +0.000 A 
DOCKED: ATOM     26  C   UNL     1      24.003 -18.446   0.275 -0.33 -0.00    +0.000 A 
DOCKED: ATOM     27  C   UNL     1      22.958 -18.006  -0.555 -0.73 -0.00    +0.000 A 
DOCKED: ATOM     28  C   UNL     1      23.201 -16.948  -1.449 -0.07 -0.00    +0.000 A 
DOCKED: ATOM     29  C   UNL     1      24.467 -16.361  -1.531 -0.43 -0.00    +0.000 A 
DOCKED: BRANCH  27  30
DOCKED: ATOM     30  C   UNL     1      21.606 -18.612  -0.475 -0.85 -0.00    +0.000 C 
DOCKED: ATOM     31  N   UNL     1      21.414 -19.945   0.012 -0.48 -0.00    +0.000 N 
DOCKED: ATOM     32  O   UNL     1      20.164 -20.437   0.171 -1.06 -0.00    +0.000 OA
DOCKED: ATOM     33  O   UNL     1      20.603 -17.948  -0.856 -2.27 -0.00    +0.000 OA
DOCKED: ATOM     34  H   UNL     1      22.194 -20.505   0.232 -0.57 -0.00    +0.000 HD
DOCKED: ENDBRANCH  27  30
DOCKED: ENDBRANCH  22  24
DOCKED: ENDBRANCH  19  21
DOCKED: ENDBRANCH   1  19
DOCKED: TORSDOF 9
DOCKED: TER
DOCKED: ENDMDL
________________________________________________________________________________


	BEGINNING GENETIC ALGORITHM DOCKING 56 of 100
Run: 56 Seed: 1162167633 1209686514 [ Run 56 of 100 GA/GALS ]
Beginning LAMARCKIAN GENETIC ALGORITHM (LGA), with a maximum of 2500000 energy evaluations.

Final-Value: -15.787


	FINAL GENETIC ALGORITHM DOCKED STATE
	_______________________________________________


Detailed state:  trans 27.143 -14.987 -2.465 quatxyzw -0.366561 -0.322802 -0.764332 -0.420985 center 1.436 0.069 -0.007 ntor 9 107.8768 177.9962 145.1459 12.1745 3.7651 -68.4631 -164.5638 -20.9922 -4.6459
State:	 27.143 -14.987  -2.465  -0.404 -0.356 -0.843 -130.206    107.88  178.00  145.15   12.17    3.77  -68.46 -164.56  -20.99   -4.65

DOCKED: MODEL       56
DOCKED: USER    Run = 56
DOCKED: USER    DPF = ligand_dock.biased.dpf
DOCKED: USER  
DOCKED: USER    Estimated Free Energy of Binding    =  -11.11 kcal/mol  [=(1)+(2)+(3)-(4)]
DOCKED: USER    Estimated Inhibition Constant, Ki   =    7.20 nM (nanomolar)  [Temperature = 298.15 K]
DOCKED: USER    
DOCKED: USER    (1) Final Intermolecular Energy     =  -13.79 kcal/mol
DOCKED: USER        vdW + Hbond + desolv Energy     =  -13.79 kcal/mol
DOCKED: USER        Electrostatic Energy            =   +0.00 kcal/mol
DOCKED: USER    (2) Final Total Internal Energy     =   -1.99 kcal/mol
DOCKED: USER    (3) Torsional Free Energy           =   +2.68 kcal/mol
DOCKED: USER    (4) Unbound System's Energy  [=(2)] =   -1.99 kcal/mol
DOCKED: USER    
DOCKED: USER    
DOCKED: USER    NEWDPF move ligand.pdbqt
DOCKED: USER    NEWDPF about 1.436000 0.069000 -0.007000
DOCKED: USER    NEWDPF tran0 27.143374 -14.986792 -2.464942
DOCKED: USER    NEWDPF quaternion0 -0.366561 -0.322802 -0.764332 -0.420985
DOCKED: USER    NEWDPF axisangle0 -0.404117 -0.355875 -0.842641 -130.206457
DOCKED: USER    NEWDPF quat0 -0.404117 -0.355875 -0.842641 -130.206457
DOCKED: USER    NEWDPF dihe0 107.88 178.00 145.15 12.17 3.77 -68.46 -164.56 -20.99 -4.65 
DOCKED: USER  keepresnum = 1 
DOCKED: USER  
DOCKED: REMARK  Name = 
DOCKED: REMARK  11 active torsions:
DOCKED: REMARK  status: ('A' for Active; 'I' for Inactive)
DOCKED: REMARK    1  A    between atoms: C_2  and  O_3
DOCKED: REMARK    2  A    between atoms: O_3  and  C_4
DOCKED: REMARK    3  A    between atoms: C_4  and  C_5
DOCKED: REMARK    4  A    between atoms: C_10  and  C_11
DOCKED: REMARK    5  A    between atoms: C_11  and  N_12
DOCKED: REMARK    6  A    between atoms: N_12  and  C_13
DOCKED: REMARK    7  A    between atoms: N_12  and  C_15
DOCKED: REMARK    8  A    between atoms: C_13  and  C_14
DOCKED: REMARK    9  A    between atoms: C_15  and  C_16
DOCKED: REMARK   10  A    between atoms: N_21  and  C_22
DOCKED: REMARK   11  A    between atoms: C_25  and  C_26
DOCKED: REMARK                            x       y       z     vdW  Elec       q    Type
DOCKED: REMARK                         _______ _______ _______ _____ _____    ______ ____
DOCKED: USER                              x       y       z     vdW  Elec       q    Type
DOCKED: USER                           _______ _______ _______ _____ _____    ______ ____
DOCKED: ROOT
DOCKED: ATOM      1  C   UNL     1      30.528 -16.616  -1.307 -0.16 -0.00    +0.000 C 
DOCKED: ENDROOT
DOCKED: BRANCH   1   2
DOCKED: ATOM      2  C   UNL     1      30.008 -16.000  -2.578 -0.13 -0.00    +0.000 A 
DOCKED: ATOM      3  C   UNL     1      29.570 -16.811  -3.637 -0.22 -0.00    +0.000 A 
DOCKED: ATOM      4  C   UNL     1      29.068 -16.236  -4.808 -0.25 -0.00    +0.000 A 
DOCKED: ATOM      5  C   UNL     1      28.993 -14.842  -4.934 -0.24 -0.00    +0.000 A 
DOCKED: ATOM      6  C   UNL     1      28.485 -14.257  -6.104 -0.32 -0.00    +0.000 A 
DOCKED: ATOM      7  C   UNL     1      28.407 -12.861  -6.223 -0.21 -0.00    +0.000 A 
DOCKED: ATOM      8  C   UNL     1      28.849 -12.050  -5.166 -0.09 -0.00    +0.000 A 
DOCKED: ATOM      9  C   UNL     1      29.357 -12.623  -3.997 -0.05 -0.00    +0.000 A 
DOCKED: ATOM     10  C   UNL     1      29.432 -14.017  -3.871 -0.09 -0.00    +0.000 A 
DOCKED: ATOM     11  C   UNL     1      29.937 -14.603  -2.700 -0.06 -0.00    +0.000 A 
DOCKED: BRANCH   7  12
DOCKED: ATOM     12  C   UNL     1      27.875 -12.242  -7.490 -0.17 -0.00    +0.000 C 
DOCKED: BRANCH  12  13
DOCKED: ATOM     13  N   UNL     1      28.750 -12.555  -8.641 -0.27 -0.00    +0.000 N 
DOCKED: ATOM     14  H   UNL     1      28.749 -13.575  -8.645 -0.57 -0.00    +0.000 HD
DOCKED: BRANCH  13  15
DOCKED: ATOM     15  C   UNL     1      28.193 -12.209  -9.970 -0.31 -0.00    +0.000 C 
DOCKED: ATOM     16  C   UNL     1      29.244 -11.835 -11.027 -0.24 -0.00    +0.000 C 
DOCKED: ENDBRANCH  13  15
DOCKED: BRANCH  13  17
DOCKED: ATOM     17  C   UNL     1      30.184 -12.227  -8.458 -0.16 -0.00    +0.000 C 
DOCKED: ATOM     18  C   UNL     1      31.081 -13.441  -8.203 -0.15 -0.00    +0.000 C 
DOCKED: ENDBRANCH  13  17
DOCKED: ENDBRANCH  12  13
DOCKED: ENDBRANCH   7  12
DOCKED: ENDBRANCH   1   2
DOCKED: BRANCH   1  19
DOCKED: ATOM     19  O   UNL     1      29.739 -16.201  -0.193 -0.22 -0.00    +0.000 OA
DOCKED: BRANCH  19  21
DOCKED: ATOM     20  O   UNL     1      27.691 -15.543   0.648 -0.35 -0.00    +0.000 OA
DOCKED: ATOM     21  C   UNL     1      28.341 -16.232  -0.186 -0.26 -0.00    +0.000 C 
DOCKED: ATOM     22  N   UNL     1      27.656 -17.023  -1.166 -0.39 -0.00    +0.000 N 
DOCKED: ATOM     23  H   UNL     1      28.178 -17.366  -1.926 -0.03 -0.00    +0.000 HD
DOCKED: BRANCH  22  24
DOCKED: ATOM     24  C   UNL     1      26.256 -17.347  -1.110 -0.50 -0.00    +0.000 A 
DOCKED: ATOM     25  C   UNL     1      25.314 -16.405  -1.544 -0.52 -0.00    +0.000 A 
DOCKED: ATOM     26  C   UNL     1      23.948 -16.706  -1.527 -0.38 -0.00    +0.000 A 
DOCKED: ATOM     27  C   UNL     1      23.500 -17.963  -1.087 -0.70 -0.00    +0.000 A 
DOCKED: ATOM     28  C   UNL     1      24.449 -18.919  -0.685 -0.48 -0.00    +0.000 A 
DOCKED: ATOM     29  C   UNL     1      25.814 -18.617  -0.697 -0.45 -0.00    +0.000 A 
DOCKED: BRANCH  27  30
DOCKED: ATOM     30  C   UNL     1      22.055 -18.302  -1.076 -0.77 -0.00    +0.000 C 
DOCKED: ATOM     31  N   UNL     1      21.544 -19.411  -1.824 -0.57 -0.00    +0.000 N 
DOCKED: ATOM     32  O   UNL     1      20.241 -19.760  -1.716 -2.33 -0.00    +0.000 OA
DOCKED: ATOM     33  O   UNL     1      21.256 -17.592  -0.406 -1.58 +0.00    +0.000 OA
DOCKED: ATOM     34  H   UNL     1      22.141 -19.920  -2.418 -0.57 -0.00    +0.000 HD
DOCKED: ENDBRANCH  27  30
DOCKED: ENDBRANCH  22  24
DOCKED: ENDBRANCH  19  21
DOCKED: ENDBRANCH   1  19
DOCKED: TORSDOF 9
DOCKED: TER
DOCKED: ENDMDL
________________________________________________________________________________


	BEGINNING GENETIC ALGORITHM DOCKING 57 of 100
Run: 57 Seed: 1921270919 1870060430 [ Run 57 of 100 GA/GALS ]
Beginning LAMARCKIAN GENETIC ALGORITHM (LGA), with a maximum of 2500000 energy evaluations.

Final-Value: -16.555


	FINAL GENETIC ALGORITHM DOCKED STATE
	_______________________________________________


Detailed state:  trans 30.375 -17.951 -2.457 quatxyzw -0.230711 0.626958 -0.255669 0.698806 center 1.436 0.069 -0.007 ntor 9 -124.1463 51.1321 -60.3822 -173.4516 -12.8448 -20.4228 158.0830 -172.8684 -85.9977
State:	 30.375 -17.951  -2.457  -0.323  0.876 -0.357 91.337   -124.15   51.13  -60.38 -173.45  -12.84  -20.42  158.08 -172.87  -86.00

DOCKED: MODEL       57
DOCKED: USER    Run = 57
DOCKED: USER    DPF = ligand_dock.biased.dpf
DOCKED: USER  
DOCKED: USER    Estimated Free Energy of Binding    =  -12.23 kcal/mol  [=(1)+(2)+(3)-(4)]
DOCKED: USER    Estimated Inhibition Constant, Ki   =    1.08 nM (nanomolar)  [Temperature = 298.15 K]
DOCKED: USER    
DOCKED: USER    (1) Final Intermolecular Energy     =  -14.92 kcal/mol
DOCKED: USER        vdW + Hbond + desolv Energy     =  -14.92 kcal/mol
DOCKED: USER        Electrostatic Energy            =   +0.00 kcal/mol
DOCKED: USER    (2) Final Total Internal Energy     =   -1.64 kcal/mol
DOCKED: USER    (3) Torsional Free Energy           =   +2.68 kcal/mol
DOCKED: USER    (4) Unbound System's Energy  [=(2)] =   -1.64 kcal/mol
DOCKED: USER    
DOCKED: USER    
DOCKED: USER    NEWDPF move ligand.pdbqt
DOCKED: USER    NEWDPF about 1.436000 0.069000 -0.007000
DOCKED: USER    NEWDPF tran0 30.374568 -17.950790 -2.457175
DOCKED: USER    NEWDPF quaternion0 -0.230711 0.626958 -0.255669 0.698806
DOCKED: USER    NEWDPF axisangle0 -0.322532 0.876483 -0.357423 91.337485
DOCKED: USER    NEWDPF quat0 -0.322532 0.876483 -0.357423 91.337485
DOCKED: USER    NEWDPF dihe0 -124.15 51.13 -60.38 -173.45 -12.84 -20.42 158.08 -172.87 -86.00 
DOCKED: USER  keepresnum = 1 
DOCKED: USER  
DOCKED: REMARK  Name = 
DOCKED: REMARK  11 active torsions:
DOCKED: REMARK  status: ('A' for Active; 'I' for Inactive)
DOCKED: REMARK    1  A    between atoms: C_2  and  O_3
DOCKED: REMARK    2  A    between atoms: O_3  and  C_4
DOCKED: REMARK    3  A    between atoms: C_4  and  C_5
DOCKED: REMARK    4  A    between atoms: C_10  and  C_11
DOCKED: REMARK    5  A    between atoms: C_11  and  N_12
DOCKED: REMARK    6  A    between atoms: N_12  and  C_13
DOCKED: REMARK    7  A    between atoms: N_12  and  C_15
DOCKED: REMARK    8  A    between atoms: C_13  and  C_14
DOCKED: REMARK    9  A    between atoms: C_15  and  C_16
DOCKED: REMARK   10  A    between atoms: N_21  and  C_22
DOCKED: REMARK   11  A    between atoms: C_25  and  C_26
DOCKED: REMARK                            x       y       z     vdW  Elec       q    Type
DOCKED: REMARK                         _______ _______ _______ _____ _____    ______ ____
DOCKED: USER                              x       y       z     vdW  Elec       q    Type
DOCKED: USER                           _______ _______ _______ _____ _____    ______ ____
DOCKED: ROOT
DOCKED: ATOM      1  C   UNL     1      27.670 -15.125  -2.071 -0.26 -0.00    +0.000 C 
DOCKED: ENDROOT
DOCKED: BRANCH   1   2
DOCKED: ATOM      2  C   UNL     1      28.442 -15.729  -3.213 -0.23 -0.00    +0.000 A 
DOCKED: ATOM      3  C   UNL     1      28.221 -15.298  -4.531 -0.32 -0.00    +0.000 A 
DOCKED: ATOM      4  C   UNL     1      28.954 -15.845  -5.588 -0.31 -0.00    +0.000 A 
DOCKED: ATOM      5  C   UNL     1      29.922 -16.829  -5.339 -0.29 -0.00    +0.000 A 
DOCKED: ATOM      6  C   UNL     1      30.667 -17.379  -6.394 -0.30 -0.00    +0.000 A 
DOCKED: ATOM      7  C   UNL     1      31.639 -18.359  -6.140 -0.19 -0.00    +0.000 A 
DOCKED: ATOM      8  C   UNL     1      31.857 -18.793  -4.823 -0.14 -0.00    +0.000 A 
DOCKED: ATOM      9  C   UNL     1      31.120 -18.251  -3.767 -0.17 -0.00    +0.000 A 
DOCKED: ATOM     10  C   UNL     1      30.152 -17.268  -4.014 -0.22 -0.00    +0.000 A 
DOCKED: ATOM     11  C   UNL     1      29.409 -16.715  -2.960 -0.21 -0.00    +0.000 A 
DOCKED: BRANCH   7  12
DOCKED: ATOM     12  C   UNL     1      32.422 -18.956  -7.281 -0.14 -0.00    +0.000 C 
DOCKED: BRANCH  12  13
DOCKED: ATOM     13  N   UNL     1      31.639 -20.006  -7.969 -0.24 -0.00    +0.000 N 
DOCKED: ATOM     14  H   UNL     1      32.284 -20.796  -7.966 +0.00 -0.00    +0.000 HD
DOCKED: BRANCH  13  15
DOCKED: ATOM     15  C   UNL     1      30.471 -20.519  -7.214 -0.41 -0.00    +0.000 C 
DOCKED: ATOM     16  C   UNL     1      30.806 -21.597  -6.170 -0.34 -0.00    +0.000 C 
DOCKED: ENDBRANCH  13  15
DOCKED: BRANCH  13  17
DOCKED: ATOM     17  C   UNL     1      31.400 -19.779  -9.414 -0.34 -0.00    +0.000 C 
DOCKED: ATOM     18  C   UNL     1      31.509 -18.316  -9.850 -0.30 -0.00    +0.000 C 
DOCKED: ENDBRANCH  13  17
DOCKED: ENDBRANCH  12  13
DOCKED: ENDBRANCH   7  12
DOCKED: ENDBRANCH   1   2
DOCKED: BRANCH   1  19
DOCKED: ATOM     19  O   UNL     1      27.669 -16.006  -0.949 -0.32 -0.00    +0.000 OA
DOCKED: BRANCH  19  21
DOCKED: ATOM     20  O   UNL     1      26.709 -17.778   0.180 -0.62 -0.00    +0.000 OA
DOCKED: ATOM     21  C   UNL     1      26.564 -16.782  -0.582 -0.51 -0.00    +0.000 C 
DOCKED: ATOM     22  N   UNL     1      25.262 -16.408  -1.049 -0.51 -0.00    +0.000 N 
DOCKED: ATOM     23  H   UNL     1      25.158 -15.516  -1.453 -0.02 -0.00    +0.000 HD
DOCKED: BRANCH  22  24
DOCKED: ATOM     24  C   UNL     1      24.099 -17.249  -0.968 -0.63 -0.00    +0.000 A 
DOCKED: ATOM     25  C   UNL     1      22.921 -16.740  -0.406 -0.25 -0.00    +0.000 A 
DOCKED: ATOM     26  C   UNL     1      21.767 -17.528  -0.339 -0.54 -0.00    +0.000 A 
DOCKED: ATOM     27  C   UNL     1      21.768 -18.838  -0.847 -0.75 -0.00    +0.000 A 
DOCKED: ATOM     28  C   UNL     1      22.941 -19.335  -1.442 -0.57 -0.00    +0.000 A 
DOCKED: ATOM     29  C   UNL     1      24.096 -18.549  -1.504 -0.55 -0.00    +0.000 A 
DOCKED: BRANCH  27  30
DOCKED: ATOM     30  C   UNL     1      20.548 -19.682  -0.797 -0.86 -0.00    +0.000 C 
DOCKED: ATOM     31  N   UNL     1      20.217 -20.446   0.368 -0.70 -0.00    +0.000 N 
DOCKED: ATOM     32  O   UNL     1      19.049 -21.126   0.425 -0.84 -0.00    +0.000 OA
DOCKED: ATOM     33  O   UNL     1      19.792 -19.742  -1.805 -2.32 -0.00    +0.000 OA
DOCKED: ATOM     34  H   UNL     1      20.841 -20.477   1.129 -0.52 -0.00    +0.000 HD
DOCKED: ENDBRANCH  27  30
DOCKED: ENDBRANCH  22  24
DOCKED: ENDBRANCH  19  21
DOCKED: ENDBRANCH   1  19
DOCKED: TORSDOF 9
DOCKED: TER
DOCKED: ENDMDL
________________________________________________________________________________


	BEGINNING GENETIC ALGORITHM DOCKING 58 of 100
Run: 58 Seed: 1765010534 539596210 [ Run 58 of 100 GA/GALS ]
Beginning LAMARCKIAN GENETIC ALGORITHM (LGA), with a maximum of 2500000 energy evaluations.

Final-Value: -16.532


	FINAL GENETIC ALGORITHM DOCKED STATE
	_______________________________________________


Detailed state:  trans 26.806 -11.421 0.288 quatxyzw -0.627686 -0.169398 0.751595 0.111446 center 1.436 0.069 -0.007 ntor 9 -154.3899 30.9276 -77.2195 -123.6963 -40.7687 168.2401 -169.5643 172.1724 45.3228
State:	 26.806 -11.421   0.288  -0.632 -0.170  0.756 167.203   -154.39   30.93  -77.22 -123.70  -40.77  168.24 -169.56  172.17   45.32

DOCKED: MODEL       58
DOCKED: USER    Run = 58
DOCKED: USER    DPF = ligand_dock.biased.dpf
DOCKED: USER  
DOCKED: USER    Estimated Free Energy of Binding    =  -12.26 kcal/mol  [=(1)+(2)+(3)-(4)]
DOCKED: USER    Estimated Inhibition Constant, Ki   =    1.03 nM (nanomolar)  [Temperature = 298.15 K]
DOCKED: USER    
DOCKED: USER    (1) Final Intermolecular Energy     =  -14.95 kcal/mol
DOCKED: USER        vdW + Hbond + desolv Energy     =  -14.95 kcal/mol
DOCKED: USER        Electrostatic Energy            =   +0.00 kcal/mol
DOCKED: USER    (2) Final Total Internal Energy     =   -1.59 kcal/mol
DOCKED: USER    (3) Torsional Free Energy           =   +2.68 kcal/mol
DOCKED: USER    (4) Unbound System's Energy  [=(2)] =   -1.59 kcal/mol
DOCKED: USER    
DOCKED: USER    
DOCKED: USER    NEWDPF move ligand.pdbqt
DOCKED: USER    NEWDPF about 1.436000 0.069000 -0.007000
DOCKED: USER    NEWDPF tran0 26.805933 -11.421029 0.287985
DOCKED: USER    NEWDPF quaternion0 -0.627686 -0.169398 0.751595 0.111446
DOCKED: USER    NEWDPF axisangle0 -0.631620 -0.170460 0.756306 167.202649
DOCKED: USER    NEWDPF quat0 -0.631620 -0.170460 0.756306 167.202649
DOCKED: USER    NEWDPF dihe0 -154.39 30.93 -77.22 -123.70 -40.77 168.24 -169.56 172.17 45.32 
DOCKED: USER  keepresnum = 1 
DOCKED: USER  
DOCKED: REMARK  Name = 
DOCKED: REMARK  11 active torsions:
DOCKED: REMARK  status: ('A' for Active; 'I' for Inactive)
DOCKED: REMARK    1  A    between atoms: C_2  and  O_3
DOCKED: REMARK    2  A    between atoms: O_3  and  C_4
DOCKED: REMARK    3  A    between atoms: C_4  and  C_5
DOCKED: REMARK    4  A    between atoms: C_10  and  C_11
DOCKED: REMARK    5  A    between atoms: C_11  and  N_12
DOCKED: REMARK    6  A    between atoms: N_12  and  C_13
DOCKED: REMARK    7  A    between atoms: N_12  and  C_15
DOCKED: REMARK    8  A    between atoms: C_13  and  C_14
DOCKED: REMARK    9  A    between atoms: C_15  and  C_16
DOCKED: REMARK   10  A    between atoms: N_21  and  C_22
DOCKED: REMARK   11  A    between atoms: C_25  and  C_26
DOCKED: REMARK                            x       y       z     vdW  Elec       q    Type
DOCKED: REMARK                         _______ _______ _______ _____ _____    ______ ____
DOCKED: USER                              x       y       z     vdW  Elec       q    Type
DOCKED: USER                           _______ _______ _______ _____ _____    ______ ____
DOCKED: ROOT
DOCKED: ATOM      1  C   UNL     1      27.976 -15.098  -0.462 -0.26 -0.00    +0.000 C 
DOCKED: ENDROOT
DOCKED: BRANCH   1   2
DOCKED: ATOM      2  C   UNL     1      28.108 -14.139   0.690 -0.20 -0.00    +0.000 A 
DOCKED: ATOM      3  C   UNL     1      28.575 -12.831   0.480 -0.10 -0.00    +0.000 A 
DOCKED: ATOM      4  C   UNL     1      28.677 -11.936   1.548 -0.09 -0.00    +0.000 A 
DOCKED: ATOM      5  C   UNL     1      28.310 -12.335   2.841 -0.19 -0.00    +0.000 A 
DOCKED: ATOM      6  C   UNL     1      28.404 -11.440   3.918 -0.21 +0.00    +0.000 A 
DOCKED: ATOM      7  C   UNL     1      28.030 -11.843   5.209 -0.35 +0.00    +0.000 A 
DOCKED: ATOM      8  C   UNL     1      27.568 -13.152   5.421 -0.31 -0.00    +0.000 A 
DOCKED: ATOM      9  C   UNL     1      27.472 -14.049   4.354 -0.52 -0.00    +0.000 A 
DOCKED: ATOM     10  C   UNL     1      27.839 -13.651   3.061 -0.33 -0.00    +0.000 A 
DOCKED: ATOM     11  C   UNL     1      27.742 -14.544   1.983 -0.19 -0.00    +0.000 A 
DOCKED: BRANCH   7  12
DOCKED: ATOM     12  C   UNL     1      28.150 -10.880   6.362 -0.32 +0.00    +0.000 C 
DOCKED: BRANCH  12  13
DOCKED: ATOM     13  N   UNL     1      29.260 -11.265   7.262 -0.30 -0.00    +0.000 N 
DOCKED: ATOM     14  H   UNL     1      28.853 -12.034   7.794 -0.02 -0.00    +0.000 HD
DOCKED: BRANCH  13  15
DOCKED: ATOM     15  C   UNL     1      30.425 -11.893   6.594 -0.19 -0.00    +0.000 C 
DOCKED: ATOM     16  C   UNL     1      30.639 -13.376   6.940 -0.29 -0.00    +0.000 C 
DOCKED: ENDBRANCH  13  15
DOCKED: BRANCH  13  17
DOCKED: ATOM     17  C   UNL     1      29.599 -10.278   8.315 -0.28 -0.00    +0.000 C 
DOCKED: ATOM     18  C   UNL     1      29.616  -8.825   7.835 -0.22 +0.00    +0.000 C 
DOCKED: ENDBRANCH  13  17
DOCKED: ENDBRANCH  12  13
DOCKED: ENDBRANCH   7  12
DOCKED: ENDBRANCH   1   2
DOCKED: BRANCH   1  19
DOCKED: ATOM     19  O   UNL     1      26.901 -14.707  -1.315 -0.29 -0.00    +0.000 OA
DOCKED: BRANCH  19  21
DOCKED: ATOM     20  O   UNL     1      24.998 -15.243  -2.512 -0.52 -0.00    +0.000 OA
DOCKED: ATOM     21  C   UNL     1      25.783 -15.512  -1.560 -0.47 -0.00    +0.000 C 
DOCKED: ATOM     22  N   UNL     1      25.564 -16.669  -0.744 -0.50 -0.00    +0.000 N 
DOCKED: ATOM     23  H   UNL     1      26.301 -16.968  -0.164 -0.02 -0.00    +0.000 HD
DOCKED: BRANCH  22  24
DOCKED: ATOM     24  C   UNL     1      24.339 -17.421  -0.716 -0.64 -0.00    +0.000 A 
DOCKED: ATOM     25  C   UNL     1      23.114 -16.741  -0.705 -0.40 -0.00    +0.000 A 
DOCKED: ATOM     26  C   UNL     1      21.907 -17.448  -0.706 -0.63 -0.00    +0.000 A 
DOCKED: ATOM     27  C   UNL     1      21.904 -18.853  -0.731 -0.76 -0.00    +0.000 A 
DOCKED: ATOM     28  C   UNL     1      23.133 -19.533  -0.777 -0.47 -0.00    +0.000 A 
DOCKED: ATOM     29  C   UNL     1      24.340 -18.826  -0.771 -0.57 -0.00    +0.000 A 
DOCKED: BRANCH  27  30
DOCKED: ATOM     30  C   UNL     1      20.632 -19.618  -0.747 -0.87 -0.00    +0.000 C 
DOCKED: ATOM     31  N   UNL     1      20.119 -20.234   0.439 -0.71 -0.00    +0.000 N 
DOCKED: ATOM     32  O   UNL     1      18.908 -20.839   0.421 -0.90 -0.00    +0.000 OA
DOCKED: ATOM     33  O   UNL     1      19.995 -19.742  -1.829 -2.39 -0.00    +0.000 OA
DOCKED: ATOM     34  H   UNL     1      20.647 -20.219   1.270 -0.43 -0.00    +0.000 HD
DOCKED: ENDBRANCH  27  30
DOCKED: ENDBRANCH  22  24
DOCKED: ENDBRANCH  19  21
DOCKED: ENDBRANCH   1  19
DOCKED: TORSDOF 9
DOCKED: TER
DOCKED: ENDMDL
________________________________________________________________________________


	BEGINNING GENETIC ALGORITHM DOCKING 59 of 100
Run: 59 Seed: 1667705791 853674393 [ Run 59 of 100 GA/GALS ]
Beginning LAMARCKIAN GENETIC ALGORITHM (LGA), with a maximum of 2500000 energy evaluations.

Final-Value: -15.004


	FINAL GENETIC ALGORITHM DOCKED STATE
	_______________________________________________


Detailed state:  trans 26.548 -14.319 -2.838 quatxyzw -0.114107 -0.129512 -0.793866 -0.583081 center 1.436 0.069 -0.007 ntor 9 -163.1986 -116.1233 171.0817 -66.3014 8.2677 -177.3516 -28.2532 -20.3416 -179.8991
State:	 26.548 -14.319  -2.838  -0.140 -0.159 -0.977 -108.665   -163.20 -116.12  171.08  -66.30    8.27 -177.35  -28.25  -20.34 -179.90

DOCKED: MODEL       59
DOCKED: USER    Run = 59
DOCKED: USER    DPF = ligand_dock.biased.dpf
DOCKED: USER  
DOCKED: USER    Estimated Free Energy of Binding    =  -10.82 kcal/mol  [=(1)+(2)+(3)-(4)]
DOCKED: USER    Estimated Inhibition Constant, Ki   =   11.78 nM (nanomolar)  [Temperature = 298.15 K]
DOCKED: USER    
DOCKED: USER    (1) Final Intermolecular Energy     =  -13.50 kcal/mol
DOCKED: USER        vdW + Hbond + desolv Energy     =  -13.50 kcal/mol
DOCKED: USER        Electrostatic Energy            =   +0.00 kcal/mol
DOCKED: USER    (2) Final Total Internal Energy     =   -1.50 kcal/mol
DOCKED: USER    (3) Torsional Free Energy           =   +2.68 kcal/mol
DOCKED: USER    (4) Unbound System's Energy  [=(2)] =   -1.50 kcal/mol
DOCKED: USER    
DOCKED: USER    
DOCKED: USER    NEWDPF move ligand.pdbqt
DOCKED: USER    NEWDPF about 1.436000 0.069000 -0.007000
DOCKED: USER    NEWDPF tran0 26.547978 -14.318522 -2.838424
DOCKED: USER    NEWDPF quaternion0 -0.114107 -0.129512 -0.793866 -0.583081
DOCKED: USER    NEWDPF axisangle0 -0.140454 -0.159417 -0.977169 -108.664901
DOCKED: USER    NEWDPF quat0 -0.140454 -0.159417 -0.977169 -108.664901
DOCKED: USER    NEWDPF dihe0 -163.20 -116.12 171.08 -66.30 8.27 -177.35 -28.25 -20.34 -179.90 
DOCKED: USER  keepresnum = 1 
DOCKED: USER  
DOCKED: REMARK  Name = 
DOCKED: REMARK  11 active torsions:
DOCKED: REMARK  status: ('A' for Active; 'I' for Inactive)
DOCKED: REMARK    1  A    between atoms: C_2  and  O_3
DOCKED: REMARK    2  A    between atoms: O_3  and  C_4
DOCKED: REMARK    3  A    between atoms: C_4  and  C_5
DOCKED: REMARK    4  A    between atoms: C_10  and  C_11
DOCKED: REMARK    5  A    between atoms: C_11  and  N_12
DOCKED: REMARK    6  A    between atoms: N_12  and  C_13
DOCKED: REMARK    7  A    between atoms: N_12  and  C_15
DOCKED: REMARK    8  A    between atoms: C_13  and  C_14
DOCKED: REMARK    9  A    between atoms: C_15  and  C_16
DOCKED: REMARK   10  A    between atoms: N_21  and  C_22
DOCKED: REMARK   11  A    between atoms: C_25  and  C_26
DOCKED: REMARK                            x       y       z     vdW  Elec       q    Type
DOCKED: REMARK                         _______ _______ _______ _____ _____    ______ ____
DOCKED: USER                              x       y       z     vdW  Elec       q    Type
DOCKED: USER                           _______ _______ _______ _____ _____    ______ ____
DOCKED: ROOT
DOCKED: ATOM      1  C   UNL     1      30.184 -15.659  -2.180 -0.11 -0.00    +0.000 C 
DOCKED: ENDROOT
DOCKED: BRANCH   1   2
DOCKED: ATOM      2  C   UNL     1      29.582 -14.495  -2.920 -0.08 -0.00    +0.000 A 
DOCKED: ATOM      3  C   UNL     1      29.246 -13.314  -2.240 -0.05 -0.00    +0.000 A 
DOCKED: ATOM      4  C   UNL     1      28.706 -12.226  -2.932 -0.06 -0.00    +0.000 A 
DOCKED: ATOM      5  C   UNL     1      28.500 -12.305  -4.317 -0.09 -0.00    +0.000 A 
DOCKED: ATOM      6  C   UNL     1      27.964 -11.216  -5.022 -0.10 -0.00    +0.000 A 
DOCKED: ATOM      7  C   UNL     1      27.764 -11.297  -6.408 -0.13 -0.00    +0.000 A 
DOCKED: ATOM      8  C   UNL     1      28.095 -12.480  -7.088 -0.18 -0.00    +0.000 A 
DOCKED: ATOM      9  C   UNL     1      28.628 -13.569  -6.394 -0.27 -0.00    +0.000 A 
DOCKED: ATOM     10  C   UNL     1      28.836 -13.491  -5.010 -0.15 -0.00    +0.000 A 
DOCKED: ATOM     11  C   UNL     1      29.374 -14.579  -4.305 -0.14 -0.00    +0.000 A 
DOCKED: BRANCH   7  12
DOCKED: ATOM     12  C   UNL     1      27.172 -10.128  -7.153 -0.13 -0.00    +0.000 C 
DOCKED: BRANCH  12  13
DOCKED: ATOM     13  N   UNL     1      25.831  -9.790  -6.630 -0.17 -0.00    +0.000 N 
DOCKED: ATOM     14  H   UNL     1      25.555 -10.653  -6.161 -0.01 -0.00    +0.000 HD
DOCKED: BRANCH  13  15
DOCKED: ATOM     15  C   UNL     1      25.812  -8.789  -5.537 -0.15 -0.00    +0.000 C 
DOCKED: ATOM     16  C   UNL     1      25.173  -9.282  -4.228 -0.29 -0.00    +0.000 C 
DOCKED: ENDBRANCH  13  15
DOCKED: BRANCH  13  17
DOCKED: ATOM     17  C   UNL     1      24.772  -9.618  -7.654 -0.32 -0.00    +0.000 C 
DOCKED: ATOM     18  C   UNL     1      23.356  -9.497  -7.084 -0.42 -0.00    +0.000 C 
DOCKED: ENDBRANCH  13  17
DOCKED: ENDBRANCH  12  13
DOCKED: ENDBRANCH   7  12
DOCKED: ENDBRANCH   1   2
DOCKED: BRANCH   1  19
DOCKED: ATOM     19  O   UNL     1      29.255 -16.180  -1.231 -0.21 -0.00    +0.000 OA
DOCKED: BRANCH  19  21
DOCKED: ATOM     20  O   UNL     1      27.346 -15.893  -2.500 -0.34 -0.00    +0.000 OA
DOCKED: ATOM     21  C   UNL     1      27.923 -16.476  -1.541 -0.35 -0.00    +0.000 C 
DOCKED: ATOM     22  N   UNL     1      27.237 -17.481  -0.782 -0.47 -0.00    +0.000 N 
DOCKED: ATOM     23  H   UNL     1      27.774 -18.062  -0.197 -0.34 -0.00    +0.000 HD
DOCKED: BRANCH  22  24
DOCKED: ATOM     24  C   UNL     1      25.816 -17.695  -0.821 -0.57 -0.00    +0.000 A 
DOCKED: ATOM     25  C   UNL     1      24.966 -16.620  -1.116 -0.54 -0.00    +0.000 A 
DOCKED: ATOM     26  C   UNL     1      23.582 -16.807  -1.187 -0.43 -0.00    +0.000 A 
DOCKED: ATOM     27  C   UNL     1      23.022 -18.079  -0.975 -0.72 -0.00    +0.000 A 
DOCKED: ATOM     28  C   UNL     1      23.879 -19.162  -0.713 -0.49 -0.00    +0.000 A 
DOCKED: ATOM     29  C   UNL     1      25.262 -18.974  -0.638 -0.13 -0.00    +0.000 A 
DOCKED: BRANCH  27  30
DOCKED: ATOM     30  C   UNL     1      21.556 -18.296  -1.061 -0.72 -0.00    +0.000 C 
DOCKED: ATOM     31  N   UNL     1      21.013 -19.529  -1.544 -0.76 -0.00    +0.000 N 
DOCKED: ATOM     32  O   UNL     1      19.676 -19.740  -1.516 -2.18 -0.00    +0.000 OA
DOCKED: ATOM     33  O   UNL     1      20.770 -17.372  -0.715 -1.93 +0.00    +0.000 OA
DOCKED: ATOM     34  H   UNL     1      21.612 -20.226  -1.897 -0.48 -0.00    +0.000 HD
DOCKED: ENDBRANCH  27  30
DOCKED: ENDBRANCH  22  24
DOCKED: ENDBRANCH  19  21
DOCKED: ENDBRANCH   1  19
DOCKED: TORSDOF 9
DOCKED: TER
DOCKED: ENDMDL
________________________________________________________________________________


	BEGINNING GENETIC ALGORITHM DOCKING 60 of 100
Run: 60 Seed: 849390584 647701608 [ Run 60 of 100 GA/GALS ]
Beginning LAMARCKIAN GENETIC ALGORITHM (LGA), with a maximum of 2500000 energy evaluations.

Final-Value: -14.467


	FINAL GENETIC ALGORITHM DOCKED STATE
	_______________________________________________


Detailed state:  trans 26.309 -14.349 -3.009 quatxyzw 0.210086 -0.077767 0.609276 0.760657 center 1.436 0.069 -0.007 ntor 9 -169.6947 62.9844 -172.5722 -121.6176 126.7895 -40.2110 53.5399 -19.8921 142.5787
State:	 26.309 -14.349  -3.009   0.324 -0.120  0.939 80.956   -169.69   62.98 -172.57 -121.62  126.79  -40.21   53.54  -19.89  142.58

DOCKED: MODEL       60
DOCKED: USER    Run = 60
DOCKED: USER    DPF = ligand_dock.biased.dpf
DOCKED: USER  
DOCKED: USER    Estimated Free Energy of Binding    =   -9.98 kcal/mol  [=(1)+(2)+(3)-(4)]
DOCKED: USER    Estimated Inhibition Constant, Ki   =   48.06 nM (nanomolar)  [Temperature = 298.15 K]
DOCKED: USER    
DOCKED: USER    (1) Final Intermolecular Energy     =  -12.67 kcal/mol
DOCKED: USER        vdW + Hbond + desolv Energy     =  -12.67 kcal/mol
DOCKED: USER        Electrostatic Energy            =   +0.00 kcal/mol
DOCKED: USER    (2) Final Total Internal Energy     =   -1.80 kcal/mol
DOCKED: USER    (3) Torsional Free Energy           =   +2.68 kcal/mol
DOCKED: USER    (4) Unbound System's Energy  [=(2)] =   -1.80 kcal/mol
DOCKED: USER    
DOCKED: USER    
DOCKED: USER    NEWDPF move ligand.pdbqt
DOCKED: USER    NEWDPF about 1.436000 0.069000 -0.007000
DOCKED: USER    NEWDPF tran0 26.309330 -14.349219 -3.008769
DOCKED: USER    NEWDPF quaternion0 0.210086 -0.077767 0.609276 0.760657
DOCKED: USER    NEWDPF axisangle0 0.323631 -0.119798 0.938569 80.955727
DOCKED: USER    NEWDPF quat0 0.323631 -0.119798 0.938569 80.955727
DOCKED: USER    NEWDPF dihe0 -169.69 62.98 -172.57 -121.62 126.79 -40.21 53.54 -19.89 142.58 
DOCKED: USER  keepresnum = 1 
DOCKED: USER  
DOCKED: REMARK  Name = 
DOCKED: REMARK  11 active torsions:
DOCKED: REMARK  status: ('A' for Active; 'I' for Inactive)
DOCKED: REMARK    1  A    between atoms: C_2  and  O_3
DOCKED: REMARK    2  A    between atoms: O_3  and  C_4
DOCKED: REMARK    3  A    between atoms: C_4  and  C_5
DOCKED: REMARK    4  A    between atoms: C_10  and  C_11
DOCKED: REMARK    5  A    between atoms: C_11  and  N_12
DOCKED: REMARK    6  A    between atoms: N_12  and  C_13
DOCKED: REMARK    7  A    between atoms: N_12  and  C_15
DOCKED: REMARK    8  A    between atoms: C_13  and  C_14
DOCKED: REMARK    9  A    between atoms: C_15  and  C_16
DOCKED: REMARK   10  A    between atoms: N_21  and  C_22
DOCKED: REMARK   11  A    between atoms: C_25  and  C_26
DOCKED: REMARK                            x       y       z     vdW  Elec       q    Type
DOCKED: REMARK                         _______ _______ _______ _____ _____    ______ ____
DOCKED: USER                              x       y       z     vdW  Elec       q    Type
DOCKED: USER                           _______ _______ _______ _____ _____    ______ ____
DOCKED: ROOT
DOCKED: ATOM      1  C   UNL     1      29.990 -13.963  -4.331 -0.09 -0.00    +0.000 C 
DOCKED: ENDROOT
DOCKED: BRANCH   1   2
DOCKED: ATOM      2  C   UNL     1      28.737 -13.131  -4.374 -0.11 -0.00    +0.000 A 
DOCKED: ATOM      3  C   UNL     1      27.967 -12.942  -3.215 -0.12 -0.00    +0.000 A 
DOCKED: ATOM      4  C   UNL     1      26.815 -12.151  -3.252 -0.13 -0.00    +0.000 A 
DOCKED: ATOM      5  C   UNL     1      26.420 -11.536  -4.448 -0.23 -0.00    +0.000 A 
DOCKED: ATOM      6  C   UNL     1      25.268 -10.736  -4.493 -0.29 -0.00    +0.000 A 
DOCKED: ATOM      7  C   UNL     1      24.880 -10.117  -5.691 -0.34 -0.00    +0.000 A 
DOCKED: ATOM      8  C   UNL     1      25.647 -10.310  -6.850 -0.24 -0.00    +0.000 A 
DOCKED: ATOM      9  C   UNL     1      26.795 -11.106  -6.815 -0.17 -0.00    +0.000 A 
DOCKED: ATOM     10  C   UNL     1      27.191 -11.721  -5.620 -0.17 -0.00    +0.000 A 
DOCKED: ATOM     11  C   UNL     1      28.344 -12.519  -5.574 -0.15 -0.00    +0.000 A 
DOCKED: BRANCH   7  12
DOCKED: ATOM     12  C   UNL     1      23.631  -9.273  -5.732 -0.40 -0.00    +0.000 C 
DOCKED: BRANCH  12  13
DOCKED: ATOM     13  N   UNL     1      23.718  -8.151  -4.772 -0.32 -0.00    +0.000 N 
DOCKED: ATOM     14  H   UNL     1      23.556  -8.615  -3.878 -0.50 -0.00    +0.000 HD
DOCKED: BRANCH  13  15
DOCKED: ATOM     15  C   UNL     1      25.069  -7.562  -4.609 -0.17 -0.00    +0.000 C 
DOCKED: ATOM     16  C   UNL     1      25.553  -7.463  -3.154 -0.16 -0.00    +0.000 C 
DOCKED: ENDBRANCH  13  15
DOCKED: BRANCH  13  17
DOCKED: ATOM     17  C   UNL     1      22.611  -7.168  -4.839 -0.39 -0.00    +0.000 C 
DOCKED: ATOM     18  C   UNL     1      21.692  -7.334  -6.052 -0.38 -0.00    +0.000 C 
DOCKED: ENDBRANCH  13  17
DOCKED: ENDBRANCH  12  13
DOCKED: ENDBRANCH   7  12
DOCKED: ENDBRANCH   1   2
DOCKED: BRANCH   1  19
DOCKED: ATOM     19  O   UNL     1      29.909 -14.935  -3.290 -0.11 -0.00    +0.000 OA
DOCKED: BRANCH  19  21
DOCKED: ATOM     20  O   UNL     1      28.416 -16.531  -4.039 -0.15 -0.00    +0.000 OA
DOCKED: ATOM     21  C   UNL     1      28.805 -15.775  -3.106 -0.24 -0.00    +0.000 C 
DOCKED: ATOM     22  N   UNL     1      28.148 -15.795  -1.832 -0.23 -0.00    +0.000 N 
DOCKED: ATOM     23  H   UNL     1      28.604 -15.365  -1.074 +0.00 -0.00    +0.000 HD
DOCKED: BRANCH  22  24
DOCKED: ATOM     24  C   UNL     1      26.867 -16.402  -1.591 -0.38 -0.00    +0.000 A 
DOCKED: ATOM     25  C   UNL     1      26.796 -17.582  -0.840 -0.47 -0.00    +0.000 A 
DOCKED: ATOM     26  C   UNL     1      25.561 -18.178  -0.567 -0.60 -0.00    +0.000 A 
DOCKED: ATOM     27  C   UNL     1      24.369 -17.595  -1.031 -0.66 -0.00    +0.000 A 
DOCKED: ATOM     28  C   UNL     1      24.440 -16.393  -1.755 -0.42 -0.00    +0.000 A 
DOCKED: ATOM     29  C   UNL     1      25.676 -15.799  -2.032 -0.46 -0.00    +0.000 A 
DOCKED: BRANCH  27  30
DOCKED: ATOM     30  C   UNL     1      23.049 -18.208  -0.738 -0.82 -0.00    +0.000 C 
DOCKED: ATOM     31  N   UNL     1      21.835 -17.464  -0.882 -0.67 -0.00    +0.000 N 
DOCKED: ATOM     32  O   UNL     1      20.640 -18.075  -0.707 -2.27 -0.00    +0.000 OA
DOCKED: ATOM     33  O   UNL     1      22.994 -19.403  -0.340 -0.77 -0.00    +0.000 OA
DOCKED: ATOM     34  H   UNL     1      21.868 -16.507  -1.109 -0.05 -0.00    +0.000 HD
DOCKED: ENDBRANCH  27  30
DOCKED: ENDBRANCH  22  24
DOCKED: ENDBRANCH  19  21
DOCKED: ENDBRANCH   1  19
DOCKED: TORSDOF 9
DOCKED: TER
DOCKED: ENDMDL
________________________________________________________________________________


	BEGINNING GENETIC ALGORITHM DOCKING 61 of 100
Run: 61 Seed: 1250029240 2095430085 [ Run 61 of 100 GA/GALS ]
Beginning LAMARCKIAN GENETIC ALGORITHM (LGA), with a maximum of 2500000 energy evaluations.

Final-Value: -15.071


	FINAL GENETIC ALGORITHM DOCKED STATE
	_______________________________________________


Detailed state:  trans 28.729 -18.919 -3.314 quatxyzw -0.277613 -0.900634 -0.330727 0.049079 center 1.436 0.069 -0.007 ntor 9 -67.7161 -77.2968 -33.0521 114.4487 -44.9864 -26.1431 -136.9630 -11.1728 -180.0000
State:	 28.729 -18.919  -3.314  -0.278 -0.902 -0.331 174.374    -67.72  -77.30  -33.05  114.45  -44.99  -26.14 -136.96  -11.17 -180.00

DOCKED: MODEL       61
DOCKED: USER    Run = 61
DOCKED: USER    DPF = ligand_dock.biased.dpf
DOCKED: USER  
DOCKED: USER    Estimated Free Energy of Binding    =  -10.46 kcal/mol  [=(1)+(2)+(3)-(4)]
DOCKED: USER    Estimated Inhibition Constant, Ki   =   21.53 nM (nanomolar)  [Temperature = 298.15 K]
DOCKED: USER    
DOCKED: USER    (1) Final Intermolecular Energy     =  -13.14 kcal/mol
DOCKED: USER        vdW + Hbond + desolv Energy     =  -13.14 kcal/mol
DOCKED: USER        Electrostatic Energy            =   +0.00 kcal/mol
DOCKED: USER    (2) Final Total Internal Energy     =   -1.93 kcal/mol
DOCKED: USER    (3) Torsional Free Energy           =   +2.68 kcal/mol
DOCKED: USER    (4) Unbound System's Energy  [=(2)] =   -1.93 kcal/mol
DOCKED: USER    
DOCKED: USER    
DOCKED: USER    NEWDPF move ligand.pdbqt
DOCKED: USER    NEWDPF about 1.436000 0.069000 -0.007000
DOCKED: USER    NEWDPF tran0 28.729250 -18.919131 -3.313652
DOCKED: USER    NEWDPF quaternion0 -0.277613 -0.900634 -0.330727 0.049079
DOCKED: USER    NEWDPF axisangle0 -0.277948 -0.901721 -0.331126 174.373655
DOCKED: USER    NEWDPF quat0 -0.277948 -0.901721 -0.331126 174.373655
DOCKED: USER    NEWDPF dihe0 -67.72 -77.30 -33.05 114.45 -44.99 -26.14 -136.96 -11.17 -180.00 
DOCKED: USER  keepresnum = 1 
DOCKED: USER  
DOCKED: REMARK  Name = 
DOCKED: REMARK  11 active torsions:
DOCKED: REMARK  status: ('A' for Active; 'I' for Inactive)
DOCKED: REMARK    1  A    between atoms: C_2  and  O_3
DOCKED: REMARK    2  A    between atoms: O_3  and  C_4
DOCKED: REMARK    3  A    between atoms: C_4  and  C_5
DOCKED: REMARK    4  A    between atoms: C_10  and  C_11
DOCKED: REMARK    5  A    between atoms: C_11  and  N_12
DOCKED: REMARK    6  A    between atoms: N_12  and  C_13
DOCKED: REMARK    7  A    between atoms: N_12  and  C_15
DOCKED: REMARK    8  A    between atoms: C_13  and  C_14
DOCKED: REMARK    9  A    between atoms: C_15  and  C_16
DOCKED: REMARK   10  A    between atoms: N_21  and  C_22
DOCKED: REMARK   11  A    between atoms: C_25  and  C_26
DOCKED: REMARK                            x       y       z     vdW  Elec       q    Type
DOCKED: REMARK                         _______ _______ _______ _____ _____    ______ ____
DOCKED: USER                              x       y       z     vdW  Elec       q    Type
DOCKED: USER                           _______ _______ _______ _____ _____    ______ ____
DOCKED: ROOT
DOCKED: ATOM      1  C   UNL     1      30.335 -16.127  -1.061 -0.15 -0.00    +0.000 C 
DOCKED: ENDROOT
DOCKED: BRANCH   1   2
DOCKED: ATOM      2  C   UNL     1      30.733 -17.504  -1.518 -0.17 -0.00    +0.000 A 
DOCKED: ATOM      3  C   UNL     1      31.343 -17.693  -2.768 -0.12 -0.00    +0.000 A 
DOCKED: ATOM      4  C   UNL     1      31.732 -18.970  -3.182 -0.13 -0.00    +0.000 A 
DOCKED: ATOM      5  C   UNL     1      31.518 -20.077  -2.347 -0.13 -0.00    +0.000 A 
DOCKED: ATOM      6  C   UNL     1      31.910 -21.362  -2.752 -0.12 -0.00    +0.000 A 
DOCKED: ATOM      7  C   UNL     1      31.699 -22.465  -1.911 -0.12 -0.00    +0.000 A 
DOCKED: ATOM      8  C   UNL     1      31.084 -22.278  -0.663 -0.17 -0.00    +0.000 A 
DOCKED: ATOM      9  C   UNL     1      30.691 -21.002  -0.252 -0.09 -0.00    +0.000 A 
DOCKED: ATOM     10  C   UNL     1      30.904 -19.896  -1.086 -0.05 -0.00    +0.000 A 
DOCKED: ATOM     11  C   UNL     1      30.515 -18.610  -0.681 -0.10 -0.00    +0.000 A 
DOCKED: BRANCH   7  12
DOCKED: ATOM     12  C   UNL     1      32.109 -23.844  -2.363 -0.08 -0.00    +0.000 C 
DOCKED: BRANCH  12  13
DOCKED: ATOM     13  N   UNL     1      30.925 -24.705  -2.579 -0.14 -0.00    +0.000 N 
DOCKED: ATOM     14  H   UNL     1      31.297 -25.441  -3.179 +0.01 -0.00    +0.000 HD
DOCKED: BRANCH  13  15
DOCKED: ATOM     15  C   UNL     1      30.456 -25.446  -1.384 -0.26 -0.00    +0.000 C 
DOCKED: ATOM     16  C   UNL     1      31.544 -25.719  -0.332 -0.24 -0.00    +0.000 C 
DOCKED: ENDBRANCH  13  15
DOCKED: BRANCH  13  17
DOCKED: ATOM     17  C   UNL     1      29.849 -24.112  -3.410 -0.31 -0.00    +0.000 C 
DOCKED: ATOM     18  C   UNL     1      28.444 -24.617  -3.075 -0.46 -0.00    +0.000 C 
DOCKED: ENDBRANCH  13  17
DOCKED: ENDBRANCH  12  13
DOCKED: ENDBRANCH   7  12
DOCKED: ENDBRANCH   1   2
DOCKED: BRANCH   1  19
DOCKED: ATOM     19  O   UNL     1      29.321 -15.593  -1.911 -0.15 -0.00    +0.000 OA
DOCKED: BRANCH  19  21
DOCKED: ATOM     20  O   UNL     1      27.634 -16.344  -3.300 -0.30 -0.00    +0.000 OA
DOCKED: ATOM     21  C   UNL     1      28.090 -16.222  -2.129 -0.30 -0.00    +0.000 C 
DOCKED: ATOM     22  N   UNL     1      27.376 -16.763  -1.011 -0.40 -0.00    +0.000 N 
DOCKED: ATOM     23  H   UNL     1      27.855 -16.844  -0.155 -0.07 -0.00    +0.000 HD
DOCKED: BRANCH  22  24
DOCKED: ATOM     24  C   UNL     1      26.005 -17.193  -1.057 -0.52 -0.00    +0.000 A 
DOCKED: ATOM     25  C   UNL     1      25.684 -18.508  -0.694 -0.51 -0.00    +0.000 A 
DOCKED: ATOM     26  C   UNL     1      24.355 -18.944  -0.704 -0.52 -0.00    +0.000 A 
DOCKED: ATOM     27  C   UNL     1      23.318 -18.066  -1.064 -0.71 -0.00    +0.000 A 
DOCKED: ATOM     28  C   UNL     1      23.639 -16.738  -1.395 -0.35 -0.00    +0.000 A 
DOCKED: ATOM     29  C   UNL     1      24.968 -16.303  -1.390 -0.50 -0.00    +0.000 A 
DOCKED: BRANCH  27  30
DOCKED: ATOM     30  C   UNL     1      21.902 -18.509  -1.066 -0.79 -0.00    +0.000 C 
DOCKED: ATOM     31  N   UNL     1      21.471 -19.624  -1.853 -0.42 -0.00    +0.000 N 
DOCKED: ATOM     32  O   UNL     1      20.197 -20.071  -1.758 -2.26 -0.00    +0.000 OA
DOCKED: ATOM     33  O   UNL     1      21.055 -17.883  -0.372 -1.93 +0.00    +0.000 OA
DOCKED: ATOM     34  H   UNL     1      22.102 -20.069  -2.464 -0.61 -0.00    +0.000 HD
DOCKED: ENDBRANCH  27  30
DOCKED: ENDBRANCH  22  24
DOCKED: ENDBRANCH  19  21
DOCKED: ENDBRANCH   1  19
DOCKED: TORSDOF 9
DOCKED: TER
DOCKED: ENDMDL
________________________________________________________________________________


	BEGINNING GENETIC ALGORITHM DOCKING 62 of 100
Run: 62 Seed: 1454573402 930784381 [ Run 62 of 100 GA/GALS ]
Beginning LAMARCKIAN GENETIC ALGORITHM (LGA), with a maximum of 2500000 energy evaluations.

Final-Value: -15.914


	FINAL GENETIC ALGORITHM DOCKED STATE
	_______________________________________________


Detailed state:  trans 28.052 -15.078 2.123 quatxyzw 0.098813 -0.621528 0.607479 0.484674 center 1.436 0.069 -0.007 ntor 9 83.5920 139.4529 132.6066 -180.0000 1.0510 -177.3069 62.9454 30.2306 -148.3857
State:	 28.052 -15.078   2.123   0.113 -0.711  0.695 122.018     83.59  139.45  132.61 -180.00    1.05 -177.31   62.95   30.23 -148.39

DOCKED: MODEL       62
DOCKED: USER    Run = 62
DOCKED: USER    DPF = ligand_dock.biased.dpf
DOCKED: USER  
DOCKED: USER    Estimated Free Energy of Binding    =  -11.57 kcal/mol  [=(1)+(2)+(3)-(4)]
DOCKED: USER    Estimated Inhibition Constant, Ki   =    3.31 nM (nanomolar)  [Temperature = 298.15 K]
DOCKED: USER    
DOCKED: USER    (1) Final Intermolecular Energy     =  -14.25 kcal/mol
DOCKED: USER        vdW + Hbond + desolv Energy     =  -14.25 kcal/mol
DOCKED: USER        Electrostatic Energy            =   +0.00 kcal/mol
DOCKED: USER    (2) Final Total Internal Energy     =   -1.66 kcal/mol
DOCKED: USER    (3) Torsional Free Energy           =   +2.68 kcal/mol
DOCKED: USER    (4) Unbound System's Energy  [=(2)] =   -1.66 kcal/mol
DOCKED: USER    
DOCKED: USER    
DOCKED: USER    NEWDPF move ligand.pdbqt
DOCKED: USER    NEWDPF about 1.436000 0.069000 -0.007000
DOCKED: USER    NEWDPF tran0 28.051663 -15.077622 2.122726
DOCKED: USER    NEWDPF quaternion0 0.098813 -0.621528 0.607479 0.484674
DOCKED: USER    NEWDPF axisangle0 0.112968 -0.710565 0.694504 122.017796
DOCKED: USER    NEWDPF quat0 0.112968 -0.710565 0.694504 122.017796
DOCKED: USER    NEWDPF dihe0 83.59 139.45 132.61 -180.00 1.05 -177.31 62.95 30.23 -148.39 
DOCKED: USER  keepresnum = 1 
DOCKED: USER  
DOCKED: REMARK  Name = 
DOCKED: REMARK  11 active torsions:
DOCKED: REMARK  status: ('A' for Active; 'I' for Inactive)
DOCKED: REMARK    1  A    between atoms: C_2  and  O_3
DOCKED: REMARK    2  A    between atoms: O_3  and  C_4
DOCKED: REMARK    3  A    between atoms: C_4  and  C_5
DOCKED: REMARK    4  A    between atoms: C_10  and  C_11
DOCKED: REMARK    5  A    between atoms: C_11  and  N_12
DOCKED: REMARK    6  A    between atoms: N_12  and  C_13
DOCKED: REMARK    7  A    between atoms: N_12  and  C_15
DOCKED: REMARK    8  A    between atoms: C_13  and  C_14
DOCKED: REMARK    9  A    between atoms: C_15  and  C_16
DOCKED: REMARK   10  A    between atoms: N_21  and  C_22
DOCKED: REMARK   11  A    between atoms: C_25  and  C_26
DOCKED: REMARK                            x       y       z     vdW  Elec       q    Type
DOCKED: REMARK                         _______ _______ _______ _____ _____    ______ ____
DOCKED: USER                              x       y       z     vdW  Elec       q    Type
DOCKED: USER                           _______ _______ _______ _____ _____    ______ ____
DOCKED: ROOT
DOCKED: ATOM      1  C   UNL     1      29.891 -14.562  -1.312 -0.08 -0.00    +0.000 C 
DOCKED: ENDROOT
DOCKED: BRANCH   1   2
DOCKED: ATOM      2  C   UNL     1      29.779 -13.793  -0.024 -0.07 -0.00    +0.000 A 
DOCKED: ATOM      3  C   UNL     1      30.909 -13.584   0.782 -0.04 -0.00    +0.000 A 
DOCKED: ATOM      4  C   UNL     1      30.808 -12.851   1.968 -0.05 -0.00    +0.000 A 
DOCKED: ATOM      5  C   UNL     1      29.574 -12.314   2.362 -0.08 -0.00    +0.000 A 
DOCKED: ATOM      6  C   UNL     1      29.464 -11.573   3.548 -0.09 -0.00    +0.000 A 
DOCKED: ATOM      7  C   UNL     1      28.228 -11.033   3.935 -0.23 +0.00    +0.000 A 
DOCKED: ATOM      8  C   UNL     1      27.096 -11.247   3.133 -0.23 +0.00    +0.000 A 
DOCKED: ATOM      9  C   UNL     1      27.196 -11.985   1.950 -0.25 +0.00    +0.000 A 
DOCKED: ATOM     10  C   UNL     1      28.430 -12.521   1.556 -0.13 -0.00    +0.000 A 
DOCKED: ATOM     11  C   UNL     1      28.541 -13.260   0.368 -0.11 -0.00    +0.000 A 
DOCKED: BRANCH   7  12
DOCKED: ATOM     12  C   UNL     1      28.117 -10.252   5.220 -0.34 +0.00    +0.000 C 
DOCKED: BRANCH  12  13
DOCKED: ATOM     13  N   UNL     1      28.342 -11.125   6.392 -0.37 +0.00    +0.000 N 
DOCKED: ATOM     14  H   UNL     1      27.581 -10.856   7.016 -0.02 +0.00    +0.000 HD
DOCKED: BRANCH  13  15
DOCKED: ATOM     15  C   UNL     1      28.097 -12.569   6.162 -0.43 +0.00    +0.000 C 
DOCKED: ATOM     16  C   UNL     1      29.278 -13.485   6.523 -0.38 -0.00    +0.000 C 
DOCKED: ENDBRANCH  13  15
DOCKED: BRANCH  13  17
DOCKED: ATOM     17  C   UNL     1      29.550 -10.816   7.195 -0.27 -0.00    +0.000 C 
DOCKED: ATOM     18  C   UNL     1      29.504  -9.462   7.908 -0.26 +0.00    +0.000 C 
DOCKED: ENDBRANCH  13  17
DOCKED: ENDBRANCH  12  13
DOCKED: ENDBRANCH   7  12
DOCKED: ENDBRANCH   1   2
DOCKED: BRANCH   1  19
DOCKED: ATOM     19  O   UNL     1      29.537 -15.929  -1.109 -0.17 -0.00    +0.000 OA
DOCKED: BRANCH  19  21
DOCKED: ATOM     20  O   UNL     1      27.895 -16.519  -2.624 -0.34 -0.00    +0.000 OA
DOCKED: ATOM     21  C   UNL     1      28.278 -16.452  -1.423 -0.33 -0.00    +0.000 C 
DOCKED: ATOM     22  N   UNL     1      27.446 -16.950  -0.367 -0.41 -0.00    +0.000 N 
DOCKED: ATOM     23  H   UNL     1      27.857 -17.083   0.517 -0.30 -0.00    +0.000 HD
DOCKED: BRANCH  22  24
DOCKED: ATOM     24  C   UNL     1      26.052 -17.266  -0.514 -0.53 -0.00    +0.000 A 
DOCKED: ATOM     25  C   UNL     1      25.291 -16.588  -1.476 -0.53 -0.00    +0.000 A 
DOCKED: ATOM     26  C   UNL     1      23.939 -16.896  -1.660 -0.36 -0.00    +0.000 A 
DOCKED: ATOM     27  C   UNL     1      23.325 -17.899  -0.890 -0.71 -0.00    +0.000 A 
DOCKED: ATOM     28  C   UNL     1      24.098 -18.601   0.050 -0.44 -0.00    +0.000 A 
DOCKED: ATOM     29  C   UNL     1      25.449 -18.290   0.237 -0.46 -0.00    +0.000 A 
DOCKED: BRANCH  27  30
DOCKED: ATOM     30  C   UNL     1      21.895 -18.247  -1.082 -0.74 -0.00    +0.000 C 
DOCKED: ATOM     31  N   UNL     1      21.503 -19.478  -1.698 -0.59 -0.00    +0.000 N 
DOCKED: ATOM     32  O   UNL     1      20.195 -19.816  -1.769 -2.33 -0.00    +0.000 OA
DOCKED: ATOM     33  O   UNL     1      21.003 -17.436  -0.709 -2.03 +0.00    +0.000 OA
DOCKED: ATOM     34  H   UNL     1      22.187 -20.081  -2.072 -0.53 -0.00    +0.000 HD
DOCKED: ENDBRANCH  27  30
DOCKED: ENDBRANCH  22  24
DOCKED: ENDBRANCH  19  21
DOCKED: ENDBRANCH   1  19
DOCKED: TORSDOF 9
DOCKED: TER
DOCKED: ENDMDL
________________________________________________________________________________


	BEGINNING GENETIC ALGORITHM DOCKING 63 of 100
Run: 63 Seed: 278620910 1600811997 [ Run 63 of 100 GA/GALS ]
Beginning LAMARCKIAN GENETIC ALGORITHM (LGA), with a maximum of 2500000 energy evaluations.

Final-Value: -14.645


	FINAL GENETIC ALGORITHM DOCKED STATE
	_______________________________________________


Detailed state:  trans 26.139 -15.107 -1.516 quatxyzw -0.045885 -0.067939 -0.718515 -0.690663 center 1.436 0.069 -0.007 ntor 9 80.5525 114.3086 28.2505 166.4590 -167.5779 117.1054 -102.7819 -57.6922 -166.1362
State:	 26.139 -15.107  -1.516  -0.063 -0.094 -0.994 -92.635     80.55  114.31   28.25  166.46 -167.58  117.11 -102.78  -57.69 -166.14

DOCKED: MODEL       63
DOCKED: USER    Run = 63
DOCKED: USER    DPF = ligand_dock.biased.dpf
DOCKED: USER  
DOCKED: USER    Estimated Free Energy of Binding    =   -9.85 kcal/mol  [=(1)+(2)+(3)-(4)]
DOCKED: USER    Estimated Inhibition Constant, Ki   =   60.74 nM (nanomolar)  [Temperature = 298.15 K]
DOCKED: USER    
DOCKED: USER    (1) Final Intermolecular Energy     =  -12.53 kcal/mol
DOCKED: USER        vdW + Hbond + desolv Energy     =  -12.53 kcal/mol
DOCKED: USER        Electrostatic Energy            =   +0.00 kcal/mol
DOCKED: USER    (2) Final Total Internal Energy     =   -2.11 kcal/mol
DOCKED: USER    (3) Torsional Free Energy           =   +2.68 kcal/mol
DOCKED: USER    (4) Unbound System's Energy  [=(2)] =   -2.11 kcal/mol
DOCKED: USER    
DOCKED: USER    
DOCKED: USER    NEWDPF move ligand.pdbqt
DOCKED: USER    NEWDPF about 1.436000 0.069000 -0.007000
DOCKED: USER    NEWDPF tran0 26.139227 -15.106869 -1.516373
DOCKED: USER    NEWDPF quaternion0 -0.045885 -0.067939 -0.718515 -0.690663
DOCKED: USER    NEWDPF axisangle0 -0.063450 -0.093946 -0.993553 -92.634823
DOCKED: USER    NEWDPF quat0 -0.063450 -0.093946 -0.993553 -92.634823
DOCKED: USER    NEWDPF dihe0 80.55 114.31 28.25 166.46 -167.58 117.11 -102.78 -57.69 -166.14 
DOCKED: USER  keepresnum = 1 
DOCKED: USER  
DOCKED: REMARK  Name = 
DOCKED: REMARK  11 active torsions:
DOCKED: REMARK  status: ('A' for Active; 'I' for Inactive)
DOCKED: REMARK    1  A    between atoms: C_2  and  O_3
DOCKED: REMARK    2  A    between atoms: O_3  and  C_4
DOCKED: REMARK    3  A    between atoms: C_4  and  C_5
DOCKED: REMARK    4  A    between atoms: C_10  and  C_11
DOCKED: REMARK    5  A    between atoms: C_11  and  N_12
DOCKED: REMARK    6  A    between atoms: N_12  and  C_13
DOCKED: REMARK    7  A    between atoms: N_12  and  C_15
DOCKED: REMARK    8  A    between atoms: C_13  and  C_14
DOCKED: REMARK    9  A    between atoms: C_15  and  C_16
DOCKED: REMARK   10  A    between atoms: N_21  and  C_22
DOCKED: REMARK   11  A    between atoms: C_25  and  C_26
DOCKED: REMARK                            x       y       z     vdW  Elec       q    Type
DOCKED: REMARK                         _______ _______ _______ _____ _____    ______ ____
DOCKED: USER                              x       y       z     vdW  Elec       q    Type
DOCKED: USER                           _______ _______ _______ _____ _____    ______ ____
DOCKED: ROOT
DOCKED: ATOM      1  C   UNL     1      30.017 -15.552  -1.055 -0.13 -0.00    +0.000 C 
DOCKED: ENDROOT
DOCKED: BRANCH   1   2
DOCKED: ATOM      2  C   UNL     1      29.112 -14.472  -1.582 -0.09 -0.00    +0.000 A 
DOCKED: ATOM      3  C   UNL     1      28.735 -13.395  -0.763 -0.08 -0.00    +0.000 A 
DOCKED: ATOM      4  C   UNL     1      27.911 -12.382  -1.260 -0.10 -0.00    +0.000 A 
DOCKED: ATOM      5  C   UNL     1      27.455 -12.430  -2.586 -0.13 -0.00    +0.000 A 
DOCKED: ATOM      6  C   UNL     1      26.632 -11.414  -3.095 -0.02 -0.00    +0.000 A 
DOCKED: ATOM      7  C   UNL     1      26.183 -11.463  -4.423 -0.24 -0.00    +0.000 A 
DOCKED: ATOM      8  C   UNL     1      26.555 -12.542  -5.240 -0.15 -0.00    +0.000 A 
DOCKED: ATOM      9  C   UNL     1      27.374 -13.559  -4.742 -0.26 -0.00    +0.000 A 
DOCKED: ATOM     10  C   UNL     1      27.830 -13.511  -3.417 -0.16 -0.00    +0.000 A 
DOCKED: ATOM     11  C   UNL     1      28.655 -14.525  -2.908 -0.13 -0.00    +0.000 A 
DOCKED: BRANCH   7  12
DOCKED: ATOM     12  C   UNL     1      25.286 -10.375  -4.955 -0.35 -0.00    +0.000 C 
DOCKED: BRANCH  12  13
DOCKED: ATOM     13  N   UNL     1      25.861  -9.763  -6.173 -0.17 -0.00    +0.000 N 
DOCKED: ATOM     14  H   UNL     1      25.538  -8.797  -6.105 +0.01 -0.00    +0.000 HD
DOCKED: BRANCH  13  15
DOCKED: ATOM     15  C   UNL     1      27.337  -9.628  -6.176 -0.09 -0.00    +0.000 C 
DOCKED: ATOM     16  C   UNL     1      28.041 -10.326  -7.351 -0.10 -0.00    +0.000 C 
DOCKED: ENDBRANCH  13  15
DOCKED: BRANCH  13  17
DOCKED: ATOM     17  C   UNL     1      25.271 -10.218  -7.455 -0.31 -0.00    +0.000 C 
DOCKED: ATOM     18  C   UNL     1      23.749 -10.379  -7.427 -0.38 -0.00    +0.000 C 
DOCKED: ENDBRANCH  13  17
DOCKED: ENDBRANCH  12  13
DOCKED: ENDBRANCH   7  12
DOCKED: ENDBRANCH   1   2
DOCKED: BRANCH   1  19
DOCKED: ATOM     19  O   UNL     1      29.286 -16.458  -0.231 -0.26 -0.00    +0.000 OA
DOCKED: BRANCH  19  21
DOCKED: ATOM     20  O   UNL     1      27.302 -15.900   0.814 -0.34 -0.00    +0.000 OA
DOCKED: ATOM     21  C   UNL     1      27.889 -16.467  -0.149 -0.32 -0.00    +0.000 C 
DOCKED: ATOM     22  N   UNL     1      27.133 -17.092  -1.194 -0.43 -0.00    +0.000 N 
DOCKED: ATOM     23  H   UNL     1      27.605 -17.327  -2.025 -0.03 -0.00    +0.000 HD
DOCKED: BRANCH  22  24
DOCKED: ATOM     24  C   UNL     1      25.731 -17.399  -1.107 -0.55 -0.00    +0.000 A 
DOCKED: ATOM     25  C   UNL     1      25.331 -18.670  -0.676 -0.46 -0.00    +0.000 A 
DOCKED: ATOM     26  C   UNL     1      23.973 -18.986  -0.556 -0.52 -0.00    +0.000 A 
DOCKED: ATOM     27  C   UNL     1      22.989 -18.027  -0.854 -0.72 -0.00    +0.000 A 
DOCKED: ATOM     28  C   UNL     1      23.393 -16.742  -1.254 -0.25 -0.00    +0.000 A 
DOCKED: ATOM     29  C   UNL     1      24.750 -16.428  -1.378 -0.51 -0.00    +0.000 A 
DOCKED: BRANCH  27  30
DOCKED: ATOM     30  C   UNL     1      21.545 -18.342  -0.719 -0.84 -0.00    +0.000 C 
DOCKED: ATOM     31  N   UNL     1      21.101 -19.602  -0.204 -0.73 -0.00    +0.000 N 
DOCKED: ATOM     32  O   UNL     1      19.783 -19.824   0.005 -1.10 -0.00    +0.000 OA
DOCKED: ATOM     33  O   UNL     1      20.687 -17.489  -1.078 -2.09 -0.00    +0.000 OA
DOCKED: ATOM     34  H   UNL     1      21.757 -20.308   0.000 -0.50 -0.00    +0.000 HD
DOCKED: ENDBRANCH  27  30
DOCKED: ENDBRANCH  22  24
DOCKED: ENDBRANCH  19  21
DOCKED: ENDBRANCH   1  19
DOCKED: TORSDOF 9
DOCKED: TER
DOCKED: ENDMDL
________________________________________________________________________________


	BEGINNING GENETIC ALGORITHM DOCKING 64 of 100
Run: 64 Seed: 971917178 1798683776 [ Run 64 of 100 GA/GALS ]
Beginning LAMARCKIAN GENETIC ALGORITHM (LGA), with a maximum of 2500000 energy evaluations.

Final-Value: -14.964


	FINAL GENETIC ALGORITHM DOCKED STATE
	_______________________________________________


Detailed state:  trans 25.765 -14.183 1.456 quatxyzw 0.304018 -0.365284 0.705224 0.526117 center 1.436 0.069 -0.007 ntor 9 -149.0528 -178.4372 -52.5106 -130.9121 145.6876 -30.2590 178.2595 11.1157 116.0251
State:	 25.765 -14.183   1.456   0.357 -0.430  0.829 116.513   -149.05 -178.44  -52.51 -130.91  145.69  -30.26  178.26   11.12  116.03

DOCKED: MODEL       64
DOCKED: USER    Run = 64
DOCKED: USER    DPF = ligand_dock.biased.dpf
DOCKED: USER  
DOCKED: USER    Estimated Free Energy of Binding    =  -10.57 kcal/mol  [=(1)+(2)+(3)-(4)]
DOCKED: USER    Estimated Inhibition Constant, Ki   =   17.97 nM (nanomolar)  [Temperature = 298.15 K]
DOCKED: USER    
DOCKED: USER    (1) Final Intermolecular Energy     =  -13.25 kcal/mol
DOCKED: USER        vdW + Hbond + desolv Energy     =  -13.25 kcal/mol
DOCKED: USER        Electrostatic Energy            =   +0.00 kcal/mol
DOCKED: USER    (2) Final Total Internal Energy     =   -1.71 kcal/mol
DOCKED: USER    (3) Torsional Free Energy           =   +2.68 kcal/mol
DOCKED: USER    (4) Unbound System's Energy  [=(2)] =   -1.71 kcal/mol
DOCKED: USER    
DOCKED: USER    
DOCKED: USER    NEWDPF move ligand.pdbqt
DOCKED: USER    NEWDPF about 1.436000 0.069000 -0.007000
DOCKED: USER    NEWDPF tran0 25.764850 -14.183209 1.455679
DOCKED: USER    NEWDPF quaternion0 0.304018 -0.365284 0.705224 0.526117
DOCKED: USER    NEWDPF axisangle0 0.357495 -0.429538 0.829274 116.513002
DOCKED: USER    NEWDPF quat0 0.357495 -0.429538 0.829274 116.513002
DOCKED: USER    NEWDPF dihe0 -149.05 -178.44 -52.51 -130.91 145.69 -30.26 178.26 11.12 116.03 
DOCKED: USER  keepresnum = 1 
DOCKED: USER  
DOCKED: REMARK  Name = 
DOCKED: REMARK  11 active torsions:
DOCKED: REMARK  status: ('A' for Active; 'I' for Inactive)
DOCKED: REMARK    1  A    between atoms: C_2  and  O_3
DOCKED: REMARK    2  A    between atoms: O_3  and  C_4
DOCKED: REMARK    3  A    between atoms: C_4  and  C_5
DOCKED: REMARK    4  A    between atoms: C_10  and  C_11
DOCKED: REMARK    5  A    between atoms: C_11  and  N_12
DOCKED: REMARK    6  A    between atoms: N_12  and  C_13
DOCKED: REMARK    7  A    between atoms: N_12  and  C_15
DOCKED: REMARK    8  A    between atoms: C_13  and  C_14
DOCKED: REMARK    9  A    between atoms: C_15  and  C_16
DOCKED: REMARK   10  A    between atoms: N_21  and  C_22
DOCKED: REMARK   11  A    between atoms: C_25  and  C_26
DOCKED: REMARK                            x       y       z     vdW  Elec       q    Type
DOCKED: REMARK                         _______ _______ _______ _____ _____    ______ ____
DOCKED: USER                              x       y       z     vdW  Elec       q    Type
DOCKED: USER                           _______ _______ _______ _____ _____    ______ ____
DOCKED: ROOT
DOCKED: ATOM      1  C   UNL     1      27.927 -15.276  -1.639 -0.24 -0.00    +0.000 C 
DOCKED: ENDROOT
DOCKED: BRANCH   1   2
DOCKED: ATOM      2  C   UNL     1      27.458 -13.969  -1.061 -0.18 -0.00    +0.000 A 
DOCKED: ATOM      3  C   UNL     1      27.042 -13.890   0.278 -0.26 -0.00    +0.000 A 
DOCKED: ATOM      4  C   UNL     1      26.627 -12.670   0.820 -0.28 -0.00    +0.000 A 
DOCKED: ATOM      5  C   UNL     1      26.624 -11.512   0.029 -0.14 +0.00    +0.000 A 
DOCKED: ATOM      6  C   UNL     1      26.213 -10.282   0.566 -0.28 +0.00    +0.000 A 
DOCKED: ATOM      7  C   UNL     1      26.218  -9.125  -0.227 -0.24 +0.00    +0.000 A 
DOCKED: ATOM      8  C   UNL     1      26.627  -9.205  -1.568 -0.14 -0.00    +0.000 A 
DOCKED: ATOM      9  C   UNL     1      27.038 -10.425  -2.111 -0.10 -0.00    +0.000 A 
DOCKED: ATOM     10  C   UNL     1      27.041 -11.583  -1.321 -0.02 -0.00    +0.000 A 
DOCKED: ATOM     11  C   UNL     1      27.454 -12.813  -1.856 -0.13 -0.00    +0.000 A 
DOCKED: BRANCH   7  12
DOCKED: ATOM     12  C   UNL     1      25.759  -7.812   0.354 -0.16 +0.00    +0.000 C 
DOCKED: BRANCH  12  13
DOCKED: ATOM     13  N   UNL     1      26.810  -7.212   1.204 -0.17 +0.00    +0.000 N 
DOCKED: ATOM     14  H   UNL     1      26.651  -7.668   2.103 -0.02 +0.00    +0.000 HD
DOCKED: BRANCH  13  15
DOCKED: ATOM     15  C   UNL     1      28.198  -7.607   0.865 -0.08 +0.00    +0.000 C 
DOCKED: ATOM     16  C   UNL     1      28.851  -8.576   1.865 -0.07 +0.00    +0.000 C 
DOCKED: ENDBRANCH  13  15
DOCKED: BRANCH  13  17
DOCKED: ATOM     17  C   UNL     1      26.629  -5.776   1.525 -0.13 +0.00    +0.000 C 
DOCKED: ATOM     18  C   UNL     1      26.231  -5.500   2.977 -0.15 +0.00    +0.000 C 
DOCKED: ENDBRANCH  13  17
DOCKED: ENDBRANCH  12  13
DOCKED: ENDBRANCH   7  12
DOCKED: ENDBRANCH   1   2
DOCKED: BRANCH   1  19
DOCKED: ATOM     19  O   UNL     1      27.863 -16.309  -0.656 -0.36 -0.00    +0.000 OA
DOCKED: BRANCH  19  21
DOCKED: ATOM     20  O   UNL     1      26.680 -17.857   0.586 -0.56 -0.00    +0.000 OA
DOCKED: ATOM     21  C   UNL     1      26.680 -16.974  -0.317 -0.52 -0.00    +0.000 C 
DOCKED: ATOM     22  N   UNL     1      25.461 -16.612  -0.978 -0.51 -0.00    +0.000 N 
DOCKED: ATOM     23  H   UNL     1      25.455 -15.783  -1.509 -0.01 -0.00    +0.000 HD
DOCKED: BRANCH  22  24
DOCKED: ATOM     24  C   UNL     1      24.247 -17.379  -0.917 -0.64 -0.00    +0.000 A 
DOCKED: ATOM     25  C   UNL     1      23.093 -16.799  -0.373 -0.27 -0.00    +0.000 A 
DOCKED: ATOM     26  C   UNL     1      21.892 -17.514  -0.327 -0.58 -0.00    +0.000 A 
DOCKED: ATOM     27  C   UNL     1      21.819 -18.821  -0.838 -0.75 -0.00    +0.000 A 
DOCKED: ATOM     28  C   UNL     1      22.969 -19.389  -1.414 -0.52 -0.00    +0.000 A 
DOCKED: ATOM     29  C   UNL     1      24.171 -18.676  -1.456 -0.47 -0.00    +0.000 A 
DOCKED: BRANCH  27  30
DOCKED: ATOM     30  C   UNL     1      20.549 -19.588  -0.809 -0.87 -0.00    +0.000 C 
DOCKED: ATOM     31  N   UNL     1      20.070 -20.193   0.397 -0.72 -0.00    +0.000 N 
DOCKED: ATOM     32  O   UNL     1      18.861 -20.799   0.419 -0.90 -0.00    +0.000 OA
DOCKED: ATOM     33  O   UNL     1      19.882 -19.724  -1.871 -2.38 -0.00    +0.000 OA
DOCKED: ATOM     34  H   UNL     1      20.622 -20.168   1.212 -0.39 -0.00    +0.000 HD
DOCKED: ENDBRANCH  27  30
DOCKED: ENDBRANCH  22  24
DOCKED: ENDBRANCH  19  21
DOCKED: ENDBRANCH   1  19
DOCKED: TORSDOF 9
DOCKED: TER
DOCKED: ENDMDL
________________________________________________________________________________


	BEGINNING GENETIC ALGORITHM DOCKING 65 of 100
Run: 65 Seed: 1423582858 1288406878 [ Run 65 of 100 GA/GALS ]
Beginning LAMARCKIAN GENETIC ALGORITHM (LGA), with a maximum of 2500000 energy evaluations.

Final-Value: -15.561


	FINAL GENETIC ALGORITHM DOCKED STATE
	_______________________________________________


Detailed state:  trans 25.506 -13.843 -2.105 quatxyzw 0.419444 0.048989 0.818856 0.388769 center 1.436 0.069 -0.007 ntor 9 -98.4327 131.4290 103.0192 -43.6937 11.9415 120.6920 -178.5793 8.3809 77.8022
State:	 25.506 -13.843  -2.105   0.455  0.053  0.889 134.244    -98.43  131.43  103.02  -43.69   11.94  120.69 -178.58    8.38   77.80

DOCKED: MODEL       65
DOCKED: USER    Run = 65
DOCKED: USER    DPF = ligand_dock.biased.dpf
DOCKED: USER  
DOCKED: USER    Estimated Free Energy of Binding    =  -11.28 kcal/mol  [=(1)+(2)+(3)-(4)]
DOCKED: USER    Estimated Inhibition Constant, Ki   =    5.39 nM (nanomolar)  [Temperature = 298.15 K]
DOCKED: USER    
DOCKED: USER    (1) Final Intermolecular Energy     =  -13.97 kcal/mol
DOCKED: USER        vdW + Hbond + desolv Energy     =  -13.97 kcal/mol
DOCKED: USER        Electrostatic Energy            =   +0.00 kcal/mol
DOCKED: USER    (2) Final Total Internal Energy     =   -1.60 kcal/mol
DOCKED: USER    (3) Torsional Free Energy           =   +2.68 kcal/mol
DOCKED: USER    (4) Unbound System's Energy  [=(2)] =   -1.60 kcal/mol
DOCKED: USER    
DOCKED: USER    
DOCKED: USER    NEWDPF move ligand.pdbqt
DOCKED: USER    NEWDPF about 1.436000 0.069000 -0.007000
DOCKED: USER    NEWDPF tran0 25.506157 -13.842884 -2.104943
DOCKED: USER    NEWDPF quaternion0 0.419444 0.048989 0.818856 0.388769
DOCKED: USER    NEWDPF axisangle0 0.455257 0.053172 0.888771 134.244205
DOCKED: USER    NEWDPF quat0 0.455257 0.053172 0.888771 134.244205
DOCKED: USER    NEWDPF dihe0 -98.43 131.43 103.02 -43.69 11.94 120.69 -178.58 8.38 77.80 
DOCKED: USER  keepresnum = 1 
DOCKED: USER  
DOCKED: REMARK  Name = 
DOCKED: REMARK  11 active torsions:
DOCKED: REMARK  status: ('A' for Active; 'I' for Inactive)
DOCKED: REMARK    1  A    between atoms: C_2  and  O_3
DOCKED: REMARK    2  A    between atoms: O_3  and  C_4
DOCKED: REMARK    3  A    between atoms: C_4  and  C_5
DOCKED: REMARK    4  A    between atoms: C_10  and  C_11
DOCKED: REMARK    5  A    between atoms: C_11  and  N_12
DOCKED: REMARK    6  A    between atoms: N_12  and  C_13
DOCKED: REMARK    7  A    between atoms: N_12  and  C_15
DOCKED: REMARK    8  A    between atoms: C_13  and  C_14
DOCKED: REMARK    9  A    between atoms: C_15  and  C_16
DOCKED: REMARK   10  A    between atoms: N_21  and  C_22
DOCKED: REMARK   11  A    between atoms: C_25  and  C_26
DOCKED: REMARK                            x       y       z     vdW  Elec       q    Type
DOCKED: REMARK                         _______ _______ _______ _____ _____    ______ ____
DOCKED: USER                              x       y       z     vdW  Elec       q    Type
DOCKED: USER                           _______ _______ _______ _____ _____    ______ ____
DOCKED: ROOT
DOCKED: ATOM      1  C   UNL     1      28.210 -16.646  -2.634 -0.23 -0.00    +0.000 C 
DOCKED: ENDROOT
DOCKED: BRANCH   1   2
DOCKED: ATOM      2  C   UNL     1      27.735 -15.447  -3.409 -0.28 -0.00    +0.000 A 
DOCKED: ATOM      3  C   UNL     1      26.491 -14.861  -3.125 -0.38 -0.00    +0.000 A 
DOCKED: ATOM      4  C   UNL     1      26.061 -13.735  -3.832 -0.39 -0.00    +0.000 A 
DOCKED: ATOM      5  C   UNL     1      26.872 -13.177  -4.832 -0.27 -0.00    +0.000 A 
DOCKED: ATOM      6  C   UNL     1      26.450 -12.043  -5.543 -0.10 -0.00    +0.000 A 
DOCKED: ATOM      7  C   UNL     1      27.267 -11.486  -6.538 -0.16 -0.00    +0.000 A 
DOCKED: ATOM      8  C   UNL     1      28.508 -12.075  -6.826 -0.17 -0.00    +0.000 A 
DOCKED: ATOM      9  C   UNL     1      28.936 -13.205  -6.123 -0.20 -0.00    +0.000 A 
DOCKED: ATOM     10  C   UNL     1      28.126 -13.762  -5.124 -0.24 -0.00    +0.000 A 
DOCKED: ATOM     11  C   UNL     1      28.548 -14.894  -4.411 -0.24 -0.00    +0.000 A 
DOCKED: BRANCH   7  12
DOCKED: ATOM     12  C   UNL     1      26.798 -10.278  -7.308 -0.16 -0.00    +0.000 C 
DOCKED: BRANCH  12  13
DOCKED: ATOM     13  N   UNL     1      25.489 -10.532  -7.947 -0.28 -0.00    +0.000 N 
DOCKED: ATOM     14  H   UNL     1      25.271 -11.478  -7.632 -0.01 -0.00    +0.000 HD
DOCKED: BRANCH  13  15
DOCKED: ATOM     15  C   UNL     1      24.360  -9.730  -7.417 -0.39 -0.00    +0.000 C 
DOCKED: ATOM     16  C   UNL     1      24.128  -9.873  -5.904 -0.44 -0.00    +0.000 C 
DOCKED: ENDBRANCH  13  15
DOCKED: BRANCH  13  17
DOCKED: ATOM     17  C   UNL     1      25.517 -10.674  -9.423 -0.34 -0.00    +0.000 C 
DOCKED: ATOM     18  C   UNL     1      26.429 -11.792  -9.932 -0.37 -0.00    +0.000 C 
DOCKED: ENDBRANCH  13  17
DOCKED: ENDBRANCH  12  13
DOCKED: ENDBRANCH   7  12
DOCKED: ENDBRANCH   1   2
DOCKED: BRANCH   1  19
DOCKED: ATOM     19  O   UNL     1      27.838 -16.532  -1.261 -0.36 -0.00    +0.000 OA
DOCKED: BRANCH  19  21
DOCKED: ATOM     20  O   UNL     1      26.251 -16.569   0.418 -0.18 -0.00    +0.000 OA
DOCKED: ATOM     21  C   UNL     1      26.542 -16.777  -0.793 -0.52 -0.00    +0.000 C 
DOCKED: ATOM     22  N   UNL     1      25.541 -17.226  -1.714 -0.55 -0.00    +0.000 N 
DOCKED: ATOM     23  H   UNL     1      25.742 -17.167  -2.676 -0.04 -0.00    +0.000 HD
DOCKED: BRANCH  22  24
DOCKED: ATOM     24  C   UNL     1      24.263 -17.758  -1.326 -0.66 -0.00    +0.000 A 
DOCKED: ATOM     25  C   UNL     1      24.127 -19.135  -1.111 -0.35 -0.00    +0.000 A 
DOCKED: ATOM     26  C   UNL     1      22.902 -19.675  -0.705 -0.36 -0.00    +0.000 A 
DOCKED: ATOM     27  C   UNL     1      21.790 -18.841  -0.495 -0.75 -0.00    +0.000 A 
DOCKED: ATOM     28  C   UNL     1      21.937 -17.455  -0.679 -0.64 -0.00    +0.000 A 
DOCKED: ATOM     29  C   UNL     1      23.161 -16.917  -1.088 -0.41 -0.00    +0.000 A 
DOCKED: BRANCH  27  30
DOCKED: ATOM     30  C   UNL     1      20.487 -19.396  -0.052 -0.84 -0.00    +0.000 C 
DOCKED: ATOM     31  N   UNL     1      20.254 -19.750   1.316 -0.69 -0.00    +0.000 N 
DOCKED: ATOM     32  O   UNL     1      19.026 -20.157   1.712 -0.74 -0.00    +0.000 OA
DOCKED: ATOM     33  O   UNL     1      19.568 -19.576  -0.897 -1.72 -0.00    +0.000 OA
DOCKED: ATOM     34  H   UNL     1      20.989 -19.696   1.970 -0.53 -0.00    +0.000 HD
DOCKED: ENDBRANCH  27  30
DOCKED: ENDBRANCH  22  24
DOCKED: ENDBRANCH  19  21
DOCKED: ENDBRANCH   1  19
DOCKED: TORSDOF 9
DOCKED: TER
DOCKED: ENDMDL
________________________________________________________________________________


	BEGINNING GENETIC ALGORITHM DOCKING 66 of 100
Run: 66 Seed: 1704714513 2028654023 [ Run 66 of 100 GA/GALS ]
Beginning LAMARCKIAN GENETIC ALGORITHM (LGA), with a maximum of 2500000 energy evaluations.

Final-Value: -14.836


	FINAL GENETIC ALGORITHM DOCKED STATE
	_______________________________________________


Detailed state:  trans 26.808 -15.008 -1.688 quatxyzw -0.200249 -0.200506 -0.761993 -0.582293 center 1.436 0.069 -0.007 ntor 9 80.5026 152.9158 -50.9635 153.9415 -177.5285 145.4764 -129.6806 -40.3431 175.6346
State:	 26.808 -15.008  -1.688  -0.246 -0.247 -0.937 -108.776     80.50  152.92  -50.96  153.94 -177.53  145.48 -129.68  -40.34  175.63

DOCKED: MODEL       66
DOCKED: USER    Run = 66
DOCKED: USER    DPF = ligand_dock.biased.dpf
DOCKED: USER  
DOCKED: USER    Estimated Free Energy of Binding    =  -10.05 kcal/mol  [=(1)+(2)+(3)-(4)]
DOCKED: USER    Estimated Inhibition Constant, Ki   =   42.86 nM (nanomolar)  [Temperature = 298.15 K]
DOCKED: USER    
DOCKED: USER    (1) Final Intermolecular Energy     =  -12.74 kcal/mol
DOCKED: USER        vdW + Hbond + desolv Energy     =  -12.74 kcal/mol
DOCKED: USER        Electrostatic Energy            =   +0.00 kcal/mol
DOCKED: USER    (2) Final Total Internal Energy     =   -2.10 kcal/mol
DOCKED: USER    (3) Torsional Free Energy           =   +2.68 kcal/mol
DOCKED: USER    (4) Unbound System's Energy  [=(2)] =   -2.10 kcal/mol
DOCKED: USER    
DOCKED: USER    
DOCKED: USER    NEWDPF move ligand.pdbqt
DOCKED: USER    NEWDPF about 1.436000 0.069000 -0.007000
DOCKED: USER    NEWDPF tran0 26.807662 -15.007556 -1.687992
DOCKED: USER    NEWDPF quaternion0 -0.200249 -0.200506 -0.761993 -0.582293
DOCKED: USER    NEWDPF axisangle0 -0.246316 -0.246631 -0.937284 -108.776094
DOCKED: USER    NEWDPF quat0 -0.246316 -0.246631 -0.937284 -108.776094
DOCKED: USER    NEWDPF dihe0 80.50 152.92 -50.96 153.94 -177.53 145.48 -129.68 -40.34 175.63 
DOCKED: USER  keepresnum = 1 
DOCKED: USER  
DOCKED: REMARK  Name = 
DOCKED: REMARK  11 active torsions:
DOCKED: REMARK  status: ('A' for Active; 'I' for Inactive)
DOCKED: REMARK    1  A    between atoms: C_2  and  O_3
DOCKED: REMARK    2  A    between atoms: O_3  and  C_4
DOCKED: REMARK    3  A    between atoms: C_4  and  C_5
DOCKED: REMARK    4  A    between atoms: C_10  and  C_11
DOCKED: REMARK    5  A    between atoms: C_11  and  N_12
DOCKED: REMARK    6  A    between atoms: N_12  and  C_13
DOCKED: REMARK    7  A    between atoms: N_12  and  C_15
DOCKED: REMARK    8  A    between atoms: C_13  and  C_14
DOCKED: REMARK    9  A    between atoms: C_15  and  C_16
DOCKED: REMARK   10  A    between atoms: N_21  and  C_22
DOCKED: REMARK   11  A    between atoms: C_25  and  C_26
DOCKED: REMARK                            x       y       z     vdW  Elec       q    Type
DOCKED: REMARK                         _______ _______ _______ _____ _____    ______ ____
DOCKED: USER                              x       y       z     vdW  Elec       q    Type
DOCKED: USER                           _______ _______ _______ _____ _____    ______ ____
DOCKED: ROOT
DOCKED: ATOM      1  C   UNL     1      30.521 -16.086  -0.986 -0.14 -0.00    +0.000 C 
DOCKED: ENDROOT
DOCKED: BRANCH   1   2
DOCKED: ATOM      2  C   UNL     1      29.836 -15.128  -1.923 -0.08 -0.00    +0.000 A 
DOCKED: ATOM      3  C   UNL     1      29.413 -13.868  -1.471 -0.06 -0.00    +0.000 A 
DOCKED: ATOM      4  C   UNL     1      28.796 -12.972  -2.349 -0.06 -0.00    +0.000 A 
DOCKED: ATOM      5  C   UNL     1      28.597 -13.324  -3.691 -0.10 -0.00    +0.000 A 
DOCKED: ATOM      6  C   UNL     1      27.983 -12.428  -4.580 -0.14 -0.00    +0.000 A 
DOCKED: ATOM      7  C   UNL     1      27.791 -12.782  -5.925 -0.20 -0.00    +0.000 A 
DOCKED: ATOM      8  C   UNL     1      28.209 -14.044  -6.375 -0.26 -0.00    +0.000 A 
DOCKED: ATOM      9  C   UNL     1      28.821 -14.943  -5.497 -0.31 -0.00    +0.000 A 
DOCKED: ATOM     10  C   UNL     1      29.020 -14.592  -4.154 -0.16 -0.00    +0.000 A 
DOCKED: ATOM     11  C   UNL     1      29.636 -15.486  -3.265 -0.14 -0.00    +0.000 A 
DOCKED: BRANCH   7  12
DOCKED: ATOM     12  C   UNL     1      27.116 -11.820  -6.867 -0.10 -0.00    +0.000 C 
DOCKED: BRANCH  12  13
DOCKED: ATOM     13  N   UNL     1      28.050 -11.367  -7.921 -0.17 -0.00    +0.000 N 
DOCKED: ATOM     14  H   UNL     1      27.606 -10.511  -8.254 +0.00 -0.00    +0.000 HD
DOCKED: BRANCH  13  15
DOCKED: ATOM     15  C   UNL     1      29.370 -10.898  -7.437 -0.08 -0.00    +0.000 C 
DOCKED: ATOM     16  C   UNL     1      30.573 -11.650  -8.028 -0.10 -0.00    +0.000 C 
DOCKED: ENDBRANCH  13  15
DOCKED: BRANCH  13  17
DOCKED: ATOM     17  C   UNL     1      28.094 -12.210  -9.140 -0.30 -0.00    +0.000 C 
DOCKED: ATOM     18  C   UNL     1      26.940 -11.968 -10.117 -0.41 -0.00    +0.000 C 
DOCKED: ENDBRANCH  13  17
DOCKED: ENDBRANCH  12  13
DOCKED: ENDBRANCH   7  12
DOCKED: ENDBRANCH   1   2
DOCKED: BRANCH   1  19
DOCKED: ATOM     19  O   UNL     1      29.668 -16.406   0.112 -0.21 -0.00    +0.000 OA
DOCKED: BRANCH  19  21
DOCKED: ATOM     20  O   UNL     1      27.587 -15.722   0.846 -0.34 -0.00    +0.000 OA
DOCKED: ATOM     21  C   UNL     1      28.272 -16.398   0.029 -0.19 -0.00    +0.000 C 
DOCKED: ATOM     22  N   UNL     1      27.632 -17.132  -1.023 -0.41 -0.00    +0.000 N 
DOCKED: ATOM     23  H   UNL     1      28.193 -17.461  -1.761 -0.03 -0.00    +0.000 HD
DOCKED: BRANCH  22  24
DOCKED: ATOM     24  C   UNL     1      26.224 -17.419  -1.070 -0.51 -0.00    +0.000 A 
DOCKED: ATOM     25  C   UNL     1      25.660 -18.254  -0.096 -0.59 -0.00    +0.000 A 
DOCKED: ATOM     26  C   UNL     1      24.288 -18.528  -0.102 -0.51 -0.00    +0.000 A 
DOCKED: ATOM     27  C   UNL     1      23.451 -17.959  -1.078 -0.70 -0.00    +0.000 A 
DOCKED: ATOM     28  C   UNL     1      24.014 -17.094  -2.033 +0.03 -0.00    +0.000 A 
DOCKED: ATOM     29  C   UNL     1      25.386 -16.825  -2.030 -0.52 -0.00    +0.000 A 
DOCKED: BRANCH  27  30
DOCKED: ATOM     30  C   UNL     1      21.992 -18.228  -1.090 -0.73 -0.00    +0.000 C 
DOCKED: ATOM     31  N   UNL     1      21.468 -19.480  -1.546 -0.66 -0.00    +0.000 N 
DOCKED: ATOM     32  O   UNL     1      20.144 -19.737  -1.451 -2.25 -0.00    +0.000 OA
DOCKED: ATOM     33  O   UNL     1      21.192 -17.332  -0.704 -1.81 -0.00    +0.000 OA
DOCKED: ATOM     34  H   UNL     1      22.074 -20.155  -1.929 -0.49 -0.00    +0.000 HD
DOCKED: ENDBRANCH  27  30
DOCKED: ENDBRANCH  22  24
DOCKED: ENDBRANCH  19  21
DOCKED: ENDBRANCH   1  19
DOCKED: TORSDOF 9
DOCKED: TER
DOCKED: ENDMDL
________________________________________________________________________________


	BEGINNING GENETIC ALGORITHM DOCKING 67 of 100
Run: 67 Seed: 147150113 859138620 [ Run 67 of 100 GA/GALS ]
Beginning LAMARCKIAN GENETIC ALGORITHM (LGA), with a maximum of 2500000 energy evaluations.

Final-Value: -17.202


	FINAL GENETIC ALGORITHM DOCKED STATE
	_______________________________________________


Detailed state:  trans 28.517 -17.062 2.828 quatxyzw 0.224365 -0.821097 0.416734 0.319050 center 1.436 0.069 -0.007 ntor 9 160.4612 70.8377 136.5160 -24.5780 -93.2344 180.0000 -145.6358 30.5634 -153.8225
State:	 28.517 -17.062   2.828   0.237 -0.866  0.440 142.789    160.46   70.84  136.52  -24.58  -93.23  180.00 -145.64   30.56 -153.82

DOCKED: MODEL       67
DOCKED: USER    Run = 67
DOCKED: USER    DPF = ligand_dock.biased.dpf
DOCKED: USER  
DOCKED: USER    Estimated Free Energy of Binding    =  -13.10 kcal/mol  [=(1)+(2)+(3)-(4)]
DOCKED: USER    Estimated Inhibition Constant, Ki   =  249.80 pM (picomolar)  [Temperature = 298.15 K]
DOCKED: USER    
DOCKED: USER    (1) Final Intermolecular Energy     =  -15.78 kcal/mol
DOCKED: USER        vdW + Hbond + desolv Energy     =  -15.78 kcal/mol
DOCKED: USER        Electrostatic Energy            =   +0.00 kcal/mol
DOCKED: USER    (2) Final Total Internal Energy     =   -1.42 kcal/mol
DOCKED: USER    (3) Torsional Free Energy           =   +2.68 kcal/mol
DOCKED: USER    (4) Unbound System's Energy  [=(2)] =   -1.42 kcal/mol
DOCKED: USER    
DOCKED: USER    
DOCKED: USER    NEWDPF move ligand.pdbqt
DOCKED: USER    NEWDPF about 1.436000 0.069000 -0.007000
DOCKED: USER    NEWDPF tran0 28.517358 -17.061621 2.827774
DOCKED: USER    NEWDPF quaternion0 0.224365 -0.821097 0.416734 0.319050
DOCKED: USER    NEWDPF axisangle0 0.236738 -0.866376 0.439714 142.789021
DOCKED: USER    NEWDPF quat0 0.236738 -0.866376 0.439714 142.789021
DOCKED: USER    NEWDPF dihe0 160.46 70.84 136.52 -24.58 -93.23 180.00 -145.64 30.56 -153.82 
DOCKED: USER  keepresnum = 1 
DOCKED: USER  
DOCKED: REMARK  Name = 
DOCKED: REMARK  11 active torsions:
DOCKED: REMARK  status: ('A' for Active; 'I' for Inactive)
DOCKED: REMARK    1  A    between atoms: C_2  and  O_3
DOCKED: REMARK    2  A    between atoms: O_3  and  C_4
DOCKED: REMARK    3  A    between atoms: C_4  and  C_5
DOCKED: REMARK    4  A    between atoms: C_10  and  C_11
DOCKED: REMARK    5  A    between atoms: C_11  and  N_12
DOCKED: REMARK    6  A    between atoms: N_12  and  C_13
DOCKED: REMARK    7  A    between atoms: N_12  and  C_15
DOCKED: REMARK    8  A    between atoms: C_13  and  C_14
DOCKED: REMARK    9  A    between atoms: C_15  and  C_16
DOCKED: REMARK   10  A    between atoms: N_21  and  C_22
DOCKED: REMARK   11  A    between atoms: C_25  and  C_26
DOCKED: REMARK                            x       y       z     vdW  Elec       q    Type
DOCKED: REMARK                         _______ _______ _______ _____ _____    ______ ____
DOCKED: USER                              x       y       z     vdW  Elec       q    Type
DOCKED: USER                           _______ _______ _______ _____ _____    ______ ____
DOCKED: ROOT
DOCKED: ATOM      1  C   UNL     1      28.068 -15.278  -0.645 -0.26 -0.00    +0.000 C 
DOCKED: ENDROOT
DOCKED: BRANCH   1   2
DOCKED: ATOM      2  C   UNL     1      28.713 -14.930   0.669 -0.16 -0.00    +0.000 A 
DOCKED: ATOM      3  C   UNL     1      30.110 -14.852   0.779 -0.12 -0.00    +0.000 A 
DOCKED: ATOM      4  C   UNL     1      30.707 -14.508   1.996 -0.13 -0.00    +0.000 A 
DOCKED: ATOM      5  C   UNL     1      29.912 -14.234   3.118 -0.22 -0.00    +0.000 A 
DOCKED: ATOM      6  C   UNL     1      30.502 -13.883   4.342 -0.24 -0.00    +0.000 A 
DOCKED: ATOM      7  C   UNL     1      29.702 -13.605   5.461 -0.31 -0.00    +0.000 A 
DOCKED: ATOM      8  C   UNL     1      28.305 -13.688   5.353 -0.45 -0.00    +0.000 A 
DOCKED: ATOM      9  C   UNL     1      27.709 -14.037   4.138 -0.50 -0.00    +0.000 A 
DOCKED: ATOM     10  C   UNL     1      28.503 -14.311   3.016 -0.27 -0.00    +0.000 A 
DOCKED: ATOM     11  C   UNL     1      27.914 -14.660   1.791 -0.14 -0.00    +0.000 A 
DOCKED: BRANCH   7  12
DOCKED: ATOM     12  C   UNL     1      30.346 -13.245   6.775 -0.31 -0.00    +0.000 C 
DOCKED: BRANCH  12  13
DOCKED: ATOM     13  N   UNL     1      29.403 -13.436   7.898 -0.40 -0.00    +0.000 N 
DOCKED: ATOM     14  H   UNL     1      28.725 -14.089   7.506 -0.32 -0.00    +0.000 HD
DOCKED: BRANCH  13  15
DOCKED: ATOM     15  C   UNL     1      29.948 -14.174   9.063 -0.42 -0.00    +0.000 C 
DOCKED: ATOM     16  C   UNL     1      28.887 -14.833   9.958 -0.49 -0.00    +0.000 C 
DOCKED: ENDBRANCH  13  15
DOCKED: BRANCH  13  17
DOCKED: ATOM     17  C   UNL     1      28.569 -12.259   8.238 -0.36 -0.00    +0.000 C 
DOCKED: ATOM     18  C   UNL     1      28.869 -11.011   7.404 -0.36 +0.00    +0.000 C 
DOCKED: ENDBRANCH  13  17
DOCKED: ENDBRANCH  12  13
DOCKED: ENDBRANCH   7  12
DOCKED: ENDBRANCH   1   2
DOCKED: BRANCH   1  19
DOCKED: ATOM     19  O   UNL     1      27.891 -16.689  -0.757 -0.39 -0.00    +0.000 OA
DOCKED: BRANCH  19  21
DOCKED: ATOM     20  O   UNL     1      26.657 -18.457   0.072 -0.70 -0.00    +0.000 OA
DOCKED: ATOM     21  C   UNL     1      26.676 -17.334  -0.503 -0.56 -0.00    +0.000 C 
DOCKED: ATOM     22  N   UNL     1      25.452 -16.683  -0.868 -0.51 -0.00    +0.000 N 
DOCKED: ATOM     23  H   UNL     1      25.493 -15.730  -1.109 -0.01 -0.00    +0.000 HD
DOCKED: BRANCH  22  24
DOCKED: ATOM     24  C   UNL     1      24.169 -17.332  -0.905 -0.64 -0.00    +0.000 A 
DOCKED: ATOM     25  C   UNL     1      24.098 -18.697  -1.215 -0.60 -0.00    +0.000 A 
DOCKED: ATOM     26  C   UNL     1      22.866 -19.358  -1.230 -0.60 -0.00    +0.000 A 
DOCKED: ATOM     27  C   UNL     1      21.681 -18.668  -0.923 -0.74 -0.00    +0.000 A 
DOCKED: ATOM     28  C   UNL     1      21.759 -17.307  -0.580 -0.54 -0.00    +0.000 A 
DOCKED: ATOM     29  C   UNL     1      22.990 -16.644  -0.569 -0.08 -0.00    +0.000 A 
DOCKED: BRANCH  27  30
DOCKED: ATOM     30  C   UNL     1      20.367 -19.359  -0.922 -0.90 -0.00    +0.000 C 
DOCKED: ATOM     31  N   UNL     1      19.636 -19.567   0.291 -0.73 -0.00    +0.000 N 
DOCKED: ATOM     32  O   UNL     1      18.396 -20.108   0.252 -0.88 -0.00    +0.000 OA
DOCKED: ATOM     33  O   UNL     1      19.889 -19.786  -2.009 -2.33 -0.00    +0.000 OA
DOCKED: ATOM     34  H   UNL     1      20.035 -19.316   1.155 -0.11 -0.00    +0.000 HD
DOCKED: ENDBRANCH  27  30
DOCKED: ENDBRANCH  22  24
DOCKED: ENDBRANCH  19  21
DOCKED: ENDBRANCH   1  19
DOCKED: TORSDOF 9
DOCKED: TER
DOCKED: ENDMDL
________________________________________________________________________________


	BEGINNING GENETIC ALGORITHM DOCKING 68 of 100
Run: 68 Seed: 239442831 1203523620 [ Run 68 of 100 GA/GALS ]
Beginning LAMARCKIAN GENETIC ALGORITHM (LGA), with a maximum of 2500000 energy evaluations.

Final-Value: -15.792


	FINAL GENETIC ALGORITHM DOCKED STATE
	_______________________________________________


Detailed state:  trans 26.924 -14.215 -2.025 quatxyzw 0.301953 0.249589 0.825566 0.406165 center 1.436 0.069 -0.007 ntor 9 -117.7135 179.4319 157.2611 32.3500 -179.6761 -70.8886 -158.8590 -12.1347 161.5198
State:	 26.924 -14.215  -2.025   0.330  0.273  0.903 132.072   -117.71  179.43  157.26   32.35 -179.68  -70.89 -158.86  -12.13  161.52

DOCKED: MODEL       68
DOCKED: USER    Run = 68
DOCKED: USER    DPF = ligand_dock.biased.dpf
DOCKED: USER  
DOCKED: USER    Estimated Free Energy of Binding    =  -11.24 kcal/mol  [=(1)+(2)+(3)-(4)]
DOCKED: USER    Estimated Inhibition Constant, Ki   =    5.74 nM (nanomolar)  [Temperature = 298.15 K]
DOCKED: USER    
DOCKED: USER    (1) Final Intermolecular Energy     =  -13.93 kcal/mol
DOCKED: USER        vdW + Hbond + desolv Energy     =  -13.93 kcal/mol
DOCKED: USER        Electrostatic Energy            =   +0.00 kcal/mol
DOCKED: USER    (2) Final Total Internal Energy     =   -1.86 kcal/mol
DOCKED: USER    (3) Torsional Free Energy           =   +2.68 kcal/mol
DOCKED: USER    (4) Unbound System's Energy  [=(2)] =   -1.86 kcal/mol
DOCKED: USER    
DOCKED: USER    
DOCKED: USER    NEWDPF move ligand.pdbqt
DOCKED: USER    NEWDPF about 1.436000 0.069000 -0.007000
DOCKED: USER    NEWDPF tran0 26.924156 -14.214858 -2.024546
DOCKED: USER    NEWDPF quaternion0 0.301953 0.249589 0.825566 0.406165
DOCKED: USER    NEWDPF axisangle0 0.330436 0.273133 0.903444 132.071645
DOCKED: USER    NEWDPF quat0 0.330436 0.273133 0.903444 132.071645
DOCKED: USER    NEWDPF dihe0 -117.71 179.43 157.26 32.35 -179.68 -70.89 -158.86 -12.13 161.52 
DOCKED: USER  keepresnum = 1 
DOCKED: USER  
DOCKED: REMARK  Name = 
DOCKED: REMARK  11 active torsions:
DOCKED: REMARK  status: ('A' for Active; 'I' for Inactive)
DOCKED: REMARK    1  A    between atoms: C_2  and  O_3
DOCKED: REMARK    2  A    between atoms: O_3  and  C_4
DOCKED: REMARK    3  A    between atoms: C_4  and  C_5
DOCKED: REMARK    4  A    between atoms: C_10  and  C_11
DOCKED: REMARK    5  A    between atoms: C_11  and  N_12
DOCKED: REMARK    6  A    between atoms: N_12  and  C_13
DOCKED: REMARK    7  A    between atoms: N_12  and  C_15
DOCKED: REMARK    8  A    between atoms: C_13  and  C_14
DOCKED: REMARK    9  A    between atoms: C_15  and  C_16
DOCKED: REMARK   10  A    between atoms: N_21  and  C_22
DOCKED: REMARK   11  A    between atoms: C_25  and  C_26
DOCKED: REMARK                            x       y       z     vdW  Elec       q    Type
DOCKED: REMARK                         _______ _______ _______ _____ _____    ______ ____
DOCKED: USER                              x       y       z     vdW  Elec       q    Type
DOCKED: USER                           _______ _______ _______ _____ _____    ______ ____
DOCKED: ROOT
DOCKED: ATOM      1  C   UNL     1      30.042 -16.347  -0.936 -0.18 -0.00    +0.000 C 
DOCKED: ENDROOT
DOCKED: BRANCH   1   2
DOCKED: ATOM      2  C   UNL     1      29.699 -15.454  -2.098 -0.11 -0.00    +0.000 A 
DOCKED: ATOM      3  C   UNL     1      29.483 -14.081  -1.904 -0.06 -0.00    +0.000 A 
DOCKED: ATOM      4  C   UNL     1      29.186 -13.250  -2.987 -0.06 -0.00    +0.000 A 
DOCKED: ATOM      5  C   UNL     1      29.104 -13.782  -4.282 -0.11 -0.00    +0.000 A 
DOCKED: ATOM      6  C   UNL     1      28.812 -12.954  -5.377 -0.14 -0.00    +0.000 A 
DOCKED: ATOM      7  C   UNL     1      28.737 -13.489  -6.672 -0.27 -0.00    +0.000 A 
DOCKED: ATOM      8  C   UNL     1      28.948 -14.863  -6.866 -0.22 -0.00    +0.000 A 
DOCKED: ATOM      9  C   UNL     1      29.240 -15.695  -5.782 -0.33 -0.00    +0.000 A 
DOCKED: ATOM     10  C   UNL     1      29.321 -15.164  -4.487 -0.20 -0.00    +0.000 A 
DOCKED: ATOM     11  C   UNL     1      29.616 -15.991  -3.393 -0.18 -0.00    +0.000 A 
DOCKED: BRANCH   7  12
DOCKED: ATOM     12  C   UNL     1      28.406 -12.594  -7.838 -0.25 -0.00    +0.000 C 
DOCKED: BRANCH  12  13
DOCKED: ATOM     13  N   UNL     1      29.564 -12.459  -8.748 -0.18 -0.00    +0.000 N 
DOCKED: ATOM     14  H   UNL     1      29.538 -13.336  -9.269 -0.58 -0.00    +0.000 HD
DOCKED: BRANCH  13  15
DOCKED: ATOM     15  C   UNL     1      29.419 -11.432  -9.807 -0.18 -0.00    +0.000 C 
DOCKED: ATOM     16  C   UNL     1      28.504 -11.839 -10.973 -0.32 -0.00    +0.000 C 
DOCKED: ENDBRANCH  13  15
DOCKED: BRANCH  13  17
DOCKED: ATOM     17  C   UNL     1      30.896 -12.503  -8.097 -0.14 -0.00    +0.000 C 
DOCKED: ATOM     18  C   UNL     1      31.664 -13.808  -8.318 -0.15 -0.00    +0.000 C 
DOCKED: ENDBRANCH  13  17
DOCKED: ENDBRANCH  12  13
DOCKED: ENDBRANCH   7  12
DOCKED: ENDBRANCH   1   2
DOCKED: BRANCH   1  19
DOCKED: ATOM     19  O   UNL     1      29.181 -16.078   0.169 -0.22 -0.00    +0.000 OA
DOCKED: BRANCH  19  21
DOCKED: ATOM     20  O   UNL     1      27.066 -15.492   0.892 -0.24 -0.00    +0.000 OA
DOCKED: ATOM     21  C   UNL     1      27.786 -16.154   0.094 -0.30 -0.00    +0.000 C 
DOCKED: ATOM     22  N   UNL     1      27.185 -16.958  -0.929 -0.43 -0.00    +0.000 N 
DOCKED: ATOM     23  H   UNL     1      27.762 -17.279  -1.659 -0.03 -0.00    +0.000 HD
DOCKED: BRANCH  22  24
DOCKED: ATOM     24  C   UNL     1      25.796 -17.327  -0.958 -0.55 -0.00    +0.000 A 
DOCKED: ATOM     25  C   UNL     1      24.845 -16.394  -1.392 -0.51 -0.00    +0.000 A 
DOCKED: ATOM     26  C   UNL     1      23.491 -16.737  -1.457 -0.18 -0.00    +0.000 A 
DOCKED: ATOM     27  C   UNL     1      23.063 -18.027  -1.099 -0.70 -0.00    +0.000 A 
DOCKED: ATOM     28  C   UNL     1      24.023 -18.972  -0.696 -0.60 -0.00    +0.000 A 
DOCKED: ATOM     29  C   UNL     1      25.376 -18.628  -0.627 -0.50 -0.00    +0.000 A 
DOCKED: BRANCH  27  30
DOCKED: ATOM     30  C   UNL     1      21.631 -18.410  -1.175 -0.59 -0.00    +0.000 C 
DOCKED: ATOM     31  N   UNL     1      21.220 -19.638  -1.784 -0.59 -0.00    +0.000 N 
DOCKED: ATOM     32  O   UNL     1      19.920 -20.011  -1.750 -2.14 -0.00    +0.000 OA
DOCKED: ATOM     33  O   UNL     1      20.755 -17.633  -0.706 -2.16 +0.00    +0.000 OA
DOCKED: ATOM     34  H   UNL     1      21.884 -20.213  -2.230 -0.55 -0.00    +0.000 HD
DOCKED: ENDBRANCH  27  30
DOCKED: ENDBRANCH  22  24
DOCKED: ENDBRANCH  19  21
DOCKED: ENDBRANCH   1  19
DOCKED: TORSDOF 9
DOCKED: TER
DOCKED: ENDMDL
________________________________________________________________________________


	BEGINNING GENETIC ALGORITHM DOCKING 69 of 100
Run: 69 Seed: 1127067597 1682876152 [ Run 69 of 100 GA/GALS ]
Beginning LAMARCKIAN GENETIC ALGORITHM (LGA), with a maximum of 2500000 energy evaluations.

Final-Value: -16.449


	FINAL GENETIC ALGORITHM DOCKED STATE
	_______________________________________________


Detailed state:  trans 27.808 -16.000 2.928 quatxyzw -0.129432 -0.706043 0.525113 0.457173 center 1.436 0.069 -0.007 ntor 9 163.3972 -3.4694 -90.4732 -62.2657 71.4313 136.2831 -15.8579 5.3015 -162.5576
State:	 27.808 -16.000   2.928  -0.146 -0.794  0.590 125.590    163.40   -3.47  -90.47  -62.27   71.43  136.28  -15.86    5.30 -162.56

DOCKED: MODEL       69
DOCKED: USER    Run = 69
DOCKED: USER    DPF = ligand_dock.biased.dpf
DOCKED: USER  
DOCKED: USER    Estimated Free Energy of Binding    =  -12.30 kcal/mol  [=(1)+(2)+(3)-(4)]
DOCKED: USER    Estimated Inhibition Constant, Ki   =  970.11 pM (picomolar)  [Temperature = 298.15 K]
DOCKED: USER    
DOCKED: USER    (1) Final Intermolecular Energy     =  -14.98 kcal/mol
DOCKED: USER        vdW + Hbond + desolv Energy     =  -14.98 kcal/mol
DOCKED: USER        Electrostatic Energy            =   +0.00 kcal/mol
DOCKED: USER    (2) Final Total Internal Energy     =   -1.47 kcal/mol
DOCKED: USER    (3) Torsional Free Energy           =   +2.68 kcal/mol
DOCKED: USER    (4) Unbound System's Energy  [=(2)] =   -1.47 kcal/mol
DOCKED: USER    
DOCKED: USER    
DOCKED: USER    NEWDPF move ligand.pdbqt
DOCKED: USER    NEWDPF about 1.436000 0.069000 -0.007000
DOCKED: USER    NEWDPF tran0 27.808029 -16.000439 2.927613
DOCKED: USER    NEWDPF quaternion0 -0.129432 -0.706043 0.525113 0.457173
DOCKED: USER    NEWDPF axisangle0 -0.145531 -0.793861 0.590428 125.590367
DOCKED: USER    NEWDPF quat0 -0.145531 -0.793861 0.590428 125.590367
DOCKED: USER    NEWDPF dihe0 163.40 -3.47 -90.47 -62.27 71.43 136.28 -15.86 5.30 -162.56 
DOCKED: USER  keepresnum = 1 
DOCKED: USER  
DOCKED: REMARK  Name = 
DOCKED: REMARK  11 active torsions:
DOCKED: REMARK  status: ('A' for Active; 'I' for Inactive)
DOCKED: REMARK    1  A    between atoms: C_2  and  O_3
DOCKED: REMARK    2  A    between atoms: O_3  and  C_4
DOCKED: REMARK    3  A    between atoms: C_4  and  C_5
DOCKED: REMARK    4  A    between atoms: C_10  and  C_11
DOCKED: REMARK    5  A    between atoms: C_11  and  N_12
DOCKED: REMARK    6  A    between atoms: N_12  and  C_13
DOCKED: REMARK    7  A    between atoms: N_12  and  C_15
DOCKED: REMARK    8  A    between atoms: C_13  and  C_14
DOCKED: REMARK    9  A    between atoms: C_15  and  C_16
DOCKED: REMARK   10  A    between atoms: N_21  and  C_22
DOCKED: REMARK   11  A    between atoms: C_25  and  C_26
DOCKED: REMARK                            x       y       z     vdW  Elec       q    Type
DOCKED: REMARK                         _______ _______ _______ _____ _____    ______ ____
DOCKED: USER                              x       y       z     vdW  Elec       q    Type
DOCKED: USER                           _______ _______ _______ _____ _____    ______ ____
DOCKED: ROOT
DOCKED: ATOM      1  C   UNL     1      30.344 -14.721   0.211 -0.11 -0.00    +0.000 C 
DOCKED: ENDROOT
DOCKED: BRANCH   1   2
DOCKED: ATOM      2  C   UNL     1      30.153 -14.514   1.690 -0.12 -0.00    +0.000 A 
DOCKED: ATOM      3  C   UNL     1      30.955 -15.200   2.615 -0.10 -0.00    +0.000 A 
DOCKED: ATOM      4  C   UNL     1      30.791 -14.991   3.987 -0.22 -0.00    +0.000 A 
DOCKED: ATOM      5  C   UNL     1      29.823 -14.089   4.452 -0.32 -0.00    +0.000 A 
DOCKED: ATOM      6  C   UNL     1      29.655 -13.869   5.828 -0.24 -0.00    +0.000 A 
DOCKED: ATOM      7  C   UNL     1      28.689 -12.961   6.288 -0.38 -0.00    +0.000 A 
DOCKED: ATOM      8  C   UNL     1      27.883 -12.279   5.363 -0.37 +0.00    +0.000 A 
DOCKED: ATOM      9  C   UNL     1      28.043 -12.492   3.991 -0.30 -0.00    +0.000 A 
DOCKED: ATOM     10  C   UNL     1      29.011 -13.394   3.526 -0.24 -0.00    +0.000 A 
DOCKED: ATOM     11  C   UNL     1      29.182 -13.612   2.151 -0.16 -0.00    +0.000 A 
DOCKED: BRANCH   7  12
DOCKED: ATOM     12  C   UNL     1      28.505 -12.744   7.768 -0.33 -0.00    +0.000 C 
DOCKED: BRANCH  12  13
DOCKED: ATOM     13  N   UNL     1      29.500 -13.515   8.545 -0.39 -0.00    +0.000 N 
DOCKED: ATOM     14  H   UNL     1      29.841 -14.187   7.857 -0.33 -0.00    +0.000 HD
DOCKED: BRANCH  13  15
DOCKED: ATOM     15  C   UNL     1      30.722 -12.767   8.925 -0.25 -0.00    +0.000 C 
DOCKED: ATOM     16  C   UNL     1      31.962 -13.644   9.162 -0.23 -0.00    +0.000 C 
DOCKED: ENDBRANCH  13  15
DOCKED: BRANCH  13  17
DOCKED: ATOM     17  C   UNL     1      28.943 -14.386   9.608 -0.51 -0.00    +0.000 C 
DOCKED: ATOM     18  C   UNL     1      28.512 -13.640  10.873 -0.53 -0.00    +0.000 C 
DOCKED: ENDBRANCH  13  17
DOCKED: ENDBRANCH  12  13
DOCKED: ENDBRANCH   7  12
DOCKED: ENDBRANCH   1   2
DOCKED: BRANCH   1  19
DOCKED: ATOM     19  O   UNL     1      29.672 -15.904  -0.218 -0.21 -0.00    +0.000 OA
DOCKED: BRANCH  19  21
DOCKED: ATOM     20  O   UNL     1      27.536 -15.091   0.118 -0.31 -0.00    +0.000 OA
DOCKED: ATOM     21  C   UNL     1      28.283 -15.992  -0.355 -0.29 -0.00    +0.000 C 
DOCKED: ATOM     22  N   UNL     1      27.722 -17.097  -1.075 -0.40 -0.00    +0.000 N 
DOCKED: ATOM     23  H   UNL     1      28.332 -17.654  -1.610 -0.04 -0.00    +0.000 HD
DOCKED: BRANCH  22  24
DOCKED: ATOM     24  C   UNL     1      26.327 -17.445  -1.066 -0.50 -0.00    +0.000 A 
DOCKED: ATOM     25  C   UNL     1      25.778 -18.057   0.068 -0.56 -0.00    +0.000 A 
DOCKED: ATOM     26  C   UNL     1      24.418 -18.381   0.113 -0.46 -0.00    +0.000 A 
DOCKED: ATOM     27  C   UNL     1      23.577 -18.085  -0.974 -0.71 -0.00    +0.000 A 
DOCKED: ATOM     28  C   UNL     1      24.123 -17.440  -2.097 -0.16 -0.00    +0.000 A 
DOCKED: ATOM     29  C   UNL     1      25.484 -17.121  -2.144 -0.47 -0.00    +0.000 A 
DOCKED: BRANCH  27  30
DOCKED: ATOM     30  C   UNL     1      22.129 -18.410  -0.936 -0.81 -0.00    +0.000 C 
DOCKED: ATOM     31  N   UNL     1      21.558 -19.375  -1.825 -0.60 -0.00    +0.000 N 
DOCKED: ATOM     32  O   UNL     1      20.258 -19.727  -1.701 -2.32 -0.00    +0.000 OA
DOCKED: ATOM     33  O   UNL     1      21.381 -17.813  -0.114 -1.46 -0.00    +0.000 OA
DOCKED: ATOM     34  H   UNL     1      22.113 -19.786  -2.527 -0.55 -0.00    +0.000 HD
DOCKED: ENDBRANCH  27  30
DOCKED: ENDBRANCH  22  24
DOCKED: ENDBRANCH  19  21
DOCKED: ENDBRANCH   1  19
DOCKED: TORSDOF 9
DOCKED: TER
DOCKED: ENDMDL
________________________________________________________________________________


	BEGINNING GENETIC ALGORITHM DOCKING 70 of 100
Run: 70 Seed: 90010652 320172441 [ Run 70 of 100 GA/GALS ]
Beginning LAMARCKIAN GENETIC ALGORITHM (LGA), with a maximum of 2500000 energy evaluations.

Final-Value: -14.276


	FINAL GENETIC ALGORITHM DOCKED STATE
	_______________________________________________


Detailed state:  trans 26.455 -15.499 -2.523 quatxyzw 0.138788 -0.081075 -0.656970 -0.736584 center 1.436 0.069 -0.007 ntor 9 171.4985 -5.3046 -160.8391 -73.5058 -159.6442 -45.2626 -81.8060 -88.8849 -147.3900
State:	 26.455 -15.499  -2.523   0.205 -0.120 -0.971 -85.118    171.50   -5.30 -160.84  -73.51 -159.64  -45.26  -81.81  -88.88 -147.39

DOCKED: MODEL       70
DOCKED: USER    Run = 70
DOCKED: USER    DPF = ligand_dock.biased.dpf
DOCKED: USER  
DOCKED: USER    Estimated Free Energy of Binding    =   -9.62 kcal/mol  [=(1)+(2)+(3)-(4)]
DOCKED: USER    Estimated Inhibition Constant, Ki   =   88.43 nM (nanomolar)  [Temperature = 298.15 K]
DOCKED: USER    
DOCKED: USER    (1) Final Intermolecular Energy     =  -12.31 kcal/mol
DOCKED: USER        vdW + Hbond + desolv Energy     =  -12.31 kcal/mol
DOCKED: USER        Electrostatic Energy            =   +0.00 kcal/mol
DOCKED: USER    (2) Final Total Internal Energy     =   -1.97 kcal/mol
DOCKED: USER    (3) Torsional Free Energy           =   +2.68 kcal/mol
DOCKED: USER    (4) Unbound System's Energy  [=(2)] =   -1.97 kcal/mol
DOCKED: USER    
DOCKED: USER    
DOCKED: USER    NEWDPF move ligand.pdbqt
DOCKED: USER    NEWDPF about 1.436000 0.069000 -0.007000
DOCKED: USER    NEWDPF tran0 26.454901 -15.498594 -2.523069
DOCKED: USER    NEWDPF quaternion0 0.138788 -0.081075 -0.656970 -0.736584
DOCKED: USER    NEWDPF axisangle0 0.205202 -0.119872 -0.971351 -85.117586
DOCKED: USER    NEWDPF quat0 0.205202 -0.119872 -0.971351 -85.117586
DOCKED: USER    NEWDPF dihe0 171.50 -5.30 -160.84 -73.51 -159.64 -45.26 -81.81 -88.88 -147.39 
DOCKED: USER  keepresnum = 1 
DOCKED: USER  
DOCKED: REMARK  Name = 
DOCKED: REMARK  11 active torsions:
DOCKED: REMARK  status: ('A' for Active; 'I' for Inactive)
DOCKED: REMARK    1  A    between atoms: C_2  and  O_3
DOCKED: REMARK    2  A    between atoms: O_3  and  C_4
DOCKED: REMARK    3  A    between atoms: C_4  and  C_5
DOCKED: REMARK    4  A    between atoms: C_10  and  C_11
DOCKED: REMARK    5  A    between atoms: C_11  and  N_12
DOCKED: REMARK    6  A    between atoms: N_12  and  C_13
DOCKED: REMARK    7  A    between atoms: N_12  and  C_15
DOCKED: REMARK    8  A    between atoms: C_13  and  C_14
DOCKED: REMARK    9  A    between atoms: C_15  and  C_16
DOCKED: REMARK   10  A    between atoms: N_21  and  C_22
DOCKED: REMARK   11  A    between atoms: C_25  and  C_26
DOCKED: REMARK                            x       y       z     vdW  Elec       q    Type
DOCKED: REMARK                         _______ _______ _______ _____ _____    ______ ____
DOCKED: USER                              x       y       z     vdW  Elec       q    Type
DOCKED: USER                           _______ _______ _______ _____ _____    ______ ____
DOCKED: ROOT
DOCKED: ATOM      1  C   UNL     1      30.107 -15.489  -1.070 -0.12 -0.00    +0.000 C 
DOCKED: ENDROOT
DOCKED: BRANCH   1   2
DOCKED: ATOM      2  C   UNL     1      29.156 -14.451  -1.603 -0.09 -0.00    +0.000 A 
DOCKED: ATOM      3  C   UNL     1      28.677 -13.429  -0.769 -0.08 -0.00    +0.000 A 
DOCKED: ATOM      4  C   UNL     1      27.811 -12.453  -1.271 -0.11 -0.00    +0.000 A 
DOCKED: ATOM      5  C   UNL     1      27.416 -12.486  -2.616 -0.13 -0.00    +0.000 A 
DOCKED: ATOM      6  C   UNL     1      26.551 -11.507  -3.130 +0.10 -0.00    +0.000 A 
DOCKED: ATOM      7  C   UNL     1      26.162 -11.541  -4.478 -0.26 -0.00    +0.000 A 
DOCKED: ATOM      8  C   UNL     1      26.637 -12.567  -5.310 -0.14 -0.00    +0.000 A 
DOCKED: ATOM      9  C   UNL     1      27.498 -13.546  -4.807 -0.25 -0.00    +0.000 A 
DOCKED: ATOM     10  C   UNL     1      27.894 -13.514  -3.463 -0.15 -0.00    +0.000 A 
DOCKED: ATOM     11  C   UNL     1      28.761 -14.490  -2.949 -0.12 -0.00    +0.000 A 
DOCKED: BRANCH   7  12
DOCKED: ATOM     12  C   UNL     1      25.220 -10.495  -5.016 -0.36 -0.00    +0.000 C 
DOCKED: BRANCH  12  13
DOCKED: ATOM     13  N   UNL     1      25.717  -9.941  -6.294 -0.20 -0.00    +0.000 N 
DOCKED: ATOM     14  H   UNL     1      26.726 -10.060  -6.206 +0.00 -0.00    +0.000 HD
DOCKED: BRANCH  13  15
DOCKED: ATOM     15  C   UNL     1      25.384 -10.736  -7.499 -0.26 -0.00    +0.000 C 
DOCKED: ATOM     16  C   UNL     1      26.451 -10.699  -8.606 -0.25 -0.00    +0.000 C 
DOCKED: ENDBRANCH  13  15
DOCKED: BRANCH  13  17
DOCKED: ATOM     17  C   UNL     1      25.571  -8.474  -6.452 -0.13 -0.00    +0.000 C 
DOCKED: ATOM     18  C   UNL     1      24.160  -8.017  -6.832 -0.25 -0.00    +0.000 C 
DOCKED: ENDBRANCH  13  17
DOCKED: ENDBRANCH  12  13
DOCKED: ENDBRANCH   7  12
DOCKED: ENDBRANCH   1   2
DOCKED: BRANCH   1  19
DOCKED: ATOM     19  O   UNL     1      29.397 -16.668  -0.692 -0.26 -0.00    +0.000 OA
DOCKED: BRANCH  19  21
DOCKED: ATOM     20  O   UNL     1      27.582 -16.267   0.680 -0.31 -0.00    +0.000 OA
DOCKED: ATOM     21  C   UNL     1      28.024 -16.687  -0.426 -0.36 -0.00    +0.000 C 
DOCKED: ATOM     22  N   UNL     1      27.123 -17.149  -1.440 -0.42 -0.00    +0.000 N 
DOCKED: ATOM     23  H   UNL     1      27.476 -17.259  -2.352 -0.03 -0.00    +0.000 HD
DOCKED: BRANCH  22  24
DOCKED: ATOM     24  C   UNL     1      25.739 -17.463  -1.212 -0.54 -0.00    +0.000 A 
DOCKED: ATOM     25  C   UNL     1      24.751 -16.565  -1.637 -0.54 -0.00    +0.000 A 
DOCKED: ATOM     26  C   UNL     1      23.396 -16.859  -1.452 -0.19 -0.00    +0.000 A 
DOCKED: ATOM     27  C   UNL     1      23.003 -18.066  -0.849 -0.72 -0.00    +0.000 A 
DOCKED: ATOM     28  C   UNL     1      23.995 -18.981  -0.455 -0.45 -0.00    +0.000 A 
DOCKED: ATOM     29  C   UNL     1      25.350 -18.685  -0.635 -0.44 -0.00    +0.000 A 
DOCKED: BRANCH  27  30
DOCKED: ATOM     30  C   UNL     1      21.569 -18.399  -0.659 -0.84 -0.00    +0.000 C 
DOCKED: ATOM     31  N   UNL     1      21.161 -19.672  -0.148 -0.71 -0.00    +0.000 N 
DOCKED: ATOM     32  O   UNL     1      19.856 -19.913   0.112 -1.06 -0.00    +0.000 OA
DOCKED: ATOM     33  O   UNL     1      20.689 -17.550  -0.967 -2.11 -0.00    +0.000 OA
DOCKED: ATOM     34  H   UNL     1      21.832 -20.375   0.016 -0.54 -0.00    +0.000 HD
DOCKED: ENDBRANCH  27  30
DOCKED: ENDBRANCH  22  24
DOCKED: ENDBRANCH  19  21
DOCKED: ENDBRANCH   1  19
DOCKED: TORSDOF 9
DOCKED: TER
DOCKED: ENDMDL
________________________________________________________________________________


	BEGINNING GENETIC ALGORITHM DOCKING 71 of 100
Run: 71 Seed: 103519759 1592807543 [ Run 71 of 100 GA/GALS ]
Beginning LAMARCKIAN GENETIC ALGORITHM (LGA), with a maximum of 2500000 energy evaluations.

Final-Value: -16.022


	FINAL GENETIC ALGORITHM DOCKED STATE
	_______________________________________________


Detailed state:  trans 27.910 -16.563 -4.913 quatxyzw -0.311770 -0.644970 -0.659831 -0.226795 center 1.436 0.069 -0.007 ntor 9 64.4030 55.8167 160.4056 -76.1906 178.9306 -169.1873 -111.8968 -8.5837 -179.9192
State:	 27.910 -16.563  -4.913  -0.320 -0.662 -0.677 -153.783     64.40   55.82  160.41  -76.19  178.93 -169.19 -111.90   -8.58 -179.92

DOCKED: MODEL       71
DOCKED: USER    Run = 71
DOCKED: USER    DPF = ligand_dock.biased.dpf
DOCKED: USER  
DOCKED: USER    Estimated Free Energy of Binding    =  -11.78 kcal/mol  [=(1)+(2)+(3)-(4)]
DOCKED: USER    Estimated Inhibition Constant, Ki   =    2.31 nM (nanomolar)  [Temperature = 298.15 K]
DOCKED: USER    
DOCKED: USER    (1) Final Intermolecular Energy     =  -14.47 kcal/mol
DOCKED: USER        vdW + Hbond + desolv Energy     =  -14.47 kcal/mol
DOCKED: USER        Electrostatic Energy            =   +0.00 kcal/mol
DOCKED: USER    (2) Final Total Internal Energy     =   -1.56 kcal/mol
DOCKED: USER    (3) Torsional Free Energy           =   +2.68 kcal/mol
DOCKED: USER    (4) Unbound System's Energy  [=(2)] =   -1.56 kcal/mol
DOCKED: USER    
DOCKED: USER    
DOCKED: USER    NEWDPF move ligand.pdbqt
DOCKED: USER    NEWDPF about 1.436000 0.069000 -0.007000
DOCKED: USER    NEWDPF tran0 27.909532 -16.562669 -4.912804
DOCKED: USER    NEWDPF quaternion0 -0.311770 -0.644970 -0.659831 -0.226795
DOCKED: USER    NEWDPF axisangle0 -0.320112 -0.662226 -0.677485 -153.783097
DOCKED: USER    NEWDPF quat0 -0.320112 -0.662226 -0.677485 -153.783097
DOCKED: USER    NEWDPF dihe0 64.40 55.82 160.41 -76.19 178.93 -169.19 -111.90 -8.58 -179.92 
DOCKED: USER  keepresnum = 1 
DOCKED: USER  
DOCKED: REMARK  Name = 
DOCKED: REMARK  11 active torsions:
DOCKED: REMARK  status: ('A' for Active; 'I' for Inactive)
DOCKED: REMARK    1  A    between atoms: C_2  and  O_3
DOCKED: REMARK    2  A    between atoms: O_3  and  C_4
DOCKED: REMARK    3  A    between atoms: C_4  and  C_5
DOCKED: REMARK    4  A    between atoms: C_10  and  C_11
DOCKED: REMARK    5  A    between atoms: C_11  and  N_12
DOCKED: REMARK    6  A    between atoms: N_12  and  C_13
DOCKED: REMARK    7  A    between atoms: N_12  and  C_15
DOCKED: REMARK    8  A    between atoms: C_13  and  C_14
DOCKED: REMARK    9  A    between atoms: C_15  and  C_16
DOCKED: REMARK   10  A    between atoms: N_21  and  C_22
DOCKED: REMARK   11  A    between atoms: C_25  and  C_26
DOCKED: REMARK                            x       y       z     vdW  Elec       q    Type
DOCKED: REMARK                         _______ _______ _______ _____ _____    ______ ____
DOCKED: USER                              x       y       z     vdW  Elec       q    Type
DOCKED: USER                           _______ _______ _______ _____ _____    ______ ____
DOCKED: ROOT
DOCKED: ATOM      1  C   UNL     1      30.435 -16.508  -1.901 -0.15 -0.00    +0.000 C 
DOCKED: ENDROOT
DOCKED: BRANCH   1   2
DOCKED: ATOM      2  C   UNL     1      30.503 -16.877  -3.359 -0.16 -0.00    +0.000 A 
DOCKED: ATOM      3  C   UNL     1      30.713 -15.891  -4.335 -0.12 -0.00    +0.000 A 
DOCKED: ATOM      4  C   UNL     1      30.797 -16.239  -5.686 -0.20 -0.00    +0.000 A 
DOCKED: ATOM      5  C   UNL     1      30.677 -17.580  -6.078 -0.29 -0.00    +0.000 A 
DOCKED: ATOM      6  C   UNL     1      30.766 -17.939  -7.432 -0.31 -0.00    +0.000 A 
DOCKED: ATOM      7  C   UNL     1      30.650 -19.282  -7.819 -0.34 -0.00    +0.000 A 
DOCKED: ATOM      8  C   UNL     1      30.435 -20.268  -6.843 -0.41 -0.00    +0.000 A 
DOCKED: ATOM      9  C   UNL     1      30.345 -19.920  -5.493 -0.35 -0.00    +0.000 A 
DOCKED: ATOM     10  C   UNL     1      30.465 -18.580  -5.100 -0.29 -0.00    +0.000 A 
DOCKED: ATOM     11  C   UNL     1      30.379 -18.220  -3.747 -0.05 -0.00    +0.000 A 
DOCKED: BRANCH   7  12
DOCKED: ATOM     12  C   UNL     1      30.731 -19.655  -9.277 -0.39 -0.00    +0.000 C 
DOCKED: BRANCH  12  13
DOCKED: ATOM     13  N   UNL     1      31.970 -20.409  -9.564 -0.18 -0.00    +0.000 N 
DOCKED: ATOM     14  H   UNL     1      32.622 -20.030  -8.877 +0.00 -0.00    +0.000 HD
DOCKED: BRANCH  13  15
DOCKED: ATOM     15  C   UNL     1      31.924 -21.852  -9.227 -0.19 -0.00    +0.000 C 
DOCKED: ATOM     16  C   UNL     1      31.822 -22.791 -10.440 -0.17 -0.00    +0.000 C 
DOCKED: ENDBRANCH  13  15
DOCKED: BRANCH  13  17
DOCKED: ATOM     17  C   UNL     1      32.628 -20.089 -10.853 -0.15 -0.00    +0.000 C 
DOCKED: ATOM     18  C   UNL     1      31.728 -19.365 -11.858 -0.26 -0.00    +0.000 C 
DOCKED: ENDBRANCH  13  17
DOCKED: ENDBRANCH  12  13
DOCKED: ENDBRANCH   7  12
DOCKED: ENDBRANCH   1   2
DOCKED: BRANCH   1  19
DOCKED: ATOM     19  O   UNL     1      29.305 -15.673  -1.651 -0.16 -0.00    +0.000 OA
DOCKED: BRANCH  19  21
DOCKED: ATOM     20  O   UNL     1      27.337 -15.572  -2.856 -0.32 -0.00    +0.000 OA
DOCKED: ATOM     21  C   UNL     1      27.986 -16.070  -1.895 -0.31 -0.00    +0.000 C 
DOCKED: ATOM     22  N   UNL     1      27.397 -17.080  -1.066 -0.42 -0.00    +0.000 N 
DOCKED: ATOM     23  H   UNL     1      27.993 -17.596  -0.477 -0.15 -0.00    +0.000 HD
DOCKED: BRANCH  22  24
DOCKED: ATOM     24  C   UNL     1      25.993 -17.389  -1.039 -0.53 -0.00    +0.000 A 
DOCKED: ATOM     25  C   UNL     1      25.073 -16.445  -1.512 -0.53 -0.00    +0.000 A 
DOCKED: ATOM     26  C   UNL     1      23.703 -16.731  -1.523 -0.25 -0.00    +0.000 A 
DOCKED: ATOM     27  C   UNL     1      23.230 -17.974  -1.070 -0.70 -0.00    +0.000 A 
DOCKED: ATOM     28  C   UNL     1      24.159 -18.933  -0.628 -0.53 -0.00    +0.000 A 
DOCKED: ATOM     29  C   UNL     1      25.527 -18.645  -0.613 -0.46 -0.00    +0.000 A 
DOCKED: BRANCH  27  30
DOCKED: ATOM     30  C   UNL     1      21.782 -18.298  -1.088 -0.73 -0.00    +0.000 C 
DOCKED: ATOM     31  N   UNL     1      21.308 -19.569  -1.543 -0.66 -0.00    +0.000 N 
DOCKED: ATOM     32  O   UNL     1      19.993 -19.876  -1.454 -2.19 -0.00    +0.000 OA
DOCKED: ATOM     33  O   UNL     1      20.948 -17.432  -0.708 -2.03 +0.00    +0.000 OA
DOCKED: ATOM     34  H   UNL     1      21.940 -20.223  -1.923 -0.48 -0.00    +0.000 HD
DOCKED: ENDBRANCH  27  30
DOCKED: ENDBRANCH  22  24
DOCKED: ENDBRANCH  19  21
DOCKED: ENDBRANCH   1  19
DOCKED: TORSDOF 9
DOCKED: TER
DOCKED: ENDMDL
________________________________________________________________________________


	BEGINNING GENETIC ALGORITHM DOCKING 72 of 100
Run: 72 Seed: 1413597713 1225212352 [ Run 72 of 100 GA/GALS ]
Beginning LAMARCKIAN GENETIC ALGORITHM (LGA), with a maximum of 2500000 energy evaluations.

Final-Value: -14.736


	FINAL GENETIC ALGORITHM DOCKED STATE
	_______________________________________________


Detailed state:  trans 25.332 -14.333 -1.269 quatxyzw -0.388596 0.059024 -0.781821 -0.484010 center 1.436 0.069 -0.007 ntor 9 125.1517 -172.7711 76.6475 -176.7931 -166.9828 130.0894 -168.5635 -8.0794 12.1454
State:	 25.332 -14.333  -1.269  -0.444  0.067 -0.893 -122.105    125.15 -172.77   76.65 -176.79 -166.98  130.09 -168.56   -8.08   12.15

DOCKED: MODEL       72
DOCKED: USER    Run = 72
DOCKED: USER    DPF = ligand_dock.biased.dpf
DOCKED: USER  
DOCKED: USER    Estimated Free Energy of Binding    =  -10.51 kcal/mol  [=(1)+(2)+(3)-(4)]
DOCKED: USER    Estimated Inhibition Constant, Ki   =   19.76 nM (nanomolar)  [Temperature = 298.15 K]
DOCKED: USER    
DOCKED: USER    (1) Final Intermolecular Energy     =  -13.20 kcal/mol
DOCKED: USER        vdW + Hbond + desolv Energy     =  -13.20 kcal/mol
DOCKED: USER        Electrostatic Energy            =   +0.00 kcal/mol
DOCKED: USER    (2) Final Total Internal Energy     =   -1.54 kcal/mol
DOCKED: USER    (3) Torsional Free Energy           =   +2.68 kcal/mol
DOCKED: USER    (4) Unbound System's Energy  [=(2)] =   -1.54 kcal/mol
DOCKED: USER    
DOCKED: USER    
DOCKED: USER    NEWDPF move ligand.pdbqt
DOCKED: USER    NEWDPF about 1.436000 0.069000 -0.007000
DOCKED: USER    NEWDPF tran0 25.331669 -14.332822 -1.269357
DOCKED: USER    NEWDPF quaternion0 -0.388596 0.059024 -0.781821 -0.484010
DOCKED: USER    NEWDPF axisangle0 -0.444078 0.067451 -0.893446 -122.104723
DOCKED: USER    NEWDPF quat0 -0.444078 0.067451 -0.893446 -122.104723
DOCKED: USER    NEWDPF dihe0 125.15 -172.77 76.65 -176.79 -166.98 130.09 -168.56 -8.08 12.15 
DOCKED: USER  keepresnum = 1 
DOCKED: USER  
DOCKED: REMARK  Name = 
DOCKED: REMARK  11 active torsions:
DOCKED: REMARK  status: ('A' for Active; 'I' for Inactive)
DOCKED: REMARK    1  A    between atoms: C_2  and  O_3
DOCKED: REMARK    2  A    between atoms: O_3  and  C_4
DOCKED: REMARK    3  A    between atoms: C_4  and  C_5
DOCKED: REMARK    4  A    between atoms: C_10  and  C_11
DOCKED: REMARK    5  A    between atoms: C_11  and  N_12
DOCKED: REMARK    6  A    between atoms: N_12  and  C_13
DOCKED: REMARK    7  A    between atoms: N_12  and  C_15
DOCKED: REMARK    8  A    between atoms: C_13  and  C_14
DOCKED: REMARK    9  A    between atoms: C_15  and  C_16
DOCKED: REMARK   10  A    between atoms: N_21  and  C_22
DOCKED: REMARK   11  A    between atoms: C_25  and  C_26
DOCKED: REMARK                            x       y       z     vdW  Elec       q    Type
DOCKED: REMARK                         _______ _______ _______ _____ _____    ______ ____
DOCKED: USER                              x       y       z     vdW  Elec       q    Type
DOCKED: USER                           _______ _______ _______ _____ _____    ______ ____
DOCKED: ROOT
DOCKED: ATOM      1  C   UNL     1      28.210 -16.585  -2.715 -0.22 -0.00    +0.000 C 
DOCKED: ENDROOT
DOCKED: BRANCH   1   2
DOCKED: ATOM      2  C   UNL     1      27.569 -15.278  -3.098 -0.27 -0.00    +0.000 A 
DOCKED: ATOM      3  C   UNL     1      26.386 -15.259  -3.855 -0.48 -0.00    +0.000 A 
DOCKED: ATOM      4  C   UNL     1      25.780 -14.045  -4.191 -0.43 -0.00    +0.000 A 
DOCKED: ATOM      5  C   UNL     1      26.348 -12.833  -3.771 -0.26 -0.00    +0.000 A 
DOCKED: ATOM      6  C   UNL     1      25.744 -11.610  -4.100 -0.12 -0.00    +0.000 A 
DOCKED: ATOM      7  C   UNL     1      26.313 -10.401  -3.673 -0.16 -0.00    +0.000 A 
DOCKED: ATOM      8  C   UNL     1      27.498 -10.420  -2.922 -0.09 -0.00    +0.000 A 
DOCKED: ATOM      9  C   UNL     1      28.107 -11.633  -2.590 -0.07 -0.00    +0.000 A 
DOCKED: ATOM     10  C   UNL     1      27.540 -12.844  -3.009 -0.14 -0.00    +0.000 A 
DOCKED: ATOM     11  C   UNL     1      28.142 -14.068  -2.679 -0.14 -0.00    +0.000 A 
DOCKED: BRANCH   7  12
DOCKED: ATOM     12  C   UNL     1      25.664  -9.092  -4.046 -0.23 -0.00    +0.000 C 
DOCKED: BRANCH  12  13
DOCKED: ATOM     13  N   UNL     1      25.389  -8.276  -2.843 -0.20 -0.00    +0.000 N 
DOCKED: ATOM     14  H   UNL     1      24.415  -8.004  -2.981 -0.53 -0.00    +0.000 HD
DOCKED: BRANCH  13  15
DOCKED: ATOM     15  C   UNL     1      25.354  -9.025  -1.565 -0.09 -0.00    +0.000 C 
DOCKED: ATOM     16  C   UNL     1      25.381  -8.145  -0.305 -0.29 +0.00    +0.000 C 
DOCKED: ENDBRANCH  13  15
DOCKED: BRANCH  13  17
DOCKED: ATOM     17  C   UNL     1      26.090  -6.970  -2.784 -0.11 -0.00    +0.000 C 
DOCKED: ATOM     18  C   UNL     1      25.165  -5.754  -2.863 -0.11 -0.00    +0.000 C 
DOCKED: ENDBRANCH  13  17
DOCKED: ENDBRANCH  12  13
DOCKED: ENDBRANCH   7  12
DOCKED: ENDBRANCH   1   2
DOCKED: BRANCH   1  19
DOCKED: ATOM     19  O   UNL     1      27.950 -16.886  -1.345 -0.39 -0.00    +0.000 OA
DOCKED: BRANCH  19  21
DOCKED: ATOM     20  O   UNL     1      26.467 -17.046   0.419 -0.44 -0.00    +0.000 OA
DOCKED: ATOM     21  C   UNL     1      26.662 -17.062  -0.828 -0.53 -0.00    +0.000 C 
DOCKED: ATOM     22  N   UNL     1      25.562 -17.217  -1.734 -0.55 -0.00    +0.000 N 
DOCKED: ATOM     23  H   UNL     1      25.715 -17.008  -2.683 -0.03 -0.00    +0.000 HD
DOCKED: BRANCH  22  24
DOCKED: ATOM     24  C   UNL     1      24.250 -17.660  -1.346 -0.65 -0.00    +0.000 A 
DOCKED: ATOM     25  C   UNL     1      24.010 -19.029  -1.172 -0.52 -0.00    +0.000 A 
DOCKED: ATOM     26  C   UNL     1      22.750 -19.485  -0.769 -0.52 -0.00    +0.000 A 
DOCKED: ATOM     27  C   UNL     1      21.709 -18.575  -0.519 -0.76 -0.00    +0.000 A 
DOCKED: ATOM     28  C   UNL     1      21.962 -17.199  -0.661 -0.58 -0.00    +0.000 A 
DOCKED: ATOM     29  C   UNL     1      23.219 -16.744  -1.069 -0.33 -0.00    +0.000 A 
DOCKED: BRANCH  27  30
DOCKED: ATOM     30  C   UNL     1      20.371 -19.041  -0.077 -0.65 -0.00    +0.000 C 
DOCKED: ATOM     31  N   UNL     1      20.220 -19.915   1.047 -0.69 -0.00    +0.000 N 
DOCKED: ATOM     32  O   UNL     1      18.985 -20.243   1.491 -0.75 -0.00    +0.000 OA
DOCKED: ATOM     33  O   UNL     1      19.344 -18.672  -0.711 -1.32 -0.00    +0.000 OA
DOCKED: ATOM     34  H   UNL     1      21.016 -20.279   1.498 -0.54 -0.00    +0.000 HD
DOCKED: ENDBRANCH  27  30
DOCKED: ENDBRANCH  22  24
DOCKED: ENDBRANCH  19  21
DOCKED: ENDBRANCH   1  19
DOCKED: TORSDOF 9
DOCKED: TER
DOCKED: ENDMDL
________________________________________________________________________________


	BEGINNING GENETIC ALGORITHM DOCKING 73 of 100
Run: 73 Seed: 1501431016 839485514 [ Run 73 of 100 GA/GALS ]
Beginning LAMARCKIAN GENETIC ALGORITHM (LGA), with a maximum of 2500000 energy evaluations.

Final-Value: -15.030


	FINAL GENETIC ALGORITHM DOCKED STATE
	_______________________________________________


Detailed state:  trans 29.014 -12.476 0.135 quatxyzw -0.678868 -0.156012 0.701191 0.152082 center 1.436 0.069 -0.007 ntor 9 179.9519 127.3894 122.0503 -59.9742 144.4803 154.1762 -126.1982 -172.6421 122.8083
State:	 29.014 -12.476   0.135  -0.687 -0.158  0.709 162.505    179.95  127.39  122.05  -59.97  144.48  154.18 -126.20 -172.64  122.81

DOCKED: MODEL       73
DOCKED: USER    Run = 73
DOCKED: USER    DPF = ligand_dock.biased.dpf
DOCKED: USER  
DOCKED: USER    Estimated Free Energy of Binding    =  -10.68 kcal/mol  [=(1)+(2)+(3)-(4)]
DOCKED: USER    Estimated Inhibition Constant, Ki   =   14.93 nM (nanomolar)  [Temperature = 298.15 K]
DOCKED: USER    
DOCKED: USER    (1) Final Intermolecular Energy     =  -13.36 kcal/mol
DOCKED: USER        vdW + Hbond + desolv Energy     =  -13.36 kcal/mol
DOCKED: USER        Electrostatic Energy            =   +0.00 kcal/mol
DOCKED: USER    (2) Final Total Internal Energy     =   -1.67 kcal/mol
DOCKED: USER    (3) Torsional Free Energy           =   +2.68 kcal/mol
DOCKED: USER    (4) Unbound System's Energy  [=(2)] =   -1.67 kcal/mol
DOCKED: USER    
DOCKED: USER    
DOCKED: USER    NEWDPF move ligand.pdbqt
DOCKED: USER    NEWDPF about 1.436000 0.069000 -0.007000
DOCKED: USER    NEWDPF tran0 29.013749 -12.475617 0.135215
DOCKED: USER    NEWDPF quaternion0 -0.678868 -0.156012 0.701191 0.152082
DOCKED: USER    NEWDPF axisangle0 -0.686858 -0.157848 0.709444 162.504803
DOCKED: USER    NEWDPF quat0 -0.686858 -0.157848 0.709444 162.504803
DOCKED: USER    NEWDPF dihe0 179.95 127.39 122.05 -59.97 144.48 154.18 -126.20 -172.64 122.81 
DOCKED: USER  keepresnum = 1 
DOCKED: USER  
DOCKED: REMARK  Name = 
DOCKED: REMARK  11 active torsions:
DOCKED: REMARK  status: ('A' for Active; 'I' for Inactive)
DOCKED: REMARK    1  A    between atoms: C_2  and  O_3
DOCKED: REMARK    2  A    between atoms: O_3  and  C_4
DOCKED: REMARK    3  A    between atoms: C_4  and  C_5
DOCKED: REMARK    4  A    between atoms: C_10  and  C_11
DOCKED: REMARK    5  A    between atoms: C_11  and  N_12
DOCKED: REMARK    6  A    between atoms: N_12  and  C_13
DOCKED: REMARK    7  A    between atoms: N_12  and  C_15
DOCKED: REMARK    8  A    between atoms: C_13  and  C_14
DOCKED: REMARK    9  A    between atoms: C_15  and  C_16
DOCKED: REMARK   10  A    between atoms: N_21  and  C_22
DOCKED: REMARK   11  A    between atoms: C_25  and  C_26
DOCKED: REMARK                            x       y       z     vdW  Elec       q    Type
DOCKED: REMARK                         _______ _______ _______ _____ _____    ______ ____
DOCKED: USER                              x       y       z     vdW  Elec       q    Type
DOCKED: USER                           _______ _______ _______ _____ _____    ______ ____
DOCKED: ROOT
DOCKED: ATOM      1  C   UNL     1      30.414 -16.127  -0.256 -0.16 -0.00    +0.000 C 
DOCKED: ENDROOT
DOCKED: BRANCH   1   2
DOCKED: ATOM      2  C   UNL     1      30.330 -15.119   0.858 -0.10 -0.00    +0.000 A 
DOCKED: ATOM      3  C   UNL     1      29.318 -14.146   0.865 -0.13 -0.00    +0.000 A 
DOCKED: ATOM      4  C   UNL     1      29.229 -13.224   1.911 -0.13 -0.00    +0.000 A 
DOCKED: ATOM      5  C   UNL     1      30.150 -13.265   2.968 -0.12 -0.00    +0.000 A 
DOCKED: ATOM      6  C   UNL     1      30.065 -12.346   4.025 -0.11 -0.00    +0.000 A 
DOCKED: ATOM      7  C   UNL     1      30.986 -12.394   5.083 -0.12 -0.00    +0.000 A 
DOCKED: ATOM      8  C   UNL     1      32.001 -13.363   5.074 -0.12 -0.00    +0.000 A 
DOCKED: ATOM      9  C   UNL     1      32.094 -14.282   4.025 -0.08 -0.00    +0.000 A 
DOCKED: ATOM     10  C   UNL     1      31.173 -14.242   2.969 -0.16 -0.00    +0.000 A 
DOCKED: ATOM     11  C   UNL     1      31.256 -15.162   1.912 -0.13 -0.00    +0.000 A 
DOCKED: BRANCH   7  12
DOCKED: ATOM     12  C   UNL     1      30.896 -11.392   6.205 -0.11 -0.00    +0.000 C 
DOCKED: BRANCH  12  13
DOCKED: ATOM     13  N   UNL     1      29.798 -11.735   7.135 -0.23 -0.00    +0.000 N 
DOCKED: ATOM     14  H   UNL     1      29.268 -12.425   6.603 -0.00 -0.00    +0.000 HD
DOCKED: BRANCH  13  15
DOCKED: ATOM     15  C   UNL     1      30.207 -12.483   8.348 -0.29 -0.00    +0.000 C 
DOCKED: ATOM     16  C   UNL     1      29.263 -13.631   8.742 -0.45 -0.00    +0.000 C 
DOCKED: ENDBRANCH  13  15
DOCKED: BRANCH  13  17
DOCKED: ATOM     17  C   UNL     1      28.801 -10.663   7.368 -0.31 +0.00    +0.000 C 
DOCKED: ATOM     18  C   UNL     1      28.175 -10.095   6.092 -0.29 +0.00    +0.000 C 
DOCKED: ENDBRANCH  13  17
DOCKED: ENDBRANCH  12  13
DOCKED: ENDBRANCH   7  12
DOCKED: ENDBRANCH   1   2
DOCKED: BRANCH   1  19
DOCKED: ATOM     19  O   UNL     1      29.473 -15.816  -1.282 -0.16 -0.00    +0.000 OA
DOCKED: BRANCH  19  21
DOCKED: ATOM     20  O   UNL     1      28.013 -17.068  -2.563 -0.30 -0.00    +0.000 OA
DOCKED: ATOM     21  C   UNL     1      28.271 -16.510  -1.460 -0.33 -0.00    +0.000 C 
DOCKED: ATOM     22  N   UNL     1      27.357 -16.613  -0.361 -0.39 -0.00    +0.000 N 
DOCKED: ATOM     23  H   UNL     1      27.682 -16.361   0.532 -0.20 -0.00    +0.000 HD
DOCKED: BRANCH  22  24
DOCKED: ATOM     24  C   UNL     1      25.996 -17.062  -0.479 -0.50 -0.00    +0.000 A 
DOCKED: ATOM     25  C   UNL     1      25.128 -16.402  -1.359 -0.52 -0.00    +0.000 A 
DOCKED: ATOM     26  C   UNL     1      23.807 -16.835  -1.514 -0.38 -0.00    +0.000 A 
DOCKED: ATOM     27  C   UNL     1      23.333 -17.948  -0.799 -0.71 -0.00    +0.000 A 
DOCKED: ATOM     28  C   UNL     1      24.215 -18.630   0.057 -0.35 -0.00    +0.000 A 
DOCKED: ATOM     29  C   UNL     1      25.534 -18.194   0.216 -0.50 -0.00    +0.000 A 
DOCKED: BRANCH  27  30
DOCKED: ATOM     30  C   UNL     1      21.939 -18.429  -0.962 -0.80 -0.00    +0.000 C 
DOCKED: ATOM     31  N   UNL     1      21.623 -19.518  -1.835 -0.44 -0.00    +0.000 N 
DOCKED: ATOM     32  O   UNL     1      20.361 -20.003  -1.889 -2.24 -0.00    +0.000 OA
DOCKED: ATOM     33  O   UNL     1      21.007 -17.858  -0.331 -1.93 +0.00    +0.000 OA
DOCKED: ATOM     34  H   UNL     1      22.326 -19.917  -2.398 -0.55 -0.00    +0.000 HD
DOCKED: ENDBRANCH  27  30
DOCKED: ENDBRANCH  22  24
DOCKED: ENDBRANCH  19  21
DOCKED: ENDBRANCH   1  19
DOCKED: TORSDOF 9
DOCKED: TER
DOCKED: ENDMDL
________________________________________________________________________________


	BEGINNING GENETIC ALGORITHM DOCKING 74 of 100
Run: 74 Seed: 1783536817 838926613 [ Run 74 of 100 GA/GALS ]
Beginning LAMARCKIAN GENETIC ALGORITHM (LGA), with a maximum of 2500000 energy evaluations.

Final-Value: -15.974


	FINAL GENETIC ALGORITHM DOCKED STATE
	_______________________________________________


Detailed state:  trans 26.754 -16.081 -5.430 quatxyzw 0.128988 0.693372 0.664418 0.247278 center 1.436 0.069 -0.007 ntor 9 -164.1328 52.4517 -74.9686 -127.2278 138.8202 145.9376 -112.8101 12.3816 169.0073
State:	 26.754 -16.081  -5.430   0.133  0.716  0.686 151.367   -164.13   52.45  -74.97 -127.23  138.82  145.94 -112.81   12.38  169.01

DOCKED: MODEL       74
DOCKED: USER    Run = 74
DOCKED: USER    DPF = ligand_dock.biased.dpf
DOCKED: USER  
DOCKED: USER    Estimated Free Energy of Binding    =  -11.63 kcal/mol  [=(1)+(2)+(3)-(4)]
DOCKED: USER    Estimated Inhibition Constant, Ki   =    3.00 nM (nanomolar)  [Temperature = 298.15 K]
DOCKED: USER    
DOCKED: USER    (1) Final Intermolecular Energy     =  -14.31 kcal/mol
DOCKED: USER        vdW + Hbond + desolv Energy     =  -14.31 kcal/mol
DOCKED: USER        Electrostatic Energy            =   +0.00 kcal/mol
DOCKED: USER    (2) Final Total Internal Energy     =   -1.66 kcal/mol
DOCKED: USER    (3) Torsional Free Energy           =   +2.68 kcal/mol
DOCKED: USER    (4) Unbound System's Energy  [=(2)] =   -1.66 kcal/mol
DOCKED: USER    
DOCKED: USER    
DOCKED: USER    NEWDPF move ligand.pdbqt
DOCKED: USER    NEWDPF about 1.436000 0.069000 -0.007000
DOCKED: USER    NEWDPF tran0 26.754185 -16.080757 -5.430463
DOCKED: USER    NEWDPF quaternion0 0.128988 0.693372 0.664418 0.247278
DOCKED: USER    NEWDPF axisangle0 0.133122 0.715595 0.685713 151.366983
DOCKED: USER    NEWDPF quat0 0.133122 0.715595 0.685713 151.366983
DOCKED: USER    NEWDPF dihe0 -164.13 52.45 -74.97 -127.23 138.82 145.94 -112.81 12.38 169.01 
DOCKED: USER  keepresnum = 1 
DOCKED: USER  
DOCKED: REMARK  Name = 
DOCKED: REMARK  11 active torsions:
DOCKED: REMARK  status: ('A' for Active; 'I' for Inactive)
DOCKED: REMARK    1  A    between atoms: C_2  and  O_3
DOCKED: REMARK    2  A    between atoms: O_3  and  C_4
DOCKED: REMARK    3  A    between atoms: C_4  and  C_5
DOCKED: REMARK    4  A    between atoms: C_10  and  C_11
DOCKED: REMARK    5  A    between atoms: C_11  and  N_12
DOCKED: REMARK    6  A    between atoms: N_12  and  C_13
DOCKED: REMARK    7  A    between atoms: N_12  and  C_15
DOCKED: REMARK    8  A    between atoms: C_13  and  C_14
DOCKED: REMARK    9  A    between atoms: C_15  and  C_16
DOCKED: REMARK   10  A    between atoms: N_21  and  C_22
DOCKED: REMARK   11  A    between atoms: C_25  and  C_26
DOCKED: REMARK                            x       y       z     vdW  Elec       q    Type
DOCKED: REMARK                         _______ _______ _______ _____ _____    ______ ____
DOCKED: USER                              x       y       z     vdW  Elec       q    Type
DOCKED: USER                           _______ _______ _______ _____ _____    ______ ____
DOCKED: ROOT
DOCKED: ATOM      1  C   UNL     1      28.392 -15.535  -1.900 -0.23 -0.00    +0.000 C 
DOCKED: ENDROOT
DOCKED: BRANCH   1   2
DOCKED: ATOM      2  C   UNL     1      28.898 -15.764  -3.298 -0.21 -0.00    +0.000 A 
DOCKED: ATOM      3  C   UNL     1      28.815 -14.748  -4.262 -0.20 -0.00    +0.000 A 
DOCKED: ATOM      4  C   UNL     1      29.305 -14.955  -5.555 -0.27 -0.00    +0.000 A 
DOCKED: ATOM      5  C   UNL     1      29.887 -16.183  -5.899 -0.30 -0.00    +0.000 A 
DOCKED: ATOM      6  C   UNL     1      30.386 -16.399  -7.193 -0.25 -0.00    +0.000 A 
DOCKED: ATOM      7  C   UNL     1      30.974 -17.627  -7.532 -0.30 -0.00    +0.000 A 
DOCKED: ATOM      8  C   UNL     1      31.052 -18.646  -6.569 -0.30 -0.00    +0.000 A 
DOCKED: ATOM      9  C   UNL     1      30.557 -18.441  -5.279 -0.29 -0.00    +0.000 A 
DOCKED: ATOM     10  C   UNL     1      29.975 -17.214  -4.934 -0.27 -0.00    +0.000 A 
DOCKED: ATOM     11  C   UNL     1      29.478 -16.996  -3.639 -0.17 -0.00    +0.000 A 
DOCKED: BRANCH   7  12
DOCKED: ATOM     12  C   UNL     1      31.492 -17.854  -8.929 -0.31 -0.00    +0.000 C 
DOCKED: BRANCH  12  13
DOCKED: ATOM     13  N   UNL     1      32.716 -17.063  -9.175 -0.18 -0.00    +0.000 N 
DOCKED: ATOM     14  H   UNL     1      32.340 -16.141  -9.399 -0.02 -0.00    +0.000 HD
DOCKED: BRANCH  13  15
DOCKED: ATOM     15  C   UNL     1      33.554 -16.806  -7.980 -0.07 -0.00    +0.000 C 
DOCKED: ATOM     16  C   UNL     1      33.798 -15.318  -7.676 -0.05 -0.00    +0.000 C 
DOCKED: ENDBRANCH  13  15
DOCKED: BRANCH  13  17
DOCKED: ATOM     17  C   UNL     1      33.469 -17.418 -10.402 -0.15 -0.00    +0.000 C 
DOCKED: ATOM     18  C   UNL     1      33.177 -18.823 -10.937 -0.14 -0.00    +0.000 C 
DOCKED: ENDBRANCH  13  17
DOCKED: ENDBRANCH  12  13
DOCKED: ENDBRANCH   7  12
DOCKED: ENDBRANCH   1   2
DOCKED: BRANCH   1  19
DOCKED: ATOM     19  O   UNL     1      27.043 -15.071  -1.927 -0.29 -0.00    +0.000 OA
DOCKED: BRANCH  19  21
DOCKED: ATOM     20  O   UNL     1      25.275 -15.920  -3.148 -0.59 -0.00    +0.000 OA
DOCKED: ATOM     21  C   UNL     1      25.941 -15.921  -2.075 -0.51 -0.00    +0.000 C 
DOCKED: ATOM     22  N   UNL     1      25.605 -16.820  -1.012 -0.52 -0.00    +0.000 N 
DOCKED: ATOM     23  H   UNL     1      26.266 -16.949  -0.293 -0.02 -0.00    +0.000 HD
DOCKED: BRANCH  22  24
DOCKED: ATOM     24  C   UNL     1      24.368 -17.547  -0.925 -0.65 -0.00    +0.000 A 
DOCKED: ATOM     25  C   UNL     1      23.167 -16.843  -0.766 -0.45 -0.00    +0.000 A 
DOCKED: ATOM     26  C   UNL     1      21.946 -17.523  -0.707 -0.65 -0.00    +0.000 A 
DOCKED: ATOM     27  C   UNL     1      21.904 -18.924  -0.820 -0.75 -0.00    +0.000 A 
DOCKED: ATOM     28  C   UNL     1      23.106 -19.625  -1.015 -0.38 -0.00    +0.000 A 
DOCKED: ATOM     29  C   UNL     1      24.327 -18.945  -1.069 -0.46 -0.00    +0.000 A 
DOCKED: BRANCH  27  30
DOCKED: ATOM     30  C   UNL     1      20.616 -19.659  -0.773 -0.86 -0.00    +0.000 C 
DOCKED: ATOM     31  N   UNL     1      20.166 -20.301   0.425 -0.71 -0.00    +0.000 N 
DOCKED: ATOM     32  O   UNL     1      18.943 -20.877   0.469 -0.89 -0.00    +0.000 OA
DOCKED: ATOM     33  O   UNL     1      19.906 -19.735  -1.814 -2.40 -0.00    +0.000 OA
DOCKED: ATOM     34  H   UNL     1      20.748 -20.322   1.219 -0.48 -0.00    +0.000 HD
DOCKED: ENDBRANCH  27  30
DOCKED: ENDBRANCH  22  24
DOCKED: ENDBRANCH  19  21
DOCKED: ENDBRANCH   1  19
DOCKED: TORSDOF 9
DOCKED: TER
DOCKED: ENDMDL
________________________________________________________________________________


	BEGINNING GENETIC ALGORITHM DOCKING 75 of 100
Run: 75 Seed: 698411557 2032275267 [ Run 75 of 100 GA/GALS ]
Beginning LAMARCKIAN GENETIC ALGORITHM (LGA), with a maximum of 2500000 energy evaluations.

Final-Value: -16.649


	FINAL GENETIC ALGORITHM DOCKED STATE
	_______________________________________________


Detailed state:  trans 28.070 -16.608 1.742 quatxyzw -0.004209 -0.718741 0.482022 0.501048 center 1.436 0.069 -0.007 ntor 9 -169.0581 55.3515 148.8475 -81.0410 150.3475 -178.0031 76.8489 17.2409 -166.0271
State:	 28.070 -16.608   1.742  -0.005 -0.831  0.557 119.861   -169.06   55.35  148.85  -81.04  150.35 -178.00   76.85   17.24 -166.03

DOCKED: MODEL       75
DOCKED: USER    Run = 75
DOCKED: USER    DPF = ligand_dock.biased.dpf
DOCKED: USER  
DOCKED: USER    Estimated Free Energy of Binding    =  -12.22 kcal/mol  [=(1)+(2)+(3)-(4)]
DOCKED: USER    Estimated Inhibition Constant, Ki   =    1.10 nM (nanomolar)  [Temperature = 298.15 K]
DOCKED: USER    
DOCKED: USER    (1) Final Intermolecular Energy     =  -14.91 kcal/mol
DOCKED: USER        vdW + Hbond + desolv Energy     =  -14.91 kcal/mol
DOCKED: USER        Electrostatic Energy            =   +0.00 kcal/mol
DOCKED: USER    (2) Final Total Internal Energy     =   -1.74 kcal/mol
DOCKED: USER    (3) Torsional Free Energy           =   +2.68 kcal/mol
DOCKED: USER    (4) Unbound System's Energy  [=(2)] =   -1.74 kcal/mol
DOCKED: USER    
DOCKED: USER    
DOCKED: USER    NEWDPF move ligand.pdbqt
DOCKED: USER    NEWDPF about 1.436000 0.069000 -0.007000
DOCKED: USER    NEWDPF tran0 28.070016 -16.607740 1.741679
DOCKED: USER    NEWDPF quaternion0 -0.004209 -0.718741 0.482022 0.501048
DOCKED: USER    NEWDPF axisangle0 -0.004863 -0.830511 0.556981 119.861268
DOCKED: USER    NEWDPF quat0 -0.004863 -0.830511 0.556981 119.861268
DOCKED: USER    NEWDPF dihe0 -169.06 55.35 148.85 -81.04 150.35 -178.00 76.85 17.24 -166.03 
DOCKED: USER  keepresnum = 1 
DOCKED: USER  
DOCKED: REMARK  Name = 
DOCKED: REMARK  11 active torsions:
DOCKED: REMARK  status: ('A' for Active; 'I' for Inactive)
DOCKED: REMARK    1  A    between atoms: C_2  and  O_3
DOCKED: REMARK    2  A    between atoms: O_3  and  C_4
DOCKED: REMARK    3  A    between atoms: C_4  and  C_5
DOCKED: REMARK    4  A    between atoms: C_10  and  C_11
DOCKED: REMARK    5  A    between atoms: C_11  and  N_12
DOCKED: REMARK    6  A    between atoms: N_12  and  C_13
DOCKED: REMARK    7  A    between atoms: N_12  and  C_15
DOCKED: REMARK    8  A    between atoms: C_13  and  C_14
DOCKED: REMARK    9  A    between atoms: C_15  and  C_16
DOCKED: REMARK   10  A    between atoms: N_21  and  C_22
DOCKED: REMARK   11  A    between atoms: C_25  and  C_26
DOCKED: REMARK                            x       y       z     vdW  Elec       q    Type
DOCKED: REMARK                         _______ _______ _______ _____ _____    ______ ____
DOCKED: USER                              x       y       z     vdW  Elec       q    Type
DOCKED: USER                           _______ _______ _______ _____ _____    ______ ____
DOCKED: ROOT
DOCKED: ATOM      1  C   UNL     1      30.002 -14.877  -1.211 -0.09 -0.00    +0.000 C 
DOCKED: ENDROOT
DOCKED: BRANCH   1   2
DOCKED: ATOM      2  C   UNL     1      29.856 -14.638   0.268 -0.11 -0.00    +0.000 A 
DOCKED: ATOM      3  C   UNL     1      30.833 -15.098   1.164 -0.11 -0.00    +0.000 A 
DOCKED: ATOM      4  C   UNL     1      30.706 -14.857   2.535 -0.14 -0.00    +0.000 A 
DOCKED: ATOM      5  C   UNL     1      29.601 -14.149   3.027 -0.22 -0.00    +0.000 A 
DOCKED: ATOM      6  C   UNL     1      29.468 -13.898   4.402 -0.32 -0.00    +0.000 A 
DOCKED: ATOM      7  C   UNL     1      28.363 -13.184   4.889 -0.40 -0.00    +0.000 A 
DOCKED: ATOM      8  C   UNL     1      27.383 -12.728   3.993 -0.25 -0.00    +0.000 A 
DOCKED: ATOM      9  C   UNL     1      27.507 -12.974   2.623 -0.28 -0.00    +0.000 A 
DOCKED: ATOM     10  C   UNL     1      28.611 -13.682   2.130 -0.21 -0.00    +0.000 A 
DOCKED: ATOM     11  C   UNL     1      28.746 -13.931   0.756 -0.15 -0.00    +0.000 A 
DOCKED: BRANCH   7  12
DOCKED: ATOM     12  C   UNL     1      28.221 -12.933   6.368 -0.38 -0.00    +0.000 C 
DOCKED: BRANCH  12  13
DOCKED: ATOM     13  N   UNL     1      29.020 -11.761   6.786 -0.32 -0.00    +0.000 N 
DOCKED: ATOM     14  H   UNL     1      29.839 -11.827   6.182 +0.01 -0.00    +0.000 HD
DOCKED: BRANCH  13  15
DOCKED: ATOM     15  C   UNL     1      28.441 -10.443   6.431 -0.32 +0.00    +0.000 C 
DOCKED: ATOM     16  C   UNL     1      29.394  -9.511   5.665 -0.18 +0.00    +0.000 C 
DOCKED: ENDBRANCH  13  15
DOCKED: BRANCH  13  17
DOCKED: ATOM     17  C   UNL     1      29.607 -11.841   8.146 -0.33 -0.00    +0.000 C 
DOCKED: ATOM     18  C   UNL     1      28.958 -12.890   9.052 -0.45 -0.00    +0.000 C 
DOCKED: ENDBRANCH  13  17
DOCKED: ENDBRANCH  12  13
DOCKED: ENDBRANCH   7  12
DOCKED: ENDBRANCH   1   2
DOCKED: BRANCH   1  19
DOCKED: ATOM     19  O   UNL     1      29.642 -16.218  -1.538 -0.18 -0.00    +0.000 OA
DOCKED: BRANCH  19  21
DOCKED: ATOM     20  O   UNL     1      27.814 -16.416  -2.937 -0.33 -0.00    +0.000 OA
DOCKED: ATOM     21  C   UNL     1      28.328 -16.619  -1.802 -0.32 -0.00    +0.000 C 
DOCKED: ATOM     22  N   UNL     1      27.588 -17.300  -0.780 -0.43 -0.00    +0.000 N 
DOCKED: ATOM     23  H   UNL     1      28.084 -17.632   0.002 -0.38 -0.00    +0.000 HD
DOCKED: BRANCH  22  24
DOCKED: ATOM     24  C   UNL     1      26.169 -17.529  -0.824 -0.54 -0.00    +0.000 A 
DOCKED: ATOM     25  C   UNL     1      25.348 -16.629  -1.515 -0.53 -0.00    +0.000 A 
DOCKED: ATOM     26  C   UNL     1      23.969 -16.843  -1.597 -0.41 -0.00    +0.000 A 
DOCKED: ATOM     27  C   UNL     1      23.385 -17.972  -0.996 -0.71 -0.00    +0.000 A 
DOCKED: ATOM     28  C   UNL     1      24.215 -18.892  -0.332 -0.35 -0.00    +0.000 A 
DOCKED: ATOM     29  C   UNL     1      25.594 -18.675  -0.247 -0.42 -0.00    +0.000 A 
DOCKED: BRANCH  27  30
DOCKED: ATOM     30  C   UNL     1      21.925 -18.221  -1.086 -0.73 -0.00    +0.000 C 
DOCKED: ATOM     31  N   UNL     1      21.409 -19.449  -1.609 -0.67 -0.00    +0.000 N 
DOCKED: ATOM     32  O   UNL     1      20.078 -19.692  -1.585 -2.26 -0.00    +0.000 OA
DOCKED: ATOM     33  O   UNL     1      21.118 -17.328  -0.706 -1.87 -0.00    +0.000 OA
DOCKED: ATOM     34  H   UNL     1      22.023 -20.120  -1.988 -0.52 -0.00    +0.000 HD
DOCKED: ENDBRANCH  27  30
DOCKED: ENDBRANCH  22  24
DOCKED: ENDBRANCH  19  21
DOCKED: ENDBRANCH   1  19
DOCKED: TORSDOF 9
DOCKED: TER
DOCKED: ENDMDL
________________________________________________________________________________


	BEGINNING GENETIC ALGORITHM DOCKING 76 of 100
Run: 76 Seed: 518738060 243313634 [ Run 76 of 100 GA/GALS ]
Beginning LAMARCKIAN GENETIC ALGORITHM (LGA), with a maximum of 2500000 energy evaluations.

Final-Value: -15.812


	FINAL GENETIC ALGORITHM DOCKED STATE
	_______________________________________________


Detailed state:  trans 26.108 -15.299 -2.640 quatxyzw 0.119746 0.159699 0.666065 0.718690 center 1.436 0.069 -0.007 ntor 9 177.2689 20.9201 143.5467 -88.2803 -137.0157 147.5951 37.3484 -26.7365 30.8543
State:	 26.108 -15.299  -2.640   0.172  0.230  0.958 88.107    177.27   20.92  143.55  -88.28 -137.02  147.60   37.35  -26.74   30.85

DOCKED: MODEL       76
DOCKED: USER    Run = 76
DOCKED: USER    DPF = ligand_dock.biased.dpf
DOCKED: USER  
DOCKED: USER    Estimated Free Energy of Binding    =  -11.70 kcal/mol  [=(1)+(2)+(3)-(4)]
DOCKED: USER    Estimated Inhibition Constant, Ki   =    2.66 nM (nanomolar)  [Temperature = 298.15 K]
DOCKED: USER    
DOCKED: USER    (1) Final Intermolecular Energy     =  -14.38 kcal/mol
DOCKED: USER        vdW + Hbond + desolv Energy     =  -14.38 kcal/mol
DOCKED: USER        Electrostatic Energy            =   +0.00 kcal/mol
DOCKED: USER    (2) Final Total Internal Energy     =   -1.43 kcal/mol
DOCKED: USER    (3) Torsional Free Energy           =   +2.68 kcal/mol
DOCKED: USER    (4) Unbound System's Energy  [=(2)] =   -1.43 kcal/mol
DOCKED: USER    
DOCKED: USER    
DOCKED: USER    NEWDPF move ligand.pdbqt
DOCKED: USER    NEWDPF about 1.436000 0.069000 -0.007000
DOCKED: USER    NEWDPF tran0 26.107653 -15.298701 -2.640483
DOCKED: USER    NEWDPF quaternion0 0.119746 0.159699 0.666065 0.718690
DOCKED: USER    NEWDPF axisangle0 0.172214 0.229674 0.957910 88.107173
DOCKED: USER    NEWDPF quat0 0.172214 0.229674 0.957910 88.107173
DOCKED: USER    NEWDPF dihe0 177.27 20.92 143.55 -88.28 -137.02 147.60 37.35 -26.74 30.85 
DOCKED: USER  keepresnum = 1 
DOCKED: USER  
DOCKED: REMARK  Name = 
DOCKED: REMARK  11 active torsions:
DOCKED: REMARK  status: ('A' for Active; 'I' for Inactive)
DOCKED: REMARK    1  A    between atoms: C_2  and  O_3
DOCKED: REMARK    2  A    between atoms: O_3  and  C_4
DOCKED: REMARK    3  A    between atoms: C_4  and  C_5
DOCKED: REMARK    4  A    between atoms: C_10  and  C_11
DOCKED: REMARK    5  A    between atoms: C_11  and  N_12
DOCKED: REMARK    6  A    between atoms: N_12  and  C_13
DOCKED: REMARK    7  A    between atoms: N_12  and  C_15
DOCKED: REMARK    8  A    between atoms: C_13  and  C_14
DOCKED: REMARK    9  A    between atoms: C_15  and  C_16
DOCKED: REMARK   10  A    between atoms: N_21  and  C_22
DOCKED: REMARK   11  A    between atoms: C_25  and  C_26
DOCKED: REMARK                            x       y       z     vdW  Elec       q    Type
DOCKED: REMARK                         _______ _______ _______ _____ _____    ______ ____
DOCKED: USER                              x       y       z     vdW  Elec       q    Type
DOCKED: USER                           _______ _______ _______ _____ _____    ______ ____
DOCKED: ROOT
DOCKED: ATOM      1  C   UNL     1      29.998 -15.187  -2.092 -0.10 -0.00    +0.000 C 
DOCKED: ENDROOT
DOCKED: BRANCH   1   2
DOCKED: ATOM      2  C   UNL     1      28.994 -14.369  -2.858 -0.10 -0.00    +0.000 A 
DOCKED: ATOM      3  C   UNL     1      28.290 -14.930  -3.935 -0.23 -0.00    +0.000 A 
DOCKED: ATOM      4  C   UNL     1      27.342 -14.175  -4.632 -0.32 -0.00    +0.000 A 
DOCKED: ATOM      5  C   UNL     1      27.084 -12.849  -4.259 -0.22 -0.00    +0.000 A 
DOCKED: ATOM      6  C   UNL     1      26.131 -12.085  -4.949 -0.24 -0.00    +0.000 A 
DOCKED: ATOM      7  C   UNL     1      25.872 -10.760  -4.568 -0.25 -0.00    +0.000 A 
DOCKED: ATOM      8  C   UNL     1      26.580 -10.197  -3.495 -0.14 -0.00    +0.000 A 
DOCKED: ATOM      9  C   UNL     1      27.531 -10.949  -2.802 -0.09 -0.00    +0.000 A 
DOCKED: ATOM     10  C   UNL     1      27.790 -12.276  -3.175 -0.11 -0.00    +0.000 A 
DOCKED: ATOM     11  C   UNL     1      28.741 -13.041  -2.483 -0.07 -0.00    +0.000 A 
DOCKED: BRANCH   7  12
DOCKED: ATOM     12  C   UNL     1      24.858  -9.943  -5.327 -0.37 -0.00    +0.000 C 
DOCKED: BRANCH  12  13
DOCKED: ATOM     13  N   UNL     1      24.306  -8.863  -4.481 -0.33 -0.00    +0.000 N 
DOCKED: ATOM     14  H   UNL     1      24.161  -9.336  -3.589 -0.45 -0.00    +0.000 HD
DOCKED: BRANCH  13  15
DOCKED: ATOM     15  C   UNL     1      25.259  -7.779  -4.139 -0.18 -0.00    +0.000 C 
DOCKED: ATOM     16  C   UNL     1      25.139  -7.252  -2.699 -0.17 -0.00    +0.000 C 
DOCKED: ENDBRANCH  13  15
DOCKED: BRANCH  13  17
DOCKED: ATOM     17  C   UNL     1      22.942  -8.406  -4.838 -0.15 -0.00    +0.000 C 
DOCKED: ATOM     18  C   UNL     1      22.771  -8.018  -6.309 -0.43 -0.00    +0.000 C 
DOCKED: ENDBRANCH  13  17
DOCKED: ENDBRANCH  12  13
DOCKED: ENDBRANCH   7  12
DOCKED: ENDBRANCH   1   2
DOCKED: BRANCH   1  19
DOCKED: ATOM     19  O   UNL     1      29.349 -15.949  -1.075 -0.19 -0.00    +0.000 OA
DOCKED: BRANCH  19  21
DOCKED: ATOM     20  O   UNL     1      27.922 -17.244  -2.350 -0.22 -0.00    +0.000 OA
DOCKED: ATOM     21  C   UNL     1      28.138 -16.622  -1.273 -0.35 -0.00    +0.000 C 
DOCKED: ATOM     22  N   UNL     1      27.165 -16.630  -0.221 -0.40 -0.00    +0.000 N 
DOCKED: ATOM     23  H   UNL     1      27.450 -16.328   0.671 -0.17 -0.00    +0.000 HD
DOCKED: BRANCH  22  24
DOCKED: ATOM     24  C   UNL     1      25.800 -17.050  -0.384 -0.48 -0.00    +0.000 A 
DOCKED: ATOM     25  C   UNL     1      24.959 -16.338  -1.250 -0.50 -0.00    +0.000 A 
DOCKED: ATOM     26  C   UNL     1      23.635 -16.741  -1.448 -0.33 -0.00    +0.000 A 
DOCKED: ATOM     27  C   UNL     1      23.130 -17.877  -0.792 -0.71 -0.00    +0.000 A 
DOCKED: ATOM     28  C   UNL     1      23.984 -18.611   0.049 -0.46 -0.00    +0.000 A 
DOCKED: ATOM     29  C   UNL     1      25.307 -18.204   0.251 -0.46 -0.00    +0.000 A 
DOCKED: BRANCH  27  30
DOCKED: ATOM     30  C   UNL     1      21.731 -18.327  -1.002 -0.77 -0.00    +0.000 C 
DOCKED: ATOM     31  N   UNL     1      21.437 -19.618  -1.545 -0.59 -0.00    +0.000 N 
DOCKED: ATOM     32  O   UNL     1      20.155 -20.043  -1.632 -2.21 -0.00    +0.000 OA
DOCKED: ATOM     33  O   UNL     1      20.779 -17.552  -0.710 -2.11 +0.00    +0.000 OA
DOCKED: ATOM     34  H   UNL     1      22.169 -20.199  -1.857 -0.46 -0.00    +0.000 HD
DOCKED: ENDBRANCH  27  30
DOCKED: ENDBRANCH  22  24
DOCKED: ENDBRANCH  19  21
DOCKED: ENDBRANCH   1  19
DOCKED: TORSDOF 9
DOCKED: TER
DOCKED: ENDMDL
________________________________________________________________________________


	BEGINNING GENETIC ALGORITHM DOCKING 77 of 100
Run: 77 Seed: 2058118006 1654120528 [ Run 77 of 100 GA/GALS ]
Beginning LAMARCKIAN GENETIC ALGORITHM (LGA), with a maximum of 2500000 energy evaluations.

Final-Value: -14.954


	FINAL GENETIC ALGORITHM DOCKED STATE
	_______________________________________________


Detailed state:  trans 27.917 -16.100 -4.055 quatxyzw -0.288505 -0.633472 -0.693662 -0.185232 center 1.436 0.069 -0.007 ntor 9 85.9700 -177.5041 0.0515 177.3350 1.7392 15.9466 -133.3651 -9.0761 75.2633
State:	 27.917 -16.100  -4.055  -0.294 -0.645 -0.706 -158.651     85.97 -177.50    0.05  177.33    1.74   15.95 -133.37   -9.08   75.26

DOCKED: MODEL       77
DOCKED: USER    Run = 77
DOCKED: USER    DPF = ligand_dock.biased.dpf
DOCKED: USER  
DOCKED: USER    Estimated Free Energy of Binding    =  -10.99 kcal/mol  [=(1)+(2)+(3)-(4)]
DOCKED: USER    Estimated Inhibition Constant, Ki   =    8.73 nM (nanomolar)  [Temperature = 298.15 K]
DOCKED: USER    
DOCKED: USER    (1) Final Intermolecular Energy     =  -13.68 kcal/mol
DOCKED: USER        vdW + Hbond + desolv Energy     =  -13.68 kcal/mol
DOCKED: USER        Electrostatic Energy            =   +0.00 kcal/mol
DOCKED: USER    (2) Final Total Internal Energy     =   -1.27 kcal/mol
DOCKED: USER    (3) Torsional Free Energy           =   +2.68 kcal/mol
DOCKED: USER    (4) Unbound System's Energy  [=(2)] =   -1.27 kcal/mol
DOCKED: USER    
DOCKED: USER    
DOCKED: USER    NEWDPF move ligand.pdbqt
DOCKED: USER    NEWDPF about 1.436000 0.069000 -0.007000
DOCKED: USER    NEWDPF tran0 27.917389 -16.100146 -4.054689
DOCKED: USER    NEWDPF quaternion0 -0.288505 -0.633472 -0.693662 -0.185232
DOCKED: USER    NEWDPF axisangle0 -0.293586 -0.644628 -0.705877 -158.650640
DOCKED: USER    NEWDPF quat0 -0.293586 -0.644628 -0.705877 -158.650640
DOCKED: USER    NEWDPF dihe0 85.97 -177.50 0.05 177.33 1.74 15.95 -133.37 -9.08 75.26 
DOCKED: USER  keepresnum = 1 
DOCKED: USER  
DOCKED: REMARK  Name = 
DOCKED: REMARK  11 active torsions:
DOCKED: REMARK  status: ('A' for Active; 'I' for Inactive)
DOCKED: REMARK    1  A    between atoms: C_2  and  O_3
DOCKED: REMARK    2  A    between atoms: O_3  and  C_4
DOCKED: REMARK    3  A    between atoms: C_4  and  C_5
DOCKED: REMARK    4  A    between atoms: C_10  and  C_11
DOCKED: REMARK    5  A    between atoms: C_11  and  N_12
DOCKED: REMARK    6  A    between atoms: N_12  and  C_13
DOCKED: REMARK    7  A    between atoms: N_12  and  C_15
DOCKED: REMARK    8  A    between atoms: C_13  and  C_14
DOCKED: REMARK    9  A    between atoms: C_15  and  C_16
DOCKED: REMARK   10  A    between atoms: N_21  and  C_22
DOCKED: REMARK   11  A    between atoms: C_25  and  C_26
DOCKED: REMARK                            x       y       z     vdW  Elec       q    Type
DOCKED: REMARK                         _______ _______ _______ _____ _____    ______ ____
DOCKED: USER                              x       y       z     vdW  Elec       q    Type
DOCKED: USER                           _______ _______ _______ _____ _____    ______ ____
DOCKED: ROOT
DOCKED: ATOM      1  C   UNL     1      30.125 -16.294  -0.809 -0.18 -0.00    +0.000 C 
DOCKED: ENDROOT
DOCKED: BRANCH   1   2
DOCKED: ATOM      2  C   UNL     1      30.324 -16.606  -2.267 -0.14 -0.00    +0.000 A 
DOCKED: ATOM      3  C   UNL     1      29.221 -16.838  -3.104 -0.19 -0.00    +0.000 A 
DOCKED: ATOM      4  C   UNL     1      29.406 -17.107  -4.463 -0.06 -0.00    +0.000 A 
DOCKED: ATOM      5  C   UNL     1      30.700 -17.144  -5.004 -0.22 -0.00    +0.000 A 
DOCKED: ATOM      6  C   UNL     1      30.895 -17.408  -6.369 -0.28 -0.00    +0.000 A 
DOCKED: ATOM      7  C   UNL     1      32.190 -17.439  -6.907 -0.13 -0.00    +0.000 A 
DOCKED: ATOM      8  C   UNL     1      33.294 -17.213  -6.069 -0.04 -0.00    +0.000 A 
DOCKED: ATOM      9  C   UNL     1      33.109 -16.950  -4.709 -0.03 -0.00    +0.000 A 
DOCKED: ATOM     10  C   UNL     1      31.817 -16.912  -4.168 -0.08 -0.00    +0.000 A 
DOCKED: ATOM     11  C   UNL     1      31.620 -16.646  -2.804 -0.07 -0.00    +0.000 A 
DOCKED: BRANCH   7  12
DOCKED: ATOM     12  C   UNL     1      32.390 -17.740  -8.370 -0.20 -0.00    +0.000 C 
DOCKED: BRANCH  12  13
DOCKED: ATOM     13  N   UNL     1      31.983 -19.126  -8.687 -0.21 -0.00    +0.000 N 
DOCKED: ATOM     14  H   UNL     1      32.736 -19.441  -9.299 +0.00 -0.00    +0.000 HD
DOCKED: BRANCH  13  15
DOCKED: ATOM     15  C   UNL     1      32.047 -20.078  -7.553 -0.20 -0.00    +0.000 C 
DOCKED: ATOM     16  C   UNL     1      30.754 -20.873  -7.310 -0.37 -0.00    +0.000 C 
DOCKED: ENDBRANCH  13  15
DOCKED: BRANCH  13  17
DOCKED: ATOM     17  C   UNL     1      30.782 -19.257  -9.547 -0.41 -0.00    +0.000 C 
DOCKED: ATOM     18  C   UNL     1      31.074 -19.746 -10.968 -0.39 -0.00    +0.000 C 
DOCKED: ENDBRANCH  13  17
DOCKED: ENDBRANCH  12  13
DOCKED: ENDBRANCH   7  12
DOCKED: ENDBRANCH   1   2
DOCKED: BRANCH   1  19
DOCKED: ATOM     19  O   UNL     1      29.015 -15.415  -0.634 -0.19 -0.00    +0.000 OA
DOCKED: BRANCH  19  21
DOCKED: ATOM     20  O   UNL     1      27.044 -14.921  -1.734 -0.28 -0.00    +0.000 OA
DOCKED: ATOM     21  C   UNL     1      27.713 -15.732  -1.034 -0.31 -0.00    +0.000 C 
DOCKED: ATOM     22  N   UNL     1      27.163 -17.006  -0.675 -0.44 -0.00    +0.000 N 
DOCKED: ATOM     23  H   UNL     1      27.779 -17.690  -0.325 -0.17 -0.00    +0.000 HD
DOCKED: BRANCH  22  24
DOCKED: ATOM     24  C   UNL     1      25.773 -17.351  -0.792 -0.56 -0.00    +0.000 A 
DOCKED: ATOM     25  C   UNL     1      25.388 -18.696  -0.714 -0.41 -0.00    +0.000 A 
DOCKED: ATOM     26  C   UNL     1      24.040 -19.057  -0.797 -0.53 -0.00    +0.000 A 
DOCKED: ATOM     27  C   UNL     1      23.046 -18.073  -0.947 -0.72 -0.00    +0.000 A 
DOCKED: ATOM     28  C   UNL     1      23.431 -16.722  -0.990 -0.38 -0.00    +0.000 A 
DOCKED: ATOM     29  C   UNL     1      24.780 -16.362  -0.912 -0.45 -0.00    +0.000 A 
DOCKED: BRANCH  27  30
DOCKED: ATOM     30  C   UNL     1      21.610 -18.438  -1.023 -0.77 -0.00    +0.000 C 
DOCKED: ATOM     31  N   UNL     1      21.192 -19.737  -1.457 -0.67 -0.00    +0.000 N 
DOCKED: ATOM     32  O   UNL     1      19.883 -20.077  -1.420 -2.05 -0.00    +0.000 OA
DOCKED: ATOM     33  O   UNL     1      20.735 -17.584  -0.712 -2.14 +0.00    +0.000 OA
DOCKED: ATOM     34  H   UNL     1      21.859 -20.384  -1.783 -0.42 -0.00    +0.000 HD
DOCKED: ENDBRANCH  27  30
DOCKED: ENDBRANCH  22  24
DOCKED: ENDBRANCH  19  21
DOCKED: ENDBRANCH   1  19
DOCKED: TORSDOF 9
DOCKED: TER
DOCKED: ENDMDL
________________________________________________________________________________


	BEGINNING GENETIC ALGORITHM DOCKING 78 of 100
Run: 78 Seed: 133464788 1884989583 [ Run 78 of 100 GA/GALS ]
Beginning LAMARCKIAN GENETIC ALGORITHM (LGA), with a maximum of 2500000 energy evaluations.

Final-Value: -15.644


	FINAL GENETIC ALGORITHM DOCKED STATE
	_______________________________________________


Detailed state:  trans 24.946 -14.748 -1.935 quatxyzw 0.234436 0.104776 0.741169 0.620266 center 1.436 0.069 -0.007 ntor 9 -47.7254 177.3760 49.3257 0.0848 16.8153 83.3047 -111.4724 -36.6441 38.8912
State:	 24.946 -14.748  -1.935   0.299  0.134  0.945 103.329    -47.73  177.38   49.33    0.08   16.82   83.30 -111.47  -36.64   38.89

DOCKED: MODEL       78
DOCKED: USER    Run = 78
DOCKED: USER    DPF = ligand_dock.biased.dpf
DOCKED: USER  
DOCKED: USER    Estimated Free Energy of Binding    =  -11.11 kcal/mol  [=(1)+(2)+(3)-(4)]
DOCKED: USER    Estimated Inhibition Constant, Ki   =    7.23 nM (nanomolar)  [Temperature = 298.15 K]
DOCKED: USER    
DOCKED: USER    (1) Final Intermolecular Energy     =  -13.79 kcal/mol
DOCKED: USER        vdW + Hbond + desolv Energy     =  -13.79 kcal/mol
DOCKED: USER        Electrostatic Energy            =   +0.00 kcal/mol
DOCKED: USER    (2) Final Total Internal Energy     =   -1.85 kcal/mol
DOCKED: USER    (3) Torsional Free Energy           =   +2.68 kcal/mol
DOCKED: USER    (4) Unbound System's Energy  [=(2)] =   -1.85 kcal/mol
DOCKED: USER    
DOCKED: USER    
DOCKED: USER    NEWDPF move ligand.pdbqt
DOCKED: USER    NEWDPF about 1.436000 0.069000 -0.007000
DOCKED: USER    NEWDPF tran0 24.945885 -14.747989 -1.935349
DOCKED: USER    NEWDPF quaternion0 0.234436 0.104776 0.741169 0.620266
DOCKED: USER    NEWDPF axisangle0 0.298876 0.133577 0.944897 103.328873
DOCKED: USER    NEWDPF quat0 0.298876 0.133577 0.944897 103.328873
DOCKED: USER    NEWDPF dihe0 -47.73 177.38 49.33 0.08 16.82 83.30 -111.47 -36.64 38.89 
DOCKED: USER  keepresnum = 1 
DOCKED: USER  
DOCKED: REMARK  Name = 
DOCKED: REMARK  11 active torsions:
DOCKED: REMARK  status: ('A' for Active; 'I' for Inactive)
DOCKED: REMARK    1  A    between atoms: C_2  and  O_3
DOCKED: REMARK    2  A    between atoms: O_3  and  C_4
DOCKED: REMARK    3  A    between atoms: C_4  and  C_5
DOCKED: REMARK    4  A    between atoms: C_10  and  C_11
DOCKED: REMARK    5  A    between atoms: C_11  and  N_12
DOCKED: REMARK    6  A    between atoms: N_12  and  C_13
DOCKED: REMARK    7  A    between atoms: N_12  and  C_15
DOCKED: REMARK    8  A    between atoms: C_13  and  C_14
DOCKED: REMARK    9  A    between atoms: C_15  and  C_16
DOCKED: REMARK   10  A    between atoms: N_21  and  C_22
DOCKED: REMARK   11  A    between atoms: C_25  and  C_26
DOCKED: REMARK                            x       y       z     vdW  Elec       q    Type
DOCKED: REMARK                         _______ _______ _______ _____ _____    ______ ____
DOCKED: USER                              x       y       z     vdW  Elec       q    Type
DOCKED: USER                           _______ _______ _______ _____ _____    ______ ____
DOCKED: ROOT
DOCKED: ATOM      1  C   UNL     1      28.746 -15.745  -2.058 -0.22 -0.00    +0.000 C 
DOCKED: ENDROOT
DOCKED: BRANCH   1   2
DOCKED: ATOM      2  C   UNL     1      27.878 -14.720  -2.737 -0.19 -0.00    +0.000 A 
DOCKED: ATOM      3  C   UNL     1      26.751 -15.114  -3.474 -0.39 -0.00    +0.000 A 
DOCKED: ATOM      4  C   UNL     1      25.934 -14.159  -4.085 -0.46 -0.00    +0.000 A 
DOCKED: ATOM      5  C   UNL     1      26.234 -12.794  -3.965 -0.28 -0.00    +0.000 A 
DOCKED: ATOM      6  C   UNL     1      25.417 -11.828  -4.571 -0.29 -0.00    +0.000 A 
DOCKED: ATOM      7  C   UNL     1      25.717 -10.463  -4.443 -0.25 -0.00    +0.000 A 
DOCKED: ATOM      8  C   UNL     1      26.848 -10.068  -3.711 -0.12 -0.00    +0.000 A 
DOCKED: ATOM      9  C   UNL     1      27.668 -11.024  -3.104 -0.09 -0.00    +0.000 A 
DOCKED: ATOM     10  C   UNL     1      27.369 -12.388  -3.224 -0.14 -0.00    +0.000 A 
DOCKED: ATOM     11  C   UNL     1      28.184 -13.355  -2.616 -0.11 -0.00    +0.000 A 
DOCKED: BRANCH   7  12
DOCKED: ATOM     12  C   UNL     1      24.843  -9.434  -5.112 -0.33 -0.00    +0.000 C 
DOCKED: BRANCH  12  13
DOCKED: ATOM     13  N   UNL     1      24.638  -9.760  -6.540 -0.32 -0.00    +0.000 N 
DOCKED: ATOM     14  H   UNL     1      24.421 -10.756  -6.508 -0.04 -0.00    +0.000 HD
DOCKED: BRANCH  13  15
DOCKED: ATOM     15  C   UNL     1      23.426  -9.169  -7.155 -0.40 -0.00    +0.000 C 
DOCKED: ATOM     16  C   UNL     1      22.504  -8.428  -6.172 -0.38 -0.00    +0.000 C 
DOCKED: ENDBRANCH  13  15
DOCKED: BRANCH  13  17
DOCKED: ATOM     17  C   UNL     1      25.855  -9.714  -7.386 -0.20 -0.00    +0.000 C 
DOCKED: ATOM     18  C   UNL     1      26.423 -11.088  -7.749 -0.19 -0.00    +0.000 C 
DOCKED: ENDBRANCH  13  17
DOCKED: ENDBRANCH  12  13
DOCKED: ENDBRANCH   7  12
DOCKED: ENDBRANCH   1   2
DOCKED: BRANCH   1  19
DOCKED: ATOM     19  O   UNL     1      28.120 -16.218  -0.866 -0.32 -0.00    +0.000 OA
DOCKED: BRANCH  19  21
DOCKED: ATOM     20  O   UNL     1      26.105 -15.524   0.027 -0.30 -0.00    +0.000 OA
DOCKED: ATOM     21  C   UNL     1      26.733 -16.328  -0.717 -0.46 -0.00    +0.000 C 
DOCKED: ATOM     22  N   UNL     1      26.030 -17.337  -1.453 -0.51 -0.00    +0.000 N 
DOCKED: ATOM     23  H   UNL     1      26.511 -17.795  -2.179 -0.03 -0.00    +0.000 HD
DOCKED: BRANCH  22  24
DOCKED: ATOM     24  C   UNL     1      24.669 -17.724  -1.199 -0.64 -0.00    +0.000 A 
DOCKED: ATOM     25  C   UNL     1      24.365 -19.077  -1.001 -0.28 -0.00    +0.000 A 
DOCKED: ATOM     26  C   UNL     1      23.054 -19.478  -0.725 -0.52 -0.00    +0.000 A 
DOCKED: ATOM     27  C   UNL     1      22.022 -18.528  -0.629 -0.76 -0.00    +0.000 A 
DOCKED: ATOM     28  C   UNL     1      22.336 -17.168  -0.795 -0.53 -0.00    +0.000 A 
DOCKED: ATOM     29  C   UNL     1      23.646 -16.768  -1.075 -0.48 -0.00    +0.000 A 
DOCKED: BRANCH  27  30
DOCKED: ATOM     30  C   UNL     1      20.628 -18.936  -0.323 -0.77 -0.00    +0.000 C 
DOCKED: ATOM     31  N   UNL     1      20.344 -20.148   0.384 -0.71 -0.00    +0.000 N 
DOCKED: ATOM     32  O   UNL     1      19.073 -20.445   0.739 -0.83 -0.00    +0.000 OA
DOCKED: ATOM     33  O   UNL     1      19.671 -18.209  -0.706 -1.69 -0.00    +0.000 OA
DOCKED: ATOM     34  H   UNL     1      21.076 -20.766   0.613 -0.55 -0.00    +0.000 HD
DOCKED: ENDBRANCH  27  30
DOCKED: ENDBRANCH  22  24
DOCKED: ENDBRANCH  19  21
DOCKED: ENDBRANCH   1  19
DOCKED: TORSDOF 9
DOCKED: TER
DOCKED: ENDMDL
________________________________________________________________________________


	BEGINNING GENETIC ALGORITHM DOCKING 79 of 100
Run: 79 Seed: 1989069856 508722515 [ Run 79 of 100 GA/GALS ]
Beginning LAMARCKIAN GENETIC ALGORITHM (LGA), with a maximum of 2500000 energy evaluations.

Final-Value: -16.073


	FINAL GENETIC ALGORITHM DOCKED STATE
	_______________________________________________


Detailed state:  trans 28.341 -18.480 -1.607 quatxyzw -0.162378 -0.701601 -0.291462 -0.629634 center 1.436 0.069 -0.007 ntor 9 -20.1721 168.2684 169.7707 -30.7248 156.1164 -140.5588 -81.7959 -105.9530 -160.3379
State:	 28.341 -18.480  -1.607  -0.209 -0.903 -0.375 -101.954    -20.17  168.27  169.77  -30.72  156.12 -140.56  -81.80 -105.95 -160.34

DOCKED: MODEL       79
DOCKED: USER    Run = 79
DOCKED: USER    DPF = ligand_dock.biased.dpf
DOCKED: USER  
DOCKED: USER    Estimated Free Energy of Binding    =  -11.63 kcal/mol  [=(1)+(2)+(3)-(4)]
DOCKED: USER    Estimated Inhibition Constant, Ki   =    2.98 nM (nanomolar)  [Temperature = 298.15 K]
DOCKED: USER    
DOCKED: USER    (1) Final Intermolecular Energy     =  -14.32 kcal/mol
DOCKED: USER        vdW + Hbond + desolv Energy     =  -14.32 kcal/mol
DOCKED: USER        Electrostatic Energy            =   +0.00 kcal/mol
DOCKED: USER    (2) Final Total Internal Energy     =   -1.76 kcal/mol
DOCKED: USER    (3) Torsional Free Energy           =   +2.68 kcal/mol
DOCKED: USER    (4) Unbound System's Energy  [=(2)] =   -1.76 kcal/mol
DOCKED: USER    
DOCKED: USER    
DOCKED: USER    NEWDPF move ligand.pdbqt
DOCKED: USER    NEWDPF about 1.436000 0.069000 -0.007000
DOCKED: USER    NEWDPF tran0 28.340628 -18.479519 -1.607451
DOCKED: USER    NEWDPF quaternion0 -0.162378 -0.701601 -0.291462 -0.629634
DOCKED: USER    NEWDPF axisangle0 -0.209010 -0.903087 -0.375165 -101.953766
DOCKED: USER    NEWDPF quat0 -0.209010 -0.903087 -0.375165 -101.953766
DOCKED: USER    NEWDPF dihe0 -20.17 168.27 169.77 -30.72 156.12 -140.56 -81.80 -105.95 -160.34 
DOCKED: USER  keepresnum = 1 
DOCKED: USER  
DOCKED: REMARK  Name = 
DOCKED: REMARK  11 active torsions:
DOCKED: REMARK  status: ('A' for Active; 'I' for Inactive)
DOCKED: REMARK    1  A    between atoms: C_2  and  O_3
DOCKED: REMARK    2  A    between atoms: O_3  and  C_4
DOCKED: REMARK    3  A    between atoms: C_4  and  C_5
DOCKED: REMARK    4  A    between atoms: C_10  and  C_11
DOCKED: REMARK    5  A    between atoms: C_11  and  N_12
DOCKED: REMARK    6  A    between atoms: N_12  and  C_13
DOCKED: REMARK    7  A    between atoms: N_12  and  C_15
DOCKED: REMARK    8  A    between atoms: C_13  and  C_14
DOCKED: REMARK    9  A    between atoms: C_15  and  C_16
DOCKED: REMARK   10  A    between atoms: N_21  and  C_22
DOCKED: REMARK   11  A    between atoms: C_25  and  C_26
DOCKED: REMARK                            x       y       z     vdW  Elec       q    Type
DOCKED: REMARK                         _______ _______ _______ _____ _____    ______ ____
DOCKED: USER                              x       y       z     vdW  Elec       q    Type
DOCKED: USER                           _______ _______ _______ _____ _____    ______ ____
DOCKED: ROOT
DOCKED: ATOM      1  C   UNL     1      30.393 -15.324  -0.476 -0.12 -0.00    +0.000 C 
DOCKED: ENDROOT
DOCKED: BRANCH   1   2
DOCKED: ATOM      2  C   UNL     1      30.244 -16.113  -1.748 -0.12 -0.00    +0.000 A 
DOCKED: ATOM      3  C   UNL     1      29.468 -15.619  -2.808 -0.15 -0.00    +0.000 A 
DOCKED: ATOM      4  C   UNL     1      29.349 -16.344  -3.997 -0.23 -0.00    +0.000 A 
DOCKED: ATOM      5  C   UNL     1      30.008 -17.572  -4.143 -0.20 -0.00    +0.000 A 
DOCKED: ATOM      6  C   UNL     1      29.899 -18.304  -5.336 -0.08 -0.00    +0.000 A 
DOCKED: ATOM      7  C   UNL     1      30.565 -19.531  -5.479 -0.34 -0.00    +0.000 A 
DOCKED: ATOM      8  C   UNL     1      31.337 -20.028  -4.418 -0.20 -0.00    +0.000 A 
DOCKED: ATOM      9  C   UNL     1      31.452 -19.306  -3.227 -0.14 -0.00    +0.000 A 
DOCKED: ATOM     10  C   UNL     1      30.793 -18.078  -3.080 -0.14 -0.00    +0.000 A 
DOCKED: ATOM     11  C   UNL     1      30.904 -17.344  -1.889 -0.14 -0.00    +0.000 A 
DOCKED: BRANCH   7  12
DOCKED: ATOM     12  C   UNL     1      30.427 -20.317  -6.758 -0.46 -0.00    +0.000 C 
DOCKED: BRANCH  12  13
DOCKED: ATOM     13  N   UNL     1      31.453 -19.910  -7.743 -0.27 -0.00    +0.000 N 
DOCKED: ATOM     14  H   UNL     1      32.116 -19.392  -7.167 +0.00 -0.00    +0.000 HD
DOCKED: BRANCH  13  15
DOCKED: ATOM     15  C   UNL     1      32.273 -21.016  -8.294 -0.17 -0.00    +0.000 C 
DOCKED: ATOM     16  C   UNL     1      31.628 -22.407  -8.186 -0.22 -0.00    +0.000 C 
DOCKED: ENDBRANCH  13  15
DOCKED: BRANCH  13  17
DOCKED: ATOM     17  C   UNL     1      31.018 -18.899  -8.737 -0.38 -0.00    +0.000 C 
DOCKED: ATOM     18  C   UNL     1      31.356 -17.455  -8.357 -0.30 -0.00    +0.000 C 
DOCKED: ENDBRANCH  13  17
DOCKED: ENDBRANCH  12  13
DOCKED: ENDBRANCH   7  12
DOCKED: ENDBRANCH   1   2
DOCKED: BRANCH   1  19
DOCKED: ATOM     19  O   UNL     1      29.289 -15.569   0.395 -0.22 -0.00    +0.000 OA
DOCKED: BRANCH  19  21
DOCKED: ATOM     20  O   UNL     1      27.278 -14.750  -0.394 -0.28 -0.00    +0.000 OA
DOCKED: ATOM     21  C   UNL     1      27.977 -15.746  -0.058 -0.30 -0.00    +0.000 C 
DOCKED: ATOM     22  N   UNL     1      27.453 -17.075  -0.176 -0.42 -0.00    +0.000 N 
DOCKED: ATOM     23  H   UNL     1      28.087 -17.825  -0.118 -0.41 -0.00    +0.000 HD
DOCKED: BRANCH  22  24
DOCKED: ATOM     24  C   UNL     1      26.063 -17.383  -0.373 -0.54 -0.00    +0.000 A 
DOCKED: ATOM     25  C   UNL     1      25.160 -16.346  -0.644 -0.36 -0.00    +0.000 A 
DOCKED: ATOM     26  C   UNL     1      23.807 -16.621  -0.867 -0.33 -0.00    +0.000 A 
DOCKED: ATOM     27  C   UNL     1      23.333 -17.944  -0.836 -0.71 -0.00    +0.000 A 
DOCKED: ATOM     28  C   UNL     1      24.247 -18.986  -0.599 -0.45 -0.00    +0.000 A 
DOCKED: ATOM     29  C   UNL     1      25.598 -18.710  -0.371 -0.41 -0.00    +0.000 A 
DOCKED: BRANCH  27  30
DOCKED: ATOM     30  C   UNL     1      21.903 -18.253  -1.085 -0.74 -0.00    +0.000 C 
DOCKED: ATOM     31  N   UNL     1      21.507 -19.451  -1.761 -0.58 -0.00    +0.000 N 
DOCKED: ATOM     32  O   UNL     1      20.195 -19.759  -1.885 -2.36 -0.00    +0.000 OA
DOCKED: ATOM     33  O   UNL     1      21.017 -17.440  -0.707 -2.03 -0.00    +0.000 OA
DOCKED: ATOM     34  H   UNL     1      22.190 -20.053  -2.138 -0.54 -0.00    +0.000 HD
DOCKED: ENDBRANCH  27  30
DOCKED: ENDBRANCH  22  24
DOCKED: ENDBRANCH  19  21
DOCKED: ENDBRANCH   1  19
DOCKED: TORSDOF 9
DOCKED: TER
DOCKED: ENDMDL
________________________________________________________________________________


	BEGINNING GENETIC ALGORITHM DOCKING 80 of 100
Run: 80 Seed: 1715937722 480849709 [ Run 80 of 100 GA/GALS ]
Beginning LAMARCKIAN GENETIC ALGORITHM (LGA), with a maximum of 2500000 energy evaluations.

Final-Value: -15.654


	FINAL GENETIC ALGORITHM DOCKED STATE
	_______________________________________________


Detailed state:  trans 27.556 -16.070 -3.167 quatxyzw 0.378447 0.587549 0.688926 0.192211 center 1.436 0.069 -0.007 ntor 9 -73.0981 178.4347 -6.8099 -23.4246 174.2464 72.6650 180.0000 -12.3281 131.9890
State:	 27.556 -16.070  -3.167   0.386  0.599  0.702 157.836    -73.10  178.43   -6.81  -23.42  174.25   72.66  180.00  -12.33  131.99

DOCKED: MODEL       80
DOCKED: USER    Run = 80
DOCKED: USER    DPF = ligand_dock.biased.dpf
DOCKED: USER  
DOCKED: USER    Estimated Free Energy of Binding    =  -11.39 kcal/mol  [=(1)+(2)+(3)-(4)]
DOCKED: USER    Estimated Inhibition Constant, Ki   =    4.45 nM (nanomolar)  [Temperature = 298.15 K]
DOCKED: USER    
DOCKED: USER    (1) Final Intermolecular Energy     =  -14.08 kcal/mol
DOCKED: USER        vdW + Hbond + desolv Energy     =  -14.08 kcal/mol
DOCKED: USER        Electrostatic Energy            =   +0.00 kcal/mol
DOCKED: USER    (2) Final Total Internal Energy     =   -1.58 kcal/mol
DOCKED: USER    (3) Torsional Free Energy           =   +2.68 kcal/mol
DOCKED: USER    (4) Unbound System's Energy  [=(2)] =   -1.58 kcal/mol
DOCKED: USER    
DOCKED: USER    
DOCKED: USER    NEWDPF move ligand.pdbqt
DOCKED: USER    NEWDPF about 1.436000 0.069000 -0.007000
DOCKED: USER    NEWDPF tran0 27.556305 -16.070341 -3.166640
DOCKED: USER    NEWDPF quaternion0 0.378447 0.587549 0.688926 0.192211
DOCKED: USER    NEWDPF axisangle0 0.385637 0.598713 0.702016 157.836269
DOCKED: USER    NEWDPF quat0 0.385637 0.598713 0.702016 157.836269
DOCKED: USER    NEWDPF dihe0 -73.10 178.43 -6.81 -23.42 174.25 72.66 180.00 -12.33 131.99 
DOCKED: USER  keepresnum = 1 
DOCKED: USER  
DOCKED: REMARK  Name = 
DOCKED: REMARK  11 active torsions:
DOCKED: REMARK  status: ('A' for Active; 'I' for Inactive)
DOCKED: REMARK    1  A    between atoms: C_2  and  O_3
DOCKED: REMARK    2  A    between atoms: O_3  and  C_4
DOCKED: REMARK    3  A    between atoms: C_4  and  C_5
DOCKED: REMARK    4  A    between atoms: C_10  and  C_11
DOCKED: REMARK    5  A    between atoms: C_11  and  N_12
DOCKED: REMARK    6  A    between atoms: N_12  and  C_13
DOCKED: REMARK    7  A    between atoms: N_12  and  C_15
DOCKED: REMARK    8  A    between atoms: C_13  and  C_14
DOCKED: REMARK    9  A    between atoms: C_15  and  C_16
DOCKED: REMARK   10  A    between atoms: N_21  and  C_22
DOCKED: REMARK   11  A    between atoms: C_25  and  C_26
DOCKED: REMARK                            x       y       z     vdW  Elec       q    Type
DOCKED: REMARK                         _______ _______ _______ _____ _____    ______ ____
DOCKED: USER                              x       y       z     vdW  Elec       q    Type
DOCKED: USER                           _______ _______ _______ _____ _____    ______ ____
DOCKED: ROOT
DOCKED: ATOM      1  C   UNL     1      30.184 -16.665  -0.305 -0.18 -0.00    +0.000 C 
DOCKED: ENDROOT
DOCKED: BRANCH   1   2
DOCKED: ATOM      2  C   UNL     1      30.118 -16.944  -1.782 -0.18 -0.00    +0.000 A 
DOCKED: ATOM      3  C   UNL     1      29.479 -16.044  -2.650 -0.17 -0.00    +0.000 A 
DOCKED: ATOM      4  C   UNL     1      29.438 -16.294  -4.024 -0.23 -0.00    +0.000 A 
DOCKED: ATOM      5  C   UNL     1      30.038 -17.448  -4.550 -0.25 -0.00    +0.000 A 
DOCKED: ATOM      6  C   UNL     1      30.006 -17.704  -5.929 -0.28 -0.00    +0.000 A 
DOCKED: ATOM      7  C   UNL     1      30.613 -18.857  -6.451 -0.36 -0.00    +0.000 A 
DOCKED: ATOM      8  C   UNL     1      31.246 -19.759  -5.582 -0.26 -0.00    +0.000 A 
DOCKED: ATOM      9  C   UNL     1      31.283 -19.512  -4.208 -0.18 -0.00    +0.000 A 
DOCKED: ATOM     10  C   UNL     1      30.683 -18.360  -3.682 -0.10 -0.00    +0.000 A 
DOCKED: ATOM     11  C   UNL     1      30.718 -18.101  -2.303 -0.15 -0.00    +0.000 A 
DOCKED: BRANCH   7  12
DOCKED: ATOM     12  C   UNL     1      30.558 -19.131  -7.932 -0.33 -0.00    +0.000 C 
DOCKED: BRANCH  12  13
DOCKED: ATOM     13  N   UNL     1      31.873 -18.891  -8.564 -0.23 -0.00    +0.000 N 
DOCKED: ATOM     14  H   UNL     1      32.515 -18.980  -7.776 +0.00 -0.00    +0.000 HD
DOCKED: BRANCH  13  15
DOCKED: ATOM     15  C   UNL     1      32.330 -19.951  -9.495 -0.18 -0.00    +0.000 C 
DOCKED: ATOM     16  C   UNL     1      31.852 -21.368  -9.136 -0.21 -0.00    +0.000 C 
DOCKED: ENDBRANCH  13  15
DOCKED: BRANCH  13  17
DOCKED: ATOM     17  C   UNL     1      32.113 -17.504  -9.030 -0.26 -0.00    +0.000 C 
DOCKED: ATOM     18  C   UNL     1      33.064 -16.696  -8.143 -0.12 -0.00    +0.000 C 
DOCKED: ENDBRANCH  13  17
DOCKED: ENDBRANCH  12  13
DOCKED: ENDBRANCH   7  12
DOCKED: ENDBRANCH   1   2
DOCKED: BRANCH   1  19
DOCKED: ATOM     19  O   UNL     1      29.237 -15.660   0.056 -0.22 -0.00    +0.000 OA
DOCKED: BRANCH  19  21
DOCKED: ATOM     20  O   UNL     1      27.087 -14.815   0.080 -0.33 -0.00    +0.000 OA
DOCKED: ATOM     21  C   UNL     1      27.866 -15.767  -0.204 -0.31 -0.00    +0.000 C 
DOCKED: ATOM     22  N   UNL     1      27.366 -16.953  -0.834 -0.42 -0.00    +0.000 N 
DOCKED: ATOM     23  H   UNL     1      28.019 -17.570  -1.235 -0.04 -0.00    +0.000 HD
DOCKED: BRANCH  22  24
DOCKED: ATOM     24  C   UNL     1      25.973 -17.299  -0.918 -0.54 -0.00    +0.000 A 
DOCKED: ATOM     25  C   UNL     1      25.580 -18.625  -0.696 -0.47 -0.00    +0.000 A 
DOCKED: ATOM     26  C   UNL     1      24.229 -18.984  -0.745 -0.53 -0.00    +0.000 A 
DOCKED: ATOM     27  C   UNL     1      23.243 -18.016  -1.004 -0.71 -0.00    +0.000 A 
DOCKED: ATOM     28  C   UNL     1      23.637 -16.680  -1.192 -0.32 -0.00    +0.000 A 
DOCKED: ATOM     29  C   UNL     1      24.988 -16.323  -1.148 -0.49 -0.00    +0.000 A 
DOCKED: BRANCH  27  30
DOCKED: ATOM     30  C   UNL     1      21.804 -18.378  -1.045 -0.77 -0.00    +0.000 C 
DOCKED: ATOM     31  N   UNL     1      21.373 -19.672  -1.479 -0.62 -0.00    +0.000 N 
DOCKED: ATOM     32  O   UNL     1      20.064 -20.011  -1.410 -2.13 -0.00    +0.000 OA
DOCKED: ATOM     33  O   UNL     1      20.939 -17.524  -0.706 -2.09 +0.00    +0.000 OA
DOCKED: ATOM     34  H   UNL     1      22.029 -20.318  -1.827 -0.44 -0.00    +0.000 HD
DOCKED: ENDBRANCH  27  30
DOCKED: ENDBRANCH  22  24
DOCKED: ENDBRANCH  19  21
DOCKED: ENDBRANCH   1  19
DOCKED: TORSDOF 9
DOCKED: TER
DOCKED: ENDMDL
________________________________________________________________________________


	BEGINNING GENETIC ALGORITHM DOCKING 81 of 100
Run: 81 Seed: 2113829230 43163349 [ Run 81 of 100 GA/GALS ]
Beginning LAMARCKIAN GENETIC ALGORITHM (LGA), with a maximum of 2500000 energy evaluations.

Final-Value: -16.367


	FINAL GENETIC ALGORITHM DOCKED STATE
	_______________________________________________


Detailed state:  trans 25.715 -13.978 -0.531 quatxyzw 0.337286 -0.112181 0.811200 0.464337 center 1.436 0.069 -0.007 ntor 9 93.7956 152.3546 99.6401 161.9279 -157.0076 -162.5374 117.4208 23.5274 -175.1989
State:	 25.715 -13.978  -0.531   0.381 -0.127  0.916 124.665     93.80  152.35   99.64  161.93 -157.01 -162.54  117.42   23.53 -175.20

DOCKED: MODEL       81
DOCKED: USER    Run = 81
DOCKED: USER    DPF = ligand_dock.biased.dpf
DOCKED: USER  
DOCKED: USER    Estimated Free Energy of Binding    =  -12.11 kcal/mol  [=(1)+(2)+(3)-(4)]
DOCKED: USER    Estimated Inhibition Constant, Ki   =    1.33 nM (nanomolar)  [Temperature = 298.15 K]
DOCKED: USER    
DOCKED: USER    (1) Final Intermolecular Energy     =  -14.79 kcal/mol
DOCKED: USER        vdW + Hbond + desolv Energy     =  -14.79 kcal/mol
DOCKED: USER        Electrostatic Energy            =   +0.00 kcal/mol
DOCKED: USER    (2) Final Total Internal Energy     =   -1.57 kcal/mol
DOCKED: USER    (3) Torsional Free Energy           =   +2.68 kcal/mol
DOCKED: USER    (4) Unbound System's Energy  [=(2)] =   -1.57 kcal/mol
DOCKED: USER    
DOCKED: USER    
DOCKED: USER    NEWDPF move ligand.pdbqt
DOCKED: USER    NEWDPF about 1.436000 0.069000 -0.007000
DOCKED: USER    NEWDPF tran0 25.715271 -13.977676 -0.531182
DOCKED: USER    NEWDPF quaternion0 0.337286 -0.112181 0.811200 0.464337
DOCKED: USER    NEWDPF axisangle0 0.380830 -0.126664 0.915928 124.665407
DOCKED: USER    NEWDPF quat0 0.380830 -0.126664 0.915928 124.665407
DOCKED: USER    NEWDPF dihe0 93.80 152.35 99.64 161.93 -157.01 -162.54 117.42 23.53 -175.20 
DOCKED: USER  keepresnum = 1 
DOCKED: USER  
DOCKED: REMARK  Name = 
DOCKED: REMARK  11 active torsions:
DOCKED: REMARK  status: ('A' for Active; 'I' for Inactive)
DOCKED: REMARK    1  A    between atoms: C_2  and  O_3
DOCKED: REMARK    2  A    between atoms: O_3  and  C_4
DOCKED: REMARK    3  A    between atoms: C_4  and  C_5
DOCKED: REMARK    4  A    between atoms: C_10  and  C_11
DOCKED: REMARK    5  A    between atoms: C_11  and  N_12
DOCKED: REMARK    6  A    between atoms: N_12  and  C_13
DOCKED: REMARK    7  A    between atoms: N_12  and  C_15
DOCKED: REMARK    8  A    between atoms: C_13  and  C_14
DOCKED: REMARK    9  A    between atoms: C_15  and  C_16
DOCKED: REMARK   10  A    between atoms: N_21  and  C_22
DOCKED: REMARK   11  A    between atoms: C_25  and  C_26
DOCKED: REMARK                            x       y       z     vdW  Elec       q    Type
DOCKED: REMARK                         _______ _______ _______ _____ _____    ______ ____
DOCKED: USER                              x       y       z     vdW  Elec       q    Type
DOCKED: USER                           _______ _______ _______ _____ _____    ______ ____
DOCKED: ROOT
DOCKED: ATOM      1  C   UNL     1      28.421 -16.355  -2.104 -0.29 -0.00    +0.000 C 
DOCKED: ENDROOT
DOCKED: BRANCH   1   2
DOCKED: ATOM      2  C   UNL     1      27.940 -14.953  -2.359 -0.19 -0.00    +0.000 A 
DOCKED: ATOM      3  C   UNL     1      28.517 -13.867  -1.683 -0.10 -0.00    +0.000 A 
DOCKED: ATOM      4  C   UNL     1      28.084 -12.562  -1.937 -0.09 -0.00    +0.000 A 
DOCKED: ATOM      5  C   UNL     1      27.068 -12.327  -2.875 -0.13 -0.00    +0.000 A 
DOCKED: ATOM      6  C   UNL     1      26.631 -11.020  -3.140 -0.07 -0.00    +0.000 A 
DOCKED: ATOM      7  C   UNL     1      25.618 -10.789  -4.084 -0.17 -0.00    +0.000 A 
DOCKED: ATOM      8  C   UNL     1      25.037 -11.875  -4.757 -0.29 -0.00    +0.000 A 
DOCKED: ATOM      9  C   UNL     1      25.467 -13.180  -4.499 -0.22 -0.00    +0.000 A 
DOCKED: ATOM     10  C   UNL     1      26.481 -13.416  -3.561 -0.29 -0.00    +0.000 A 
DOCKED: ATOM     11  C   UNL     1      26.922 -14.722  -3.297 -0.32 -0.00    +0.000 A 
DOCKED: BRANCH   7  12
DOCKED: ATOM     12  C   UNL     1      25.144  -9.383  -4.350 -0.30 -0.00    +0.000 C 
DOCKED: BRANCH  12  13
DOCKED: ATOM     13  N   UNL     1      25.007  -9.135  -5.801 -0.22 -0.00    +0.000 N 
DOCKED: ATOM     14  H   UNL     1      25.161  -8.129  -5.867 +0.00 -0.00    +0.000 HD
DOCKED: BRANCH  13  15
DOCKED: ATOM     15  C   UNL     1      26.089  -9.700  -6.644 -0.17 -0.00    +0.000 C 
DOCKED: ATOM     16  C   UNL     1      25.604 -10.408  -7.919 -0.28 -0.00    +0.000 C 
DOCKED: ENDBRANCH  13  15
DOCKED: BRANCH  13  17
DOCKED: ATOM     17  C   UNL     1      23.639  -9.296  -6.350 -0.45 -0.00    +0.000 C 
DOCKED: ATOM     18  C   UNL     1      22.711  -8.106  -6.089 -0.45 -0.00    +0.000 C 
DOCKED: ENDBRANCH  13  17
DOCKED: ENDBRANCH  12  13
DOCKED: ENDBRANCH   7  12
DOCKED: ENDBRANCH   1   2
DOCKED: BRANCH   1  19
DOCKED: ATOM     19  O   UNL     1      28.055 -16.777  -0.791 -0.39 -0.00    +0.000 OA
DOCKED: BRANCH  19  21
DOCKED: ATOM     20  O   UNL     1      26.914 -18.611   0.028 -0.63 -0.00    +0.000 OA
DOCKED: ATOM     21  C   UNL     1      26.873 -17.468  -0.506 -0.55 -0.00    +0.000 C 
DOCKED: ATOM     22  N   UNL     1      25.614 -16.845  -0.792 -0.52 -0.00    +0.000 N 
DOCKED: ATOM     23  H   UNL     1      25.615 -15.883  -0.999 -0.01 -0.00    +0.000 HD
DOCKED: BRANCH  22  24
DOCKED: ATOM     24  C   UNL     1      24.352 -17.532  -0.794 -0.65 -0.00    +0.000 A 
DOCKED: ATOM     25  C   UNL     1      24.331 -18.933  -0.783 -0.52 -0.00    +0.000 A 
DOCKED: ATOM     26  C   UNL     1      23.117 -19.626  -0.757 -0.38 -0.00    +0.000 A 
DOCKED: ATOM     27  C   UNL     1      21.897 -18.928  -0.729 -0.75 -0.00    +0.000 A 
DOCKED: ATOM     28  C   UNL     1      21.921 -17.523  -0.706 -0.65 -0.00    +0.000 A 
DOCKED: ATOM     29  C   UNL     1      23.135 -16.830  -0.737 -0.45 -0.00    +0.000 A 
DOCKED: BRANCH  27  30
DOCKED: ATOM     30  C   UNL     1      20.600 -19.649  -0.688 -0.87 -0.00    +0.000 C 
DOCKED: ATOM     31  N   UNL     1      20.133 -20.273   0.513 -0.71 -0.00    +0.000 N 
DOCKED: ATOM     32  O   UNL     1      18.903 -20.836   0.551 -0.87 -0.00    +0.000 OA
DOCKED: ATOM     33  O   UNL     1      19.900 -19.727  -1.734 -2.36 -0.00    +0.000 OA
DOCKED: ATOM     34  H   UNL     1      20.707 -20.294   1.312 -0.48 -0.00    +0.000 HD
DOCKED: ENDBRANCH  27  30
DOCKED: ENDBRANCH  22  24
DOCKED: ENDBRANCH  19  21
DOCKED: ENDBRANCH   1  19
DOCKED: TORSDOF 9
DOCKED: TER
DOCKED: ENDMDL
________________________________________________________________________________


	BEGINNING GENETIC ALGORITHM DOCKING 82 of 100
Run: 82 Seed: 1726091682 2145801340 [ Run 82 of 100 GA/GALS ]
Beginning LAMARCKIAN GENETIC ALGORITHM (LGA), with a maximum of 2500000 energy evaluations.

Final-Value: -15.252


	FINAL GENETIC ALGORITHM DOCKED STATE
	_______________________________________________


Detailed state:  trans 25.795 -14.031 -1.875 quatxyzw 0.516788 0.093650 -0.664994 -0.530983 center 1.436 0.069 -0.007 ntor 9 -63.6443 164.9212 -39.2733 -11.0830 -174.3973 -18.6376 -72.6817 -133.1336 -142.4937
State:	 25.795 -14.031  -1.875   0.610  0.111 -0.785 -115.856    -63.64  164.92  -39.27  -11.08 -174.40  -18.64  -72.68 -133.13 -142.49

DOCKED: MODEL       82
DOCKED: USER    Run = 82
DOCKED: USER    DPF = ligand_dock.biased.dpf
DOCKED: USER  
DOCKED: USER    Estimated Free Energy of Binding    =  -10.72 kcal/mol  [=(1)+(2)+(3)-(4)]
DOCKED: USER    Estimated Inhibition Constant, Ki   =   13.82 nM (nanomolar)  [Temperature = 298.15 K]
DOCKED: USER    
DOCKED: USER    (1) Final Intermolecular Energy     =  -13.41 kcal/mol
DOCKED: USER        vdW + Hbond + desolv Energy     =  -13.41 kcal/mol
DOCKED: USER        Electrostatic Energy            =   +0.00 kcal/mol
DOCKED: USER    (2) Final Total Internal Energy     =   -1.85 kcal/mol
DOCKED: USER    (3) Torsional Free Energy           =   +2.68 kcal/mol
DOCKED: USER    (4) Unbound System's Energy  [=(2)] =   -1.85 kcal/mol
DOCKED: USER    
DOCKED: USER    
DOCKED: USER    NEWDPF move ligand.pdbqt
DOCKED: USER    NEWDPF about 1.436000 0.069000 -0.007000
DOCKED: USER    NEWDPF tran0 25.794650 -14.031102 -1.875360
DOCKED: USER    NEWDPF quaternion0 0.516788 0.093650 -0.664994 -0.530983
DOCKED: USER    NEWDPF axisangle0 0.609864 0.110516 -0.784762 -115.856243
DOCKED: USER    NEWDPF quat0 0.609864 0.110516 -0.784762 -115.856243
DOCKED: USER    NEWDPF dihe0 -63.64 164.92 -39.27 -11.08 -174.40 -18.64 -72.68 -133.13 -142.49 
DOCKED: USER  keepresnum = 1 
DOCKED: USER  
DOCKED: REMARK  Name = 
DOCKED: REMARK  11 active torsions:
DOCKED: REMARK  status: ('A' for Active; 'I' for Inactive)
DOCKED: REMARK    1  A    between atoms: C_2  and  O_3
DOCKED: REMARK    2  A    between atoms: O_3  and  C_4
DOCKED: REMARK    3  A    between atoms: C_4  and  C_5
DOCKED: REMARK    4  A    between atoms: C_10  and  C_11
DOCKED: REMARK    5  A    between atoms: C_11  and  N_12
DOCKED: REMARK    6  A    between atoms: N_12  and  C_13
DOCKED: REMARK    7  A    between atoms: N_12  and  C_15
DOCKED: REMARK    8  A    between atoms: C_13  and  C_14
DOCKED: REMARK    9  A    between atoms: C_15  and  C_16
DOCKED: REMARK   10  A    between atoms: N_21  and  C_22
DOCKED: REMARK   11  A    between atoms: C_25  and  C_26
DOCKED: REMARK                            x       y       z     vdW  Elec       q    Type
DOCKED: REMARK                         _______ _______ _______ _____ _____    ______ ____
DOCKED: USER                              x       y       z     vdW  Elec       q    Type
DOCKED: USER                           _______ _______ _______ _____ _____    ______ ____
DOCKED: ROOT
DOCKED: ATOM      1  C   UNL     1      28.803 -16.065  -0.372 -0.25 -0.00    +0.000 C 
DOCKED: ENDROOT
DOCKED: BRANCH   1   2
DOCKED: ATOM      2  C   UNL     1      28.110 -14.769  -0.048 -0.21 -0.00    +0.000 A 
DOCKED: ATOM      3  C   UNL     1      27.522 -14.569   1.211 -0.22 -0.00    +0.000 A 
DOCKED: ATOM      4  C   UNL     1      26.897 -13.357   1.517 -0.28 -0.00    +0.000 A 
DOCKED: ATOM      5  C   UNL     1      26.855 -12.326   0.567 -0.23 -0.00    +0.000 A 
DOCKED: ATOM      6  C   UNL     1      26.234 -11.104   0.867 -0.30 +0.00    +0.000 A 
DOCKED: ATOM      7  C   UNL     1      26.199 -10.073  -0.084 -0.19 +0.00    +0.000 A 
DOCKED: ATOM      8  C   UNL     1      26.782 -10.275  -1.345 -0.07 -0.00    +0.000 A 
DOCKED: ATOM      9  C   UNL     1      27.402 -11.488  -1.653 -0.10 -0.00    +0.000 A 
DOCKED: ATOM     10  C   UNL     1      27.444 -12.519  -0.704 -0.14 -0.00    +0.000 A 
DOCKED: ATOM     11  C   UNL     1      28.067 -13.741  -1.003 -0.13 -0.00    +0.000 A 
DOCKED: BRANCH   7  12
DOCKED: ATOM     12  C   UNL     1      25.515  -8.770   0.243 -0.26 +0.00    +0.000 C 
DOCKED: BRANCH  12  13
DOCKED: ATOM     13  N   UNL     1      26.475  -7.645   0.209 -0.18 +0.00    +0.000 N 
DOCKED: ATOM     14  H   UNL     1      27.106  -7.918  -0.544 +0.00 +0.00    +0.000 HD
DOCKED: BRANCH  13  15
DOCKED: ATOM     15  C   UNL     1      25.919  -6.355  -0.266 -0.17 +0.00    +0.000 C 
DOCKED: ATOM     16  C   UNL     1      24.647  -6.481  -1.120 -0.22 +0.00    +0.000 C 
DOCKED: ENDBRANCH  13  15
DOCKED: BRANCH  13  17
DOCKED: ATOM     17  C   UNL     1      27.381  -7.544   1.378 -0.14 +0.00    +0.000 C 
DOCKED: ATOM     18  C   UNL     1      28.711  -8.283   1.211 -0.06 +0.00    +0.000 C 
DOCKED: ENDBRANCH  13  17
DOCKED: ENDBRANCH  12  13
DOCKED: ENDBRANCH   7  12
DOCKED: ENDBRANCH   1   2
DOCKED: BRANCH   1  19
DOCKED: ATOM     19  O   UNL     1      27.965 -16.891  -1.178 -0.40 -0.00    +0.000 OA
DOCKED: BRANCH  19  21
DOCKED: ATOM     20  O   UNL     1      26.720 -18.306   0.159 -0.66 -0.00    +0.000 OA
DOCKED: ATOM     21  C   UNL     1      26.745 -17.414  -0.734 -0.55 -0.00    +0.000 C 
DOCKED: ATOM     22  N   UNL     1      25.525 -16.895  -1.277 -0.54 -0.00    +0.000 N 
DOCKED: ATOM     23  H   UNL     1      25.573 -16.062  -1.800 -0.01 -0.00    +0.000 HD
DOCKED: BRANCH  22  24
DOCKED: ATOM     24  C   UNL     1      24.237 -17.510  -1.109 -0.65 -0.00    +0.000 A 
DOCKED: ATOM     25  C   UNL     1      23.153 -16.731  -0.684 -0.38 -0.00    +0.000 A 
DOCKED: ATOM     26  C   UNL     1      21.883 -17.298  -0.538 -0.56 -0.00    +0.000 A 
DOCKED: ATOM     27  C   UNL     1      21.671 -18.657  -0.829 -0.75 -0.00    +0.000 A 
DOCKED: ATOM     28  C   UNL     1      22.752 -19.428  -1.288 -0.45 -0.00    +0.000 A 
DOCKED: ATOM     29  C   UNL     1      24.023 -18.862  -1.429 -0.47 -0.00    +0.000 A 
DOCKED: BRANCH  27  30
DOCKED: ATOM     30  C   UNL     1      20.326 -19.271  -0.693 -0.90 -0.00    +0.000 C 
DOCKED: ATOM     31  N   UNL     1      19.672 -19.360   0.577 -0.68 -0.00    +0.000 N 
DOCKED: ATOM     32  O   UNL     1      18.407 -19.831   0.658 -0.76 -0.00    +0.000 OA
DOCKED: ATOM     33  O   UNL     1      19.751 -19.738  -1.714 -2.28 -0.00    +0.000 OA
DOCKED: ATOM     34  H   UNL     1      20.144 -19.078   1.394 -0.24 -0.00    +0.000 HD
DOCKED: ENDBRANCH  27  30
DOCKED: ENDBRANCH  22  24
DOCKED: ENDBRANCH  19  21
DOCKED: ENDBRANCH   1  19
DOCKED: TORSDOF 9
DOCKED: TER
DOCKED: ENDMDL
________________________________________________________________________________


	BEGINNING GENETIC ALGORITHM DOCKING 83 of 100
Run: 83 Seed: 487369925 1610783241 [ Run 83 of 100 GA/GALS ]
Beginning LAMARCKIAN GENETIC ALGORITHM (LGA), with a maximum of 2500000 energy evaluations.

Final-Value: -14.774


	FINAL GENETIC ALGORITHM DOCKED STATE
	_______________________________________________


Detailed state:  trans 26.021 -14.986 -2.132 quatxyzw 0.111758 0.084183 0.718252 0.681569 center 1.436 0.069 -0.007 ntor 9 -160.0542 63.3183 179.8038 -84.2996 123.9138 111.9601 36.1217 -16.4528 161.7831
State:	 26.021 -14.986  -2.132   0.153  0.115  0.982 94.067   -160.05   63.32  179.80  -84.30  123.91  111.96   36.12  -16.45  161.78

DOCKED: MODEL       83
DOCKED: USER    Run = 83
DOCKED: USER    DPF = ligand_dock.biased.dpf
DOCKED: USER  
DOCKED: USER    Estimated Free Energy of Binding    =  -10.21 kcal/mol  [=(1)+(2)+(3)-(4)]
DOCKED: USER    Estimated Inhibition Constant, Ki   =   32.75 nM (nanomolar)  [Temperature = 298.15 K]
DOCKED: USER    
DOCKED: USER    (1) Final Intermolecular Energy     =  -12.90 kcal/mol
DOCKED: USER        vdW + Hbond + desolv Energy     =  -12.90 kcal/mol
DOCKED: USER        Electrostatic Energy            =   +0.00 kcal/mol
DOCKED: USER    (2) Final Total Internal Energy     =   -1.88 kcal/mol
DOCKED: USER    (3) Torsional Free Energy           =   +2.68 kcal/mol
DOCKED: USER    (4) Unbound System's Energy  [=(2)] =   -1.88 kcal/mol
DOCKED: USER    
DOCKED: USER    
DOCKED: USER    NEWDPF move ligand.pdbqt
DOCKED: USER    NEWDPF about 1.436000 0.069000 -0.007000
DOCKED: USER    NEWDPF tran0 26.020956 -14.985755 -2.132234
DOCKED: USER    NEWDPF quaternion0 0.111758 0.084183 0.718252 0.681569
DOCKED: USER    NEWDPF axisangle0 0.152726 0.115043 0.981550 94.067202
DOCKED: USER    NEWDPF quat0 0.152726 0.115043 0.981550 94.067202
DOCKED: USER    NEWDPF dihe0 -160.05 63.32 179.80 -84.30 123.91 111.96 36.12 -16.45 161.78 
DOCKED: USER  keepresnum = 1 
DOCKED: USER  
DOCKED: REMARK  Name = 
DOCKED: REMARK  11 active torsions:
DOCKED: REMARK  status: ('A' for Active; 'I' for Inactive)
DOCKED: REMARK    1  A    between atoms: C_2  and  O_3
DOCKED: REMARK    2  A    between atoms: O_3  and  C_4
DOCKED: REMARK    3  A    between atoms: C_4  and  C_5
DOCKED: REMARK    4  A    between atoms: C_10  and  C_11
DOCKED: REMARK    5  A    between atoms: C_11  and  N_12
DOCKED: REMARK    6  A    between atoms: N_12  and  C_13
DOCKED: REMARK    7  A    between atoms: N_12  and  C_15
DOCKED: REMARK    8  A    between atoms: C_13  and  C_14
DOCKED: REMARK    9  A    between atoms: C_15  and  C_16
DOCKED: REMARK   10  A    between atoms: N_21  and  C_22
DOCKED: REMARK   11  A    between atoms: C_25  and  C_26
DOCKED: REMARK                            x       y       z     vdW  Elec       q    Type
DOCKED: REMARK                         _______ _______ _______ _____ _____    ______ ____
DOCKED: USER                              x       y       z     vdW  Elec       q    Type
DOCKED: USER                           _______ _______ _______ _____ _____    ______ ____
DOCKED: ROOT
DOCKED: ATOM      1  C   UNL     1      29.914 -15.469  -1.894 -0.12 -0.00    +0.000 C 
DOCKED: ENDROOT
DOCKED: BRANCH   1   2
DOCKED: ATOM      2  C   UNL     1      28.991 -14.434  -2.477 -0.10 -0.00    +0.000 A 
DOCKED: ATOM      3  C   UNL     1      28.168 -13.661  -1.643 -0.11 -0.00    +0.000 A 
DOCKED: ATOM      4  C   UNL     1      27.327 -12.685  -2.185 -0.13 -0.00    +0.000 A 
DOCKED: ATOM      5  C   UNL     1      27.299 -12.468  -3.570 -0.16 -0.00    +0.000 A 
DOCKED: ATOM      6  C   UNL     1      26.461 -11.487  -4.122 -0.20 -0.00    +0.000 A 
DOCKED: ATOM      7  C   UNL     1      26.441 -11.270  -5.509 -0.21 -0.00    +0.000 A 
DOCKED: ATOM      8  C   UNL     1      27.259 -12.047  -6.344 -0.12 -0.00    +0.000 A 
DOCKED: ATOM      9  C   UNL     1      28.096 -13.027  -5.802 -0.21 -0.00    +0.000 A 
DOCKED: ATOM     10  C   UNL     1      28.124 -13.244  -4.418 -0.16 -0.00    +0.000 A 
DOCKED: ATOM     11  C   UNL     1      28.964 -14.223  -3.865 -0.12 -0.00    +0.000 A 
DOCKED: BRANCH   7  12
DOCKED: ATOM     12  C   UNL     1      25.525 -10.225  -6.093 -0.29 -0.00    +0.000 C 
DOCKED: BRANCH  12  13
DOCKED: ATOM     13  N   UNL     1      25.776  -8.901  -5.485 -0.13 -0.00    +0.000 N 
DOCKED: ATOM     14  H   UNL     1      25.951  -9.138  -4.508 +0.00 -0.00    +0.000 HD
DOCKED: BRANCH  13  15
DOCKED: ATOM     15  C   UNL     1      27.034  -8.240  -5.905 -0.05 -0.00    +0.000 C 
DOCKED: ATOM     16  C   UNL     1      28.033  -7.981  -4.765 -0.02 -0.00    +0.000 C 
DOCKED: ENDBRANCH  13  15
DOCKED: BRANCH  13  17
DOCKED: ATOM     17  C   UNL     1      24.597  -8.005  -5.400 -0.23 -0.00    +0.000 C 
DOCKED: ATOM     18  C   UNL     1      23.372  -8.500  -6.173 -0.42 -0.00    +0.000 C 
DOCKED: ENDBRANCH  13  17
DOCKED: ENDBRANCH  12  13
DOCKED: ENDBRANCH   7  12
DOCKED: ENDBRANCH   1   2
DOCKED: BRANCH   1  19
DOCKED: ATOM     19  O   UNL     1      29.230 -16.257  -0.921 -0.24 -0.00    +0.000 OA
DOCKED: BRANCH  19  21
DOCKED: ATOM     20  O   UNL     1      27.807 -17.463  -2.284 -0.07 -0.00    +0.000 OA
DOCKED: ATOM     21  C   UNL     1      28.014 -16.903  -1.172 -0.38 -0.00    +0.000 C 
DOCKED: ATOM     22  N   UNL     1      27.026 -16.957  -0.136 -0.45 -0.00    +0.000 N 
DOCKED: ATOM     23  H   UNL     1      27.302 -16.708   0.776 -0.19 -0.00    +0.000 HD
DOCKED: BRANCH  22  24
DOCKED: ATOM     24  C   UNL     1      25.659 -17.352  -0.340 -0.53 -0.00    +0.000 A 
DOCKED: ATOM     25  C   UNL     1      24.673 -16.366  -0.481 -0.06 -0.00    +0.000 A 
DOCKED: ATOM     26  C   UNL     1      23.339 -16.722  -0.708 -0.39 -0.00    +0.000 A 
DOCKED: ATOM     27  C   UNL     1      22.969 -18.074  -0.812 -0.73 -0.00    +0.000 A 
DOCKED: ATOM     28  C   UNL     1      23.966 -19.060  -0.705 -0.55 -0.00    +0.000 A 
DOCKED: ATOM     29  C   UNL     1      25.298 -18.704  -0.473 -0.41 -0.00    +0.000 A 
DOCKED: BRANCH  27  30
DOCKED: ATOM     30  C   UNL     1      21.561 -18.468  -1.067 -0.77 -0.00    +0.000 C 
DOCKED: ATOM     31  N   UNL     1      21.236 -19.722  -1.676 -0.59 -0.00    +0.000 N 
DOCKED: ATOM     32  O   UNL     1      19.944 -20.100  -1.804 -2.09 -0.00    +0.000 OA
DOCKED: ATOM     33  O   UNL     1      20.629 -17.677  -0.754 -2.21 +0.00    +0.000 OA
DOCKED: ATOM     34  H   UNL     1      21.955 -20.311  -2.003 -0.46 -0.00    +0.000 HD
DOCKED: ENDBRANCH  27  30
DOCKED: ENDBRANCH  22  24
DOCKED: ENDBRANCH  19  21
DOCKED: ENDBRANCH   1  19
DOCKED: TORSDOF 9
DOCKED: TER
DOCKED: ENDMDL
________________________________________________________________________________


	BEGINNING GENETIC ALGORITHM DOCKING 84 of 100
Run: 84 Seed: 1886150153 284749600 [ Run 84 of 100 GA/GALS ]
Beginning LAMARCKIAN GENETIC ALGORITHM (LGA), with a maximum of 2500000 energy evaluations.

Final-Value: -16.378


	FINAL GENETIC ALGORITHM DOCKED STATE
	_______________________________________________


Detailed state:  trans 29.155 -18.642 -3.234 quatxyzw -0.010726 0.676013 0.256544 0.690707 center 1.436 0.069 -0.007 ntor 9 -4.8140 -179.7096 175.5815 4.2163 151.7614 179.5907 -23.3190 -117.4439 -117.4593
State:	 29.155 -18.642  -3.234  -0.015  0.935  0.355 92.628     -4.81 -179.71  175.58    4.22  151.76  179.59  -23.32 -117.44 -117.46

DOCKED: MODEL       84
DOCKED: USER    Run = 84
DOCKED: USER    DPF = ligand_dock.biased.dpf
DOCKED: USER  
DOCKED: USER    Estimated Free Energy of Binding    =  -12.01 kcal/mol  [=(1)+(2)+(3)-(4)]
DOCKED: USER    Estimated Inhibition Constant, Ki   =    1.58 nM (nanomolar)  [Temperature = 298.15 K]
DOCKED: USER    
DOCKED: USER    (1) Final Intermolecular Energy     =  -14.69 kcal/mol
DOCKED: USER        vdW + Hbond + desolv Energy     =  -14.69 kcal/mol
DOCKED: USER        Electrostatic Energy            =   +0.00 kcal/mol
DOCKED: USER    (2) Final Total Internal Energy     =   -1.69 kcal/mol
DOCKED: USER    (3) Torsional Free Energy           =   +2.68 kcal/mol
DOCKED: USER    (4) Unbound System's Energy  [=(2)] =   -1.69 kcal/mol
DOCKED: USER    
DOCKED: USER    
DOCKED: USER    NEWDPF move ligand.pdbqt
DOCKED: USER    NEWDPF about 1.436000 0.069000 -0.007000
DOCKED: USER    NEWDPF tran0 29.155092 -18.641565 -3.234455
DOCKED: USER    NEWDPF quaternion0 -0.010726 0.676013 0.256544 0.690707
DOCKED: USER    NEWDPF axisangle0 -0.014832 0.934837 0.354767 92.627830
DOCKED: USER    NEWDPF quat0 -0.014832 0.934837 0.354767 92.627830
DOCKED: USER    NEWDPF dihe0 -4.81 -179.71 175.58 4.22 151.76 179.59 -23.32 -117.44 -117.46 
DOCKED: USER  keepresnum = 1 
DOCKED: USER  
DOCKED: REMARK  Name = 
DOCKED: REMARK  11 active torsions:
DOCKED: REMARK  status: ('A' for Active; 'I' for Inactive)
DOCKED: REMARK    1  A    between atoms: C_2  and  O_3
DOCKED: REMARK    2  A    between atoms: O_3  and  C_4
DOCKED: REMARK    3  A    between atoms: C_4  and  C_5
DOCKED: REMARK    4  A    between atoms: C_10  and  C_11
DOCKED: REMARK    5  A    between atoms: C_11  and  N_12
DOCKED: REMARK    6  A    between atoms: N_12  and  C_13
DOCKED: REMARK    7  A    between atoms: N_12  and  C_15
DOCKED: REMARK    8  A    between atoms: C_13  and  C_14
DOCKED: REMARK    9  A    between atoms: C_15  and  C_16
DOCKED: REMARK   10  A    between atoms: N_21  and  C_22
DOCKED: REMARK   11  A    between atoms: C_25  and  C_26
DOCKED: REMARK                            x       y       z     vdW  Elec       q    Type
DOCKED: REMARK                         _______ _______ _______ _____ _____    ______ ____
DOCKED: USER                              x       y       z     vdW  Elec       q    Type
DOCKED: USER                           _______ _______ _______ _____ _____    ______ ____
DOCKED: ROOT
DOCKED: ATOM      1  C   UNL     1      30.208 -15.290  -1.473 -0.09 -0.00    +0.000 C 
DOCKED: ENDROOT
DOCKED: BRANCH   1   2
DOCKED: ATOM      2  C   UNL     1      30.232 -15.821  -2.880 -0.11 -0.00    +0.000 A 
DOCKED: ATOM      3  C   UNL     1      30.034 -14.960  -3.971 -0.10 -0.00    +0.000 A 
DOCKED: ATOM      4  C   UNL     1      30.078 -15.451  -5.279 -0.20 -0.00    +0.000 A 
DOCKED: ATOM      5  C   UNL     1      30.325 -16.812  -5.513 -0.27 -0.00    +0.000 A 
DOCKED: ATOM      6  C   UNL     1      30.376 -17.313  -6.823 -0.29 -0.00    +0.000 A 
DOCKED: ATOM      7  C   UNL     1      30.629 -18.674  -7.052 -0.34 -0.00    +0.000 A 
DOCKED: ATOM      8  C   UNL     1      30.822 -19.536  -5.961 -0.34 -0.00    +0.000 A 
DOCKED: ATOM      9  C   UNL     1      30.773 -19.046  -4.654 -0.22 -0.00    +0.000 A 
DOCKED: ATOM     10  C   UNL     1      30.526 -17.686  -4.419 -0.23 -0.00    +0.000 A 
DOCKED: ATOM     11  C   UNL     1      30.477 -17.184  -3.110 -0.17 -0.00    +0.000 A 
DOCKED: BRANCH   7  12
DOCKED: ATOM     12  C   UNL     1      30.666 -19.205  -8.462 -0.34 -0.00    +0.000 C 
DOCKED: BRANCH  12  13
DOCKED: ATOM     13  N   UNL     1      31.998 -19.001  -9.071 -0.22 -0.00    +0.000 N 
DOCKED: ATOM     14  H   UNL     1      32.624 -19.377  -8.359 +0.00 -0.00    +0.000 HD
DOCKED: BRANCH  13  15
DOCKED: ATOM     15  C   UNL     1      32.287 -19.845 -10.255 -0.20 -0.00    +0.000 C 
DOCKED: ATOM     16  C   UNL     1      31.084 -20.082 -11.182 -0.38 -0.00    +0.000 C 
DOCKED: ENDBRANCH  13  15
DOCKED: BRANCH  13  17
DOCKED: ATOM     17  C   UNL     1      32.438 -17.590  -9.185 -0.23 -0.00    +0.000 C 
DOCKED: ATOM     18  C   UNL     1      33.536 -17.189  -8.197 -0.08 -0.00    +0.000 C 
DOCKED: ENDBRANCH  13  17
DOCKED: ENDBRANCH  12  13
DOCKED: ENDBRANCH   7  12
DOCKED: ENDBRANCH   1   2
DOCKED: BRANCH   1  19
DOCKED: ATOM     19  O   UNL     1      29.286 -16.032  -0.675 -0.22 -0.00    +0.000 OA
DOCKED: BRANCH  19  21
DOCKED: ATOM     20  O   UNL     1      27.425 -15.633  -1.985 -0.29 -0.00    +0.000 OA
DOCKED: ATOM     21  C   UNL     1      27.977 -16.316  -1.078 -0.35 -0.00    +0.000 C 
DOCKED: ATOM     22  N   UNL     1      27.287 -17.419  -0.477 -0.47 -0.00    +0.000 N 
DOCKED: ATOM     23  H   UNL     1      27.815 -18.055   0.057 -0.45 -0.00    +0.000 HD
DOCKED: BRANCH  22  24
DOCKED: ATOM     24  C   UNL     1      25.875 -17.657  -0.604 -0.57 -0.00    +0.000 A 
DOCKED: ATOM     25  C   UNL     1      25.003 -16.569  -0.741 -0.47 -0.00    +0.000 A 
DOCKED: ATOM     26  C   UNL     1      23.628 -16.773  -0.894 -0.47 -0.00    +0.000 A 
DOCKED: ATOM     27  C   UNL     1      23.100 -18.076  -0.926 -0.72 -0.00    +0.000 A 
DOCKED: ATOM     28  C   UNL     1      23.980 -19.167  -0.823 -0.46 -0.00    +0.000 A 
DOCKED: ATOM     29  C   UNL     1      25.354 -18.962  -0.665 -0.14 -0.00    +0.000 A 
DOCKED: BRANCH  27  30
DOCKED: ATOM     30  C   UNL     1      21.645 -18.310  -1.102 -0.69 -0.00    +0.000 C 
DOCKED: ATOM     31  N   UNL     1      21.152 -19.500  -1.726 -0.67 -0.00    +0.000 N 
DOCKED: ATOM     32  O   UNL     1      19.821 -19.736  -1.783 -2.34 -0.00    +0.000 OA
DOCKED: ATOM     33  O   UNL     1      20.823 -17.438  -0.707 -2.02 +0.00    +0.000 OA
DOCKED: ATOM     34  H   UNL     1      21.782 -20.149  -2.116 -0.55 -0.00    +0.000 HD
DOCKED: ENDBRANCH  27  30
DOCKED: ENDBRANCH  22  24
DOCKED: ENDBRANCH  19  21
DOCKED: ENDBRANCH   1  19
DOCKED: TORSDOF 9
DOCKED: TER
DOCKED: ENDMDL
________________________________________________________________________________


	BEGINNING GENETIC ALGORITHM DOCKING 85 of 100
Run: 85 Seed: 208954590 313902295 [ Run 85 of 100 GA/GALS ]
Beginning LAMARCKIAN GENETIC ALGORITHM (LGA), with a maximum of 2500000 energy evaluations.

Final-Value: -15.786


	FINAL GENETIC ALGORITHM DOCKED STATE
	_______________________________________________


Detailed state:  trans 29.527 -18.562 -2.788 quatxyzw 0.078899 -0.639309 -0.221314 -0.732174 center 1.436 0.069 -0.007 ntor 9 -149.0306 -177.0012 136.3706 40.3577 -6.8924 -60.8643 -97.4640 -143.5335 173.9580
State:	 29.527 -18.562  -2.788   0.116 -0.939 -0.325 -85.862   -149.03 -177.00  136.37   40.36   -6.89  -60.86  -97.46 -143.53  173.96

DOCKED: MODEL       85
DOCKED: USER    Run = 85
DOCKED: USER    DPF = ligand_dock.biased.dpf
DOCKED: USER  
DOCKED: USER    Estimated Free Energy of Binding    =  -11.60 kcal/mol  [=(1)+(2)+(3)-(4)]
DOCKED: USER    Estimated Inhibition Constant, Ki   =    3.13 nM (nanomolar)  [Temperature = 298.15 K]
DOCKED: USER    
DOCKED: USER    (1) Final Intermolecular Energy     =  -14.29 kcal/mol
DOCKED: USER        vdW + Hbond + desolv Energy     =  -14.29 kcal/mol
DOCKED: USER        Electrostatic Energy            =   +0.00 kcal/mol
DOCKED: USER    (2) Final Total Internal Energy     =   -1.50 kcal/mol
DOCKED: USER    (3) Torsional Free Energy           =   +2.68 kcal/mol
DOCKED: USER    (4) Unbound System's Energy  [=(2)] =   -1.50 kcal/mol
DOCKED: USER    
DOCKED: USER    
DOCKED: USER    NEWDPF move ligand.pdbqt
DOCKED: USER    NEWDPF about 1.436000 0.069000 -0.007000
DOCKED: USER    NEWDPF tran0 29.527245 -18.561699 -2.787912
DOCKED: USER    NEWDPF quaternion0 0.078899 -0.639309 -0.221314 -0.732174
DOCKED: USER    NEWDPF axisangle0 0.115837 -0.938618 -0.324928 -85.862032
DOCKED: USER    NEWDPF quat0 0.115837 -0.938618 -0.324928 -85.862032
DOCKED: USER    NEWDPF dihe0 -149.03 -177.00 136.37 40.36 -6.89 -60.86 -97.46 -143.53 173.96 
DOCKED: USER  keepresnum = 1 
DOCKED: USER  
DOCKED: REMARK  Name = 
DOCKED: REMARK  11 active torsions:
DOCKED: REMARK  status: ('A' for Active; 'I' for Inactive)
DOCKED: REMARK    1  A    between atoms: C_2  and  O_3
DOCKED: REMARK    2  A    between atoms: O_3  and  C_4
DOCKED: REMARK    3  A    between atoms: C_4  and  C_5
DOCKED: REMARK    4  A    between atoms: C_10  and  C_11
DOCKED: REMARK    5  A    between atoms: C_11  and  N_12
DOCKED: REMARK    6  A    between atoms: N_12  and  C_13
DOCKED: REMARK    7  A    between atoms: N_12  and  C_15
DOCKED: REMARK    8  A    between atoms: C_13  and  C_14
DOCKED: REMARK    9  A    between atoms: C_15  and  C_16
DOCKED: REMARK   10  A    between atoms: N_21  and  C_22
DOCKED: REMARK   11  A    between atoms: C_25  and  C_26
DOCKED: REMARK                            x       y       z     vdW  Elec       q    Type
DOCKED: REMARK                         _______ _______ _______ _____ _____    ______ ____
DOCKED: USER                              x       y       z     vdW  Elec       q    Type
DOCKED: USER                           _______ _______ _______ _____ _____    ______ ____
DOCKED: ROOT
DOCKED: ATOM      1  C   UNL     1      30.161 -15.191  -0.869 -0.11 -0.00    +0.000 C 
DOCKED: ENDROOT
DOCKED: BRANCH   1   2
DOCKED: ATOM      2  C   UNL     1      30.163 -15.628  -2.309 -0.09 -0.00    +0.000 A 
DOCKED: ATOM      3  C   UNL     1      28.956 -15.810  -3.000 -0.20 -0.00    +0.000 A 
DOCKED: ATOM      4  C   UNL     1      28.960 -16.195  -4.344 -0.23 -0.00    +0.000 A 
DOCKED: ATOM      5  C   UNL     1      30.174 -16.400  -5.015 -0.24 -0.00    +0.000 A 
DOCKED: ATOM      6  C   UNL     1      30.188 -16.782  -6.365 -0.31 -0.00    +0.000 A 
DOCKED: ATOM      7  C   UNL     1      31.405 -16.980  -7.034 -0.23 -0.00    +0.000 A 
DOCKED: ATOM      8  C   UNL     1      32.613 -16.803  -6.341 -0.07 -0.00    +0.000 A 
DOCKED: ATOM      9  C   UNL     1      32.609 -16.424  -4.996 -0.04 -0.00    +0.000 A 
DOCKED: ATOM     10  C   UNL     1      31.396 -16.219  -4.325 -0.08 -0.00    +0.000 A 
DOCKED: ATOM     11  C   UNL     1      31.381 -15.835  -2.976 -0.05 -0.00    +0.000 A 
DOCKED: BRANCH   7  12
DOCKED: ATOM     12  C   UNL     1      31.409 -17.406  -8.480 -0.28 -0.00    +0.000 C 
DOCKED: BRANCH  12  13
DOCKED: ATOM     13  N   UNL     1      31.040 -18.832  -8.614 -0.36 -0.00    +0.000 N 
DOCKED: ATOM     14  H   UNL     1      30.021 -18.793  -8.645 -0.15 -0.00    +0.000 HD
DOCKED: BRANCH  13  15
DOCKED: ATOM     15  C   UNL     1      31.396 -19.458  -9.909 -0.36 -0.00    +0.000 C 
DOCKED: ATOM     16  C   UNL     1      30.201 -19.731 -10.838 -0.40 -0.00    +0.000 C 
DOCKED: ENDBRANCH  13  15
DOCKED: BRANCH  13  17
DOCKED: ATOM     17  C   UNL     1      31.301 -19.673  -7.420 -0.33 -0.00    +0.000 C 
DOCKED: ATOM     18  C   UNL     1      30.040 -20.135  -6.686 -0.46 -0.00    +0.000 C 
DOCKED: ENDBRANCH  13  17
DOCKED: ENDBRANCH  12  13
DOCKED: ENDBRANCH   7  12
DOCKED: ENDBRANCH   1   2
DOCKED: BRANCH   1  19
DOCKED: ATOM     19  O   UNL     1      29.433 -16.120  -0.066 -0.23 -0.00    +0.000 OA
DOCKED: BRANCH  19  21
DOCKED: ATOM     20  O   UNL     1      27.360 -15.569   0.791 -0.37 -0.00    +0.000 OA
DOCKED: ATOM     21  C   UNL     1      28.037 -16.205  -0.065 -0.29 -0.00    +0.000 C 
DOCKED: ATOM     22  N   UNL     1      27.384 -16.988  -1.072 -0.41 -0.00    +0.000 N 
DOCKED: ATOM     23  H   UNL     1      27.921 -17.285  -1.842 -0.03 -0.00    +0.000 HD
DOCKED: BRANCH  22  24
DOCKED: ATOM     24  C   UNL     1      25.999 -17.368  -1.031 -0.53 -0.00    +0.000 A 
DOCKED: ATOM     25  C   UNL     1      25.035 -16.514  -1.583 -0.54 -0.00    +0.000 A 
DOCKED: ATOM     26  C   UNL     1      23.683 -16.872  -1.581 -0.23 -0.00    +0.000 A 
DOCKED: ATOM     27  C   UNL     1      23.271 -18.101  -1.038 -0.71 -0.00    +0.000 A 
DOCKED: ATOM     28  C   UNL     1      24.243 -18.972  -0.516 -0.40 -0.00    +0.000 A 
DOCKED: ATOM     29  C   UNL     1      25.594 -18.611  -0.513 -0.51 -0.00    +0.000 A 
DOCKED: BRANCH  27  30
DOCKED: ATOM     30  C   UNL     1      21.842 -18.502  -1.041 -0.80 -0.00    +0.000 C 
DOCKED: ATOM     31  N   UNL     1      21.375 -19.590  -1.846 -0.50 -0.00    +0.000 N 
DOCKED: ATOM     32  O   UNL     1      20.089 -20.000  -1.753 -2.23 -0.00    +0.000 OA
DOCKED: ATOM     33  O   UNL     1      21.016 -17.864  -0.332 -1.93 +0.00    +0.000 OA
DOCKED: ATOM     34  H   UNL     1      21.991 -20.041  -2.468 -0.60 -0.00    +0.000 HD
DOCKED: ENDBRANCH  27  30
DOCKED: ENDBRANCH  22  24
DOCKED: ENDBRANCH  19  21
DOCKED: ENDBRANCH   1  19
DOCKED: TORSDOF 9
DOCKED: TER
DOCKED: ENDMDL
________________________________________________________________________________


	BEGINNING GENETIC ALGORITHM DOCKING 86 of 100
Run: 86 Seed: 2025498419 312168725 [ Run 86 of 100 GA/GALS ]
Beginning LAMARCKIAN GENETIC ALGORITHM (LGA), with a maximum of 2500000 energy evaluations.

Final-Value: -15.356


	FINAL GENETIC ALGORITHM DOCKED STATE
	_______________________________________________


Detailed state:  trans 28.754 -12.281 1.777 quatxyzw -0.691577 -0.299127 0.656796 -0.029380 center 1.436 0.069 -0.007 ntor 9 -74.8923 175.1434 -179.2777 105.6274 130.9215 -153.4286 163.5705 -162.4765 -35.7591
State:	 28.754 -12.281   1.777  -0.692 -0.299  0.657 -176.633    -74.89  175.14 -179.28  105.63  130.92 -153.43  163.57 -162.48  -35.76

DOCKED: MODEL       86
DOCKED: USER    Run = 86
DOCKED: USER    DPF = ligand_dock.biased.dpf
DOCKED: USER  
DOCKED: USER    Estimated Free Energy of Binding    =  -11.08 kcal/mol  [=(1)+(2)+(3)-(4)]
DOCKED: USER    Estimated Inhibition Constant, Ki   =    7.62 nM (nanomolar)  [Temperature = 298.15 K]
DOCKED: USER    
DOCKED: USER    (1) Final Intermolecular Energy     =  -13.76 kcal/mol
DOCKED: USER        vdW + Hbond + desolv Energy     =  -13.76 kcal/mol
DOCKED: USER        Electrostatic Energy            =   +0.00 kcal/mol
DOCKED: USER    (2) Final Total Internal Energy     =   -1.60 kcal/mol
DOCKED: USER    (3) Torsional Free Energy           =   +2.68 kcal/mol
DOCKED: USER    (4) Unbound System's Energy  [=(2)] =   -1.60 kcal/mol
DOCKED: USER    
DOCKED: USER    
DOCKED: USER    NEWDPF move ligand.pdbqt
DOCKED: USER    NEWDPF about 1.436000 0.069000 -0.007000
DOCKED: USER    NEWDPF tran0 28.754194 -12.281278 1.776618
DOCKED: USER    NEWDPF quaternion0 -0.691577 -0.299127 0.656796 -0.029380
DOCKED: USER    NEWDPF axisangle0 -0.691876 -0.299256 0.657080 -176.632789
DOCKED: USER    NEWDPF quat0 -0.691876 -0.299256 0.657080 -176.632789
DOCKED: USER    NEWDPF dihe0 -74.89 175.14 -179.28 105.63 130.92 -153.43 163.57 -162.48 -35.76 
DOCKED: USER  keepresnum = 1 
DOCKED: USER  
DOCKED: REMARK  Name = 
DOCKED: REMARK  11 active torsions:
DOCKED: REMARK  status: ('A' for Active; 'I' for Inactive)
DOCKED: REMARK    1  A    between atoms: C_2  and  O_3
DOCKED: REMARK    2  A    between atoms: O_3  and  C_4
DOCKED: REMARK    3  A    between atoms: C_4  and  C_5
DOCKED: REMARK    4  A    between atoms: C_10  and  C_11
DOCKED: REMARK    5  A    between atoms: C_11  and  N_12
DOCKED: REMARK    6  A    between atoms: N_12  and  C_13
DOCKED: REMARK    7  A    between atoms: N_12  and  C_15
DOCKED: REMARK    8  A    between atoms: C_13  and  C_14
DOCKED: REMARK    9  A    between atoms: C_15  and  C_16
DOCKED: REMARK   10  A    between atoms: N_21  and  C_22
DOCKED: REMARK   11  A    between atoms: C_25  and  C_26
DOCKED: REMARK                            x       y       z     vdW  Elec       q    Type
DOCKED: REMARK                         _______ _______ _______ _____ _____    ______ ____
DOCKED: USER                              x       y       z     vdW  Elec       q    Type
DOCKED: USER                           _______ _______ _______ _____ _____    ______ ____
DOCKED: ROOT
DOCKED: ATOM      1  C   UNL     1      29.950 -15.419  -0.266 -0.15 -0.00    +0.000 C 
DOCKED: ENDROOT
DOCKED: BRANCH   1   2
DOCKED: ATOM      2  C   UNL     1      29.932 -15.021   1.185 +0.01 -0.00    +0.000 A 
DOCKED: ATOM      3  C   UNL     1      31.080 -15.167   1.979 -0.12 -0.00    +0.000 A 
DOCKED: ATOM      4  C   UNL     1      31.068 -14.777   3.321 -0.23 -0.00    +0.000 A 
DOCKED: ATOM      5  C   UNL     1      29.906 -14.232   3.886 -0.29 -0.00    +0.000 A 
DOCKED: ATOM      6  C   UNL     1      29.886 -13.833   5.231 -0.31 -0.00    +0.000 A 
DOCKED: ATOM      7  C   UNL     1      28.722 -13.283   5.791 -0.39 -0.00    +0.000 A 
DOCKED: ATOM      8  C   UNL     1      27.572 -13.142   4.999 -0.38 -0.00    +0.000 A 
DOCKED: ATOM      9  C   UNL     1      27.583 -13.537   3.658 -0.40 -0.00    +0.000 A 
DOCKED: ATOM     10  C   UNL     1      28.744 -14.082   3.093 -0.29 -0.00    +0.000 A 
DOCKED: ATOM     11  C   UNL     1      28.766 -14.479   1.747 -0.16 -0.00    +0.000 A 
DOCKED: BRANCH   7  12
DOCKED: ATOM     12  C   UNL     1      28.706 -12.873   7.241 -0.40 -0.00    +0.000 C 
DOCKED: BRANCH  12  13
DOCKED: ATOM     13  N   UNL     1      29.673 -11.782   7.494 -0.26 -0.00    +0.000 N 
DOCKED: ATOM     14  H   UNL     1      29.249 -11.292   8.282 -0.04 -0.00    +0.000 HD
DOCKED: BRANCH  13  15
DOCKED: ATOM     15  C   UNL     1      30.986 -12.214   8.032 -0.20 -0.00    +0.000 C 
DOCKED: ATOM     16  C   UNL     1      30.929 -13.444   8.951 -0.29 -0.00    +0.000 C 
DOCKED: ENDBRANCH  13  15
DOCKED: BRANCH  13  17
DOCKED: ATOM     17  C   UNL     1      29.739 -10.733   6.449 -0.20 +0.00    +0.000 C 
DOCKED: ATOM     18  C   UNL     1      28.997  -9.442   6.803 -0.25 +0.00    +0.000 C 
DOCKED: ENDBRANCH  13  17
DOCKED: ENDBRANCH  12  13
DOCKED: ENDBRANCH   7  12
DOCKED: ENDBRANCH   1   2
DOCKED: BRANCH   1  19
DOCKED: ATOM     19  O   UNL     1      29.018 -14.635  -1.010 -0.12 -0.00    +0.000 OA
DOCKED: BRANCH  19  21
DOCKED: ATOM     20  O   UNL     1      26.856 -14.218  -1.712 -0.27 -0.00    +0.000 OA
DOCKED: ATOM     21  C   UNL     1      27.703 -15.041  -1.265 -0.25 -0.00    +0.000 C 
DOCKED: ATOM     22  N   UNL     1      27.343 -16.412  -1.053 -0.36 -0.00    +0.000 N 
DOCKED: ATOM     23  H   UNL     1      28.069 -17.062  -0.918 -0.03 -0.00    +0.000 HD
DOCKED: BRANCH  22  24
DOCKED: ATOM     24  C   UNL     1      25.990 -16.899  -1.024 -0.50 -0.00    +0.000 A 
DOCKED: ATOM     25  C   UNL     1      24.930 -15.989  -1.125 -0.36 -0.00    +0.000 A 
DOCKED: ATOM     26  C   UNL     1      23.605 -16.438  -1.127 +0.12 -0.00    +0.000 A 
DOCKED: ATOM     27  C   UNL     1      23.317 -17.811  -1.041 -0.69 -0.00    +0.000 A 
DOCKED: ATOM     28  C   UNL     1      24.384 -18.725  -0.975 -0.58 -0.00    +0.000 A 
DOCKED: ATOM     29  C   UNL     1      25.708 -18.275  -0.968 -0.45 -0.00    +0.000 A 
DOCKED: BRANCH  27  30
DOCKED: ATOM     30  C   UNL     1      21.918 -18.305  -1.056 -0.76 -0.00    +0.000 C 
DOCKED: ATOM     31  N   UNL     1      21.603 -19.640  -1.467 -0.55 -0.00    +0.000 N 
DOCKED: ATOM     32  O   UNL     1      20.333 -20.097  -1.375 -2.09 -0.00    +0.000 OA
DOCKED: ATOM     33  O   UNL     1      20.982 -17.531  -0.715 -2.08 -0.00    +0.000 OA
DOCKED: ATOM     34  H   UNL     1      22.312 -20.228  -1.817 -0.43 -0.00    +0.000 HD
DOCKED: ENDBRANCH  27  30
DOCKED: ENDBRANCH  22  24
DOCKED: ENDBRANCH  19  21
DOCKED: ENDBRANCH   1  19
DOCKED: TORSDOF 9
DOCKED: TER
DOCKED: ENDMDL
________________________________________________________________________________


	BEGINNING GENETIC ALGORITHM DOCKING 87 of 100
Run: 87 Seed: 2058939907 560094190 [ Run 87 of 100 GA/GALS ]
Beginning LAMARCKIAN GENETIC ALGORITHM (LGA), with a maximum of 2500000 energy evaluations.

Final-Value: -15.694


	FINAL GENETIC ALGORITHM DOCKED STATE
	_______________________________________________


Detailed state:  trans 28.044 -17.573 -3.917 quatxyzw 0.316029 0.731936 0.544291 0.261043 center 1.436 0.069 -0.007 ntor 9 71.4060 156.6438 177.1472 100.5722 -33.2357 147.0238 -88.4106 -24.6634 1.3406
State:	 28.044 -17.573  -3.917   0.327  0.758  0.564 149.736     71.41  156.64  177.15  100.57  -33.24  147.02  -88.41  -24.66    1.34

DOCKED: MODEL       87
DOCKED: USER    Run = 87
DOCKED: USER    DPF = ligand_dock.biased.dpf
DOCKED: USER  
DOCKED: USER    Estimated Free Energy of Binding    =  -11.10 kcal/mol  [=(1)+(2)+(3)-(4)]
DOCKED: USER    Estimated Inhibition Constant, Ki   =    7.25 nM (nanomolar)  [Temperature = 298.15 K]
DOCKED: USER    
DOCKED: USER    (1) Final Intermolecular Energy     =  -13.79 kcal/mol
DOCKED: USER        vdW + Hbond + desolv Energy     =  -13.79 kcal/mol
DOCKED: USER        Electrostatic Energy            =   +0.00 kcal/mol
DOCKED: USER    (2) Final Total Internal Energy     =   -1.91 kcal/mol
DOCKED: USER    (3) Torsional Free Energy           =   +2.68 kcal/mol
DOCKED: USER    (4) Unbound System's Energy  [=(2)] =   -1.91 kcal/mol
DOCKED: USER    
DOCKED: USER    
DOCKED: USER    NEWDPF move ligand.pdbqt
DOCKED: USER    NEWDPF about 1.436000 0.069000 -0.007000
DOCKED: USER    NEWDPF tran0 28.044035 -17.573377 -3.917245
DOCKED: USER    NEWDPF quaternion0 0.316029 0.731936 0.544291 0.261043
DOCKED: USER    NEWDPF axisangle0 0.327380 0.758225 0.563841 149.736102
DOCKED: USER    NEWDPF quat0 0.327380 0.758225 0.563841 149.736102
DOCKED: USER    NEWDPF dihe0 71.41 156.64 177.15 100.57 -33.24 147.02 -88.41 -24.66 1.34 
DOCKED: USER  keepresnum = 1 
DOCKED: USER  
DOCKED: REMARK  Name = 
DOCKED: REMARK  11 active torsions:
DOCKED: REMARK  status: ('A' for Active; 'I' for Inactive)
DOCKED: REMARK    1  A    between atoms: C_2  and  O_3
DOCKED: REMARK    2  A    between atoms: O_3  and  C_4
DOCKED: REMARK    3  A    between atoms: C_4  and  C_5
DOCKED: REMARK    4  A    between atoms: C_10  and  C_11
DOCKED: REMARK    5  A    between atoms: C_11  and  N_12
DOCKED: REMARK    6  A    between atoms: N_12  and  C_13
DOCKED: REMARK    7  A    between atoms: N_12  and  C_15
DOCKED: REMARK    8  A    between atoms: C_13  and  C_14
DOCKED: REMARK    9  A    between atoms: C_15  and  C_16
DOCKED: REMARK   10  A    between atoms: N_21  and  C_22
DOCKED: REMARK   11  A    between atoms: C_25  and  C_26
DOCKED: REMARK                            x       y       z     vdW  Elec       q    Type
DOCKED: REMARK                         _______ _______ _______ _____ _____    ______ ____
DOCKED: USER                              x       y       z     vdW  Elec       q    Type
DOCKED: USER                           _______ _______ _______ _____ _____    ______ ____
DOCKED: ROOT
DOCKED: ATOM      1  C   UNL     1      30.717 -16.435  -1.270 -0.14 -0.00    +0.000 C 
DOCKED: ENDROOT
DOCKED: BRANCH   1   2
DOCKED: ATOM      2  C   UNL     1      30.749 -17.141  -2.598 -0.14 -0.00    +0.000 A 
DOCKED: ATOM      3  C   UNL     1      30.761 -18.543  -2.661 -0.06 -0.00    +0.000 A 
DOCKED: ATOM      4  C   UNL     1      30.769 -19.198  -3.896 +0.04 -0.00    +0.000 A 
DOCKED: ATOM      5  C   UNL     1      30.762 -18.457  -5.086 -0.27 -0.00    +0.000 A 
DOCKED: ATOM      6  C   UNL     1      30.765 -19.105  -6.331 -0.35 -0.00    +0.000 A 
DOCKED: ATOM      7  C   UNL     1      30.752 -18.359  -7.519 -0.32 -0.00    +0.000 A 
DOCKED: ATOM      8  C   UNL     1      30.746 -16.957  -7.457 -0.29 -0.00    +0.000 A 
DOCKED: ATOM      9  C   UNL     1      30.743 -16.303  -6.223 -0.24 -0.00    +0.000 A 
DOCKED: ATOM     10  C   UNL     1      30.750 -17.043  -5.032 -0.22 -0.00    +0.000 A 
DOCKED: ATOM     11  C   UNL     1      30.745 -16.395  -3.787 -0.13 -0.00    +0.000 A 
DOCKED: BRANCH   7  12
DOCKED: ATOM     12  C   UNL     1      30.772 -19.065  -8.851 -0.39 -0.00    +0.000 C 
DOCKED: BRANCH  12  13
DOCKED: ATOM     13  N   UNL     1      32.130 -19.054  -9.437 -0.21 -0.00    +0.000 N 
DOCKED: ATOM     14  H   UNL     1      32.164 -19.947  -9.928 -0.00 -0.00    +0.000 HD
DOCKED: BRANCH  13  15
DOCKED: ATOM     15  C   UNL     1      32.343 -18.063 -10.519 -0.22 -0.00    +0.000 C 
DOCKED: ATOM     16  C   UNL     1      33.326 -16.934 -10.169 -0.16 -0.00    +0.000 C 
DOCKED: ENDBRANCH  13  15
DOCKED: BRANCH  13  17
DOCKED: ATOM     17  C   UNL     1      33.245 -19.169  -8.466 -0.08 -0.00    +0.000 C 
DOCKED: ATOM     18  C   UNL     1      33.571 -20.605  -8.048 -0.05 -0.00    +0.000 C 
DOCKED: ENDBRANCH  13  17
DOCKED: ENDBRANCH  12  13
DOCKED: ENDBRANCH   7  12
DOCKED: ENDBRANCH   1   2
DOCKED: BRANCH   1  19
DOCKED: ATOM     19  O   UNL     1      29.490 -15.724  -1.112 -0.16 -0.00    +0.000 OA
DOCKED: BRANCH  19  21
DOCKED: ATOM     20  O   UNL     1      27.811 -16.202  -2.626 -0.33 -0.00    +0.000 OA
DOCKED: ATOM     21  C   UNL     1      28.241 -16.263  -1.440 -0.31 -0.00    +0.000 C 
DOCKED: ATOM     22  N   UNL     1      27.477 -16.922  -0.423 -0.41 -0.00    +0.000 N 
DOCKED: ATOM     23  H   UNL     1      27.930 -17.141   0.423 -0.29 -0.00    +0.000 HD
DOCKED: BRANCH  22  24
DOCKED: ATOM     24  C   UNL     1      26.091 -17.282  -0.556 -0.53 -0.00    +0.000 A 
DOCKED: ATOM     25  C   UNL     1      25.130 -16.274  -0.709 -0.41 -0.00    +0.000 A 
DOCKED: ATOM     26  C   UNL     1      23.779 -16.597  -0.868 -0.29 -0.00    +0.000 A 
DOCKED: ATOM     27  C   UNL     1      23.365 -17.940  -0.890 -0.71 -0.00    +0.000 A 
DOCKED: ATOM     28  C   UNL     1      24.335 -18.951  -0.771 -0.51 -0.00    +0.000 A 
DOCKED: ATOM     29  C   UNL     1      25.685 -18.627  -0.607 -0.47 -0.00    +0.000 A 
DOCKED: BRANCH  27  30
DOCKED: ATOM     30  C   UNL     1      21.937 -18.301  -1.072 -0.76 -0.00    +0.000 C 
DOCKED: ATOM     31  N   UNL     1      21.552 -19.550  -1.658 -0.54 -0.00    +0.000 N 
DOCKED: ATOM     32  O   UNL     1      20.246 -19.897  -1.719 -2.30 -0.00    +0.000 OA
DOCKED: ATOM     33  O   UNL     1      21.041 -17.487  -0.719 -2.04 -0.00    +0.000 OA
DOCKED: ATOM     34  H   UNL     1      22.239 -20.157  -2.016 -0.50 -0.00    +0.000 HD
DOCKED: ENDBRANCH  27  30
DOCKED: ENDBRANCH  22  24
DOCKED: ENDBRANCH  19  21
DOCKED: ENDBRANCH   1  19
DOCKED: TORSDOF 9
DOCKED: TER
DOCKED: ENDMDL
________________________________________________________________________________


	BEGINNING GENETIC ALGORITHM DOCKING 88 of 100
Run: 88 Seed: 208055285 468167461 [ Run 88 of 100 GA/GALS ]
Beginning LAMARCKIAN GENETIC ALGORITHM (LGA), with a maximum of 2500000 energy evaluations.

Final-Value: -15.298


	FINAL GENETIC ALGORITHM DOCKED STATE
	_______________________________________________


Detailed state:  trans 27.530 -15.256 1.295 quatxyzw -0.095753 0.642206 -0.579786 -0.492190 center 1.436 0.069 -0.007 ntor 9 91.8175 -161.6768 36.6738 177.9792 12.6563 -22.5147 59.9626 21.2197 -155.9810
State:	 27.530 -15.256   1.295  -0.110  0.738 -0.666 -121.031     91.82 -161.68   36.67  177.98   12.66  -22.51   59.96   21.22 -155.98

DOCKED: MODEL       88
DOCKED: USER    Run = 88
DOCKED: USER    DPF = ligand_dock.biased.dpf
DOCKED: USER  
DOCKED: USER    Estimated Free Energy of Binding    =  -10.97 kcal/mol  [=(1)+(2)+(3)-(4)]
DOCKED: USER    Estimated Inhibition Constant, Ki   =    9.12 nM (nanomolar)  [Temperature = 298.15 K]
DOCKED: USER    
DOCKED: USER    (1) Final Intermolecular Energy     =  -13.65 kcal/mol
DOCKED: USER        vdW + Hbond + desolv Energy     =  -13.65 kcal/mol
DOCKED: USER        Electrostatic Energy            =   +0.00 kcal/mol
DOCKED: USER    (2) Final Total Internal Energy     =   -1.64 kcal/mol
DOCKED: USER    (3) Torsional Free Energy           =   +2.68 kcal/mol
DOCKED: USER    (4) Unbound System's Energy  [=(2)] =   -1.64 kcal/mol
DOCKED: USER    
DOCKED: USER    
DOCKED: USER    NEWDPF move ligand.pdbqt
DOCKED: USER    NEWDPF about 1.436000 0.069000 -0.007000
DOCKED: USER    NEWDPF tran0 27.529518 -15.256045 1.295319
DOCKED: USER    NEWDPF quaternion0 -0.095753 0.642206 -0.579786 -0.492190
DOCKED: USER    NEWDPF axisangle0 -0.109999 0.737754 -0.666047 -121.030691
DOCKED: USER    NEWDPF quat0 -0.109999 0.737754 -0.666047 -121.030691
DOCKED: USER    NEWDPF dihe0 91.82 -161.68 36.67 177.98 12.66 -22.51 59.96 21.22 -155.98 
DOCKED: USER  keepresnum = 1 
DOCKED: USER  
DOCKED: REMARK  Name = 
DOCKED: REMARK  11 active torsions:
DOCKED: REMARK  status: ('A' for Active; 'I' for Inactive)
DOCKED: REMARK    1  A    between atoms: C_2  and  O_3
DOCKED: REMARK    2  A    between atoms: O_3  and  C_4
DOCKED: REMARK    3  A    between atoms: C_4  and  C_5
DOCKED: REMARK    4  A    between atoms: C_10  and  C_11
DOCKED: REMARK    5  A    between atoms: C_11  and  N_12
DOCKED: REMARK    6  A    between atoms: N_12  and  C_13
DOCKED: REMARK    7  A    between atoms: N_12  and  C_15
DOCKED: REMARK    8  A    between atoms: C_13  and  C_14
DOCKED: REMARK    9  A    between atoms: C_15  and  C_16
DOCKED: REMARK   10  A    between atoms: N_21  and  C_22
DOCKED: REMARK   11  A    between atoms: C_25  and  C_26
DOCKED: REMARK                            x       y       z     vdW  Elec       q    Type
DOCKED: REMARK                         _______ _______ _______ _____ _____    ______ ____
DOCKED: USER                              x       y       z     vdW  Elec       q    Type
DOCKED: USER                           _______ _______ _______ _____ _____    ______ ____
DOCKED: ROOT
DOCKED: ATOM      1  C   UNL     1      29.308 -14.470  -2.121 -0.10 -0.00    +0.000 C 
DOCKED: ENDROOT
DOCKED: BRANCH   1   2
DOCKED: ATOM      2  C   UNL     1      29.192 -13.788  -0.784 -0.07 -0.00    +0.000 A 
DOCKED: ATOM      3  C   UNL     1      30.290 -13.739   0.089 -0.05 -0.00    +0.000 A 
DOCKED: ATOM      4  C   UNL     1      30.187 -13.087   1.321 -0.06 -0.00    +0.000 A 
DOCKED: ATOM      5  C   UNL     1      28.984 -12.472   1.694 -0.10 -0.00    +0.000 A 
DOCKED: ATOM      6  C   UNL     1      28.873 -11.810   2.927 -0.12 -0.00    +0.000 A 
DOCKED: ATOM      7  C   UNL     1      27.668 -11.191   3.294 -0.25 +0.00    +0.000 A 
DOCKED: ATOM      8  C   UNL     1      26.568 -11.245   2.424 -0.27 +0.00    +0.000 A 
DOCKED: ATOM      9  C   UNL     1      26.669 -11.902   1.195 -0.28 +0.00    +0.000 A 
DOCKED: ATOM     10  C   UNL     1      27.872 -12.517   0.821 -0.15 -0.00    +0.000 A 
DOCKED: ATOM     11  C   UNL     1      27.985 -13.177  -0.413 -0.13 -0.00    +0.000 A 
DOCKED: BRANCH   7  12
DOCKED: ATOM     12  C   UNL     1      27.555 -10.497   4.627 -0.31 +0.00    +0.000 C 
DOCKED: BRANCH  12  13
DOCKED: ATOM     13  N   UNL     1      27.914 -11.412   5.733 -0.41 +0.00    +0.000 N 
DOCKED: ATOM     14  H   UNL     1      27.184 -11.222   6.420 -0.01 +0.00    +0.000 HD
DOCKED: BRANCH  13  15
DOCKED: ATOM     15  C   UNL     1      27.739 -12.854   5.442 -0.46 -0.00    +0.000 C 
DOCKED: ATOM     16  C   UNL     1      28.924 -13.740   5.859 -0.44 -0.00    +0.000 C 
DOCKED: ENDBRANCH  13  15
DOCKED: BRANCH  13  17
DOCKED: ATOM     17  C   UNL     1      29.155 -11.067   6.468 -0.29 +0.00    +0.000 C 
DOCKED: ATOM     18  C   UNL     1      28.971 -10.915   7.980 -0.34 -0.00    +0.000 C 
DOCKED: ENDBRANCH  13  17
DOCKED: ENDBRANCH  12  13
DOCKED: ENDBRANCH   7  12
DOCKED: ENDBRANCH   1   2
DOCKED: BRANCH   1  19
DOCKED: ATOM     19  O   UNL     1      28.995 -15.857  -2.002 -0.20 -0.00    +0.000 OA
DOCKED: BRANCH  19  21
DOCKED: ATOM     20  O   UNL     1      27.106 -16.274  -3.266 -0.32 -0.00    +0.000 OA
DOCKED: ATOM     21  C   UNL     1      27.702 -16.370  -2.157 -0.34 -0.00    +0.000 C 
DOCKED: ATOM     22  N   UNL     1      27.081 -17.042  -1.054 -0.44 -0.00    +0.000 N 
DOCKED: ATOM     23  H   UNL     1      27.648 -17.289  -0.289 -0.08 -0.00    +0.000 HD
DOCKED: BRANCH  22  24
DOCKED: ATOM     24  C   UNL     1      25.684 -17.378  -0.993 -0.56 -0.00    +0.000 A 
DOCKED: ATOM     25  C   UNL     1      25.306 -18.700  -0.723 -0.41 -0.00    +0.000 A 
DOCKED: ATOM     26  C   UNL     1      23.955 -19.048  -0.631 -0.49 -0.00    +0.000 A 
DOCKED: ATOM     27  C   UNL     1      22.954 -18.075  -0.794 -0.73 -0.00    +0.000 A 
DOCKED: ATOM     28  C   UNL     1      23.336 -16.743  -1.030 -0.38 -0.00    +0.000 A 
DOCKED: ATOM     29  C   UNL     1      24.687 -16.395  -1.128 -0.48 -0.00    +0.000 A 
DOCKED: BRANCH  27  30
DOCKED: ATOM     30  C   UNL     1      21.516 -18.426  -0.685 -0.85 -0.00    +0.000 C 
DOCKED: ATOM     31  N   UNL     1      21.095 -19.689  -0.161 -0.72 -0.00    +0.000 N 
DOCKED: ATOM     32  O   UNL     1      19.779 -19.944   0.023 -1.13 -0.00    +0.000 OA
DOCKED: ATOM     33  O   UNL     1      20.645 -17.601  -1.076 -2.14 -0.00    +0.000 OA
DOCKED: ATOM     34  H   UNL     1      21.764 -20.375   0.068 -0.56 -0.00    +0.000 HD
DOCKED: ENDBRANCH  27  30
DOCKED: ENDBRANCH  22  24
DOCKED: ENDBRANCH  19  21
DOCKED: ENDBRANCH   1  19
DOCKED: TORSDOF 9
DOCKED: TER
DOCKED: ENDMDL
________________________________________________________________________________


	BEGINNING GENETIC ALGORITHM DOCKING 89 of 100
Run: 89 Seed: 1367757180 1048395094 [ Run 89 of 100 GA/GALS ]
Beginning LAMARCKIAN GENETIC ALGORITHM (LGA), with a maximum of 2500000 energy evaluations.

Final-Value: -15.062


	FINAL GENETIC ALGORITHM DOCKED STATE
	_______________________________________________


Detailed state:  trans 25.595 -14.506 -2.274 quatxyzw 0.191911 0.233351 0.664150 0.683829 center 1.436 0.069 -0.007 ntor 9 -175.3967 19.7115 -173.4304 -64.1702 3.9997 -81.3749 -99.7543 -46.1387 12.2428
State:	 25.595 -14.506  -2.274   0.263  0.320  0.910 93.713   -175.40   19.71 -173.43  -64.17    4.00  -81.37  -99.75  -46.14   12.24

DOCKED: MODEL       89
DOCKED: USER    Run = 89
DOCKED: USER    DPF = ligand_dock.biased.dpf
DOCKED: USER  
DOCKED: USER    Estimated Free Energy of Binding    =  -10.37 kcal/mol  [=(1)+(2)+(3)-(4)]
DOCKED: USER    Estimated Inhibition Constant, Ki   =   25.04 nM (nanomolar)  [Temperature = 298.15 K]
DOCKED: USER    
DOCKED: USER    (1) Final Intermolecular Energy     =  -13.05 kcal/mol
DOCKED: USER        vdW + Hbond + desolv Energy     =  -13.05 kcal/mol
DOCKED: USER        Electrostatic Energy            =   +0.00 kcal/mol
DOCKED: USER    (2) Final Total Internal Energy     =   -2.01 kcal/mol
DOCKED: USER    (3) Torsional Free Energy           =   +2.68 kcal/mol
DOCKED: USER    (4) Unbound System's Energy  [=(2)] =   -2.01 kcal/mol
DOCKED: USER    
DOCKED: USER    
DOCKED: USER    NEWDPF move ligand.pdbqt
DOCKED: USER    NEWDPF about 1.436000 0.069000 -0.007000
DOCKED: USER    NEWDPF tran0 25.595473 -14.505870 -2.274365
DOCKED: USER    NEWDPF quaternion0 0.191911 0.233351 0.664150 0.683829
DOCKED: USER    NEWDPF axisangle0 0.263021 0.319815 0.910241 93.712789
DOCKED: USER    NEWDPF quat0 0.263021 0.319815 0.910241 93.712789
DOCKED: USER    NEWDPF dihe0 -175.40 19.71 -173.43 -64.17 4.00 -81.37 -99.75 -46.14 12.24 
DOCKED: USER  keepresnum = 1 
DOCKED: USER  
DOCKED: REMARK  Name = 
DOCKED: REMARK  11 active torsions:
DOCKED: REMARK  status: ('A' for Active; 'I' for Inactive)
DOCKED: REMARK    1  A    between atoms: C_2  and  O_3
DOCKED: REMARK    2  A    between atoms: O_3  and  C_4
DOCKED: REMARK    3  A    between atoms: C_4  and  C_5
DOCKED: REMARK    4  A    between atoms: C_10  and  C_11
DOCKED: REMARK    5  A    between atoms: C_11  and  N_12
DOCKED: REMARK    6  A    between atoms: N_12  and  C_13
DOCKED: REMARK    7  A    between atoms: N_12  and  C_15
DOCKED: REMARK    8  A    between atoms: C_13  and  C_14
DOCKED: REMARK    9  A    between atoms: C_15  and  C_16
DOCKED: REMARK   10  A    between atoms: N_21  and  C_22
DOCKED: REMARK   11  A    between atoms: C_25  and  C_26
DOCKED: REMARK                            x       y       z     vdW  Elec       q    Type
DOCKED: REMARK                         _______ _______ _______ _____ _____    ______ ____
DOCKED: USER                              x       y       z     vdW  Elec       q    Type
DOCKED: USER                           _______ _______ _______ _____ _____    ______ ____
DOCKED: ROOT
DOCKED: ATOM      1  C   UNL     1      29.478 -14.463  -1.663 -0.09 -0.00    +0.000 C 
DOCKED: ENDROOT
DOCKED: BRANCH   1   2
DOCKED: ATOM      2  C   UNL     1      28.528 -13.779  -2.608 -0.10 -0.00    +0.000 A 
DOCKED: ATOM      3  C   UNL     1      28.114 -14.416  -3.788 -0.20 -0.00    +0.000 A 
DOCKED: ATOM      4  C   UNL     1      27.215 -13.787  -4.655 -0.29 -0.00    +0.000 A 
DOCKED: ATOM      5  C   UNL     1      26.717 -12.512  -4.350 -0.25 -0.00    +0.000 A 
DOCKED: ATOM      6  C   UNL     1      25.810 -11.875  -5.212 -0.21 -0.00    +0.000 A 
DOCKED: ATOM      7  C   UNL     1      25.310 -10.602  -4.900 -0.32 -0.00    +0.000 A 
DOCKED: ATOM      8  C   UNL     1      25.729  -9.962  -3.723 -0.19 -0.00    +0.000 A 
DOCKED: ATOM      9  C   UNL     1      26.631 -10.589  -2.859 -0.07 -0.00    +0.000 A 
DOCKED: ATOM     10  C   UNL     1      27.130 -11.863  -3.163 -0.13 -0.00    +0.000 A 
DOCKED: ATOM     11  C   UNL     1      28.034 -12.501  -2.301 -0.09 -0.00    +0.000 A 
DOCKED: BRANCH   7  12
DOCKED: ATOM     12  C   UNL     1      24.350  -9.920  -5.840 -0.43 -0.00    +0.000 C 
DOCKED: BRANCH  12  13
DOCKED: ATOM     13  N   UNL     1      24.991  -9.642  -7.144 -0.26 -0.00    +0.000 N 
DOCKED: ATOM     14  H   UNL     1      25.983  -9.712  -6.919 +0.00 -0.00    +0.000 HD
DOCKED: BRANCH  13  15
DOCKED: ATOM     15  C   UNL     1      24.803 -10.689  -8.176 -0.31 -0.00    +0.000 C 
DOCKED: ATOM     16  C   UNL     1      26.084 -11.086  -8.927 -0.30 -0.00    +0.000 C 
DOCKED: ENDBRANCH  13  15
DOCKED: BRANCH  13  17
DOCKED: ATOM     17  C   UNL     1      24.861  -8.249  -7.635 -0.18 -0.00    +0.000 C 
DOCKED: ATOM     18  C   UNL     1      23.421  -7.733  -7.695 -0.28 -0.00    +0.000 C 
DOCKED: ENDBRANCH  13  17
DOCKED: ENDBRANCH  12  13
DOCKED: ENDBRANCH   7  12
DOCKED: ENDBRANCH   1   2
DOCKED: BRANCH   1  19
DOCKED: ATOM     19  O   UNL     1      28.775 -14.964  -0.526 -0.17 -0.00    +0.000 OA
DOCKED: BRANCH  19  21
DOCKED: ATOM     20  O   UNL     1      26.578 -14.390  -0.102 -0.35 -0.00    +0.000 OA
DOCKED: ATOM     21  C   UNL     1      27.404 -15.243  -0.531 -0.31 -0.00    +0.000 C 
DOCKED: ATOM     22  N   UNL     1      26.948 -16.491  -1.067 -0.39 -0.00    +0.000 N 
DOCKED: ATOM     23  H   UNL     1      27.588 -17.029  -1.585 -0.02 -0.00    +0.000 HD
DOCKED: BRANCH  22  24
DOCKED: ATOM     24  C   UNL     1      25.617 -17.008  -0.897 -0.54 -0.00    +0.000 A 
DOCKED: ATOM     25  C   UNL     1      24.543 -16.358  -1.518 -0.45 -0.00    +0.000 A 
DOCKED: ATOM     26  C   UNL     1      23.242 -16.855  -1.392 -0.10 -0.00    +0.000 A 
DOCKED: ATOM     27  C   UNL     1      22.993 -18.023  -0.651 -0.73 -0.00    +0.000 A 
DOCKED: ATOM     28  C   UNL     1      24.077 -18.693  -0.057 -0.34 -0.00    +0.000 A 
DOCKED: ATOM     29  C   UNL     1      25.377 -18.193  -0.179 -0.61 -0.00    +0.000 A 
DOCKED: BRANCH  27  30
DOCKED: ATOM     30  C   UNL     1      21.621 -18.572  -0.519 -0.84 -0.00    +0.000 C 
DOCKED: ATOM     31  N   UNL     1      21.395 -19.924  -0.105 -0.54 -0.00    +0.000 N 
DOCKED: ATOM     32  O   UNL     1      20.134 -20.368   0.105 -1.10 -0.00    +0.000 OA
DOCKED: ATOM     33  O   UNL     1      20.630 -17.839  -0.790 -2.31 -0.00    +0.000 OA
DOCKED: ATOM     34  H   UNL     1      22.158 -20.532   0.027 -0.56 -0.00    +0.000 HD
DOCKED: ENDBRANCH  27  30
DOCKED: ENDBRANCH  22  24
DOCKED: ENDBRANCH  19  21
DOCKED: ENDBRANCH   1  19
DOCKED: TORSDOF 9
DOCKED: TER
DOCKED: ENDMDL
________________________________________________________________________________


	BEGINNING GENETIC ALGORITHM DOCKING 90 of 100
Run: 90 Seed: 68883861 232410041 [ Run 90 of 100 GA/GALS ]
Beginning LAMARCKIAN GENETIC ALGORITHM (LGA), with a maximum of 2500000 energy evaluations.

Final-Value: -16.073


	FINAL GENETIC ALGORITHM DOCKED STATE
	_______________________________________________


Detailed state:  trans 27.460 -16.955 -2.531 quatxyzw 0.335108 0.660156 0.569499 0.357167 center 1.436 0.069 -0.007 ntor 9 -171.9784 164.0180 -57.1881 -150.6788 145.4538 73.8533 -117.9104 -46.6824 156.5400
State:	 27.460 -16.955  -2.531   0.359  0.707  0.610 138.147   -171.98  164.02  -57.19 -150.68  145.45   73.85 -117.91  -46.68  156.54

DOCKED: MODEL       90
DOCKED: USER    Run = 90
DOCKED: USER    DPF = ligand_dock.biased.dpf
DOCKED: USER  
DOCKED: USER    Estimated Free Energy of Binding    =  -11.95 kcal/mol  [=(1)+(2)+(3)-(4)]
DOCKED: USER    Estimated Inhibition Constant, Ki   =    1.73 nM (nanomolar)  [Temperature = 298.15 K]
DOCKED: USER    
DOCKED: USER    (1) Final Intermolecular Energy     =  -14.64 kcal/mol
DOCKED: USER        vdW + Hbond + desolv Energy     =  -14.64 kcal/mol
DOCKED: USER        Electrostatic Energy            =   +0.00 kcal/mol
DOCKED: USER    (2) Final Total Internal Energy     =   -1.44 kcal/mol
DOCKED: USER    (3) Torsional Free Energy           =   +2.68 kcal/mol
DOCKED: USER    (4) Unbound System's Energy  [=(2)] =   -1.44 kcal/mol
DOCKED: USER    
DOCKED: USER    
DOCKED: USER    NEWDPF move ligand.pdbqt
DOCKED: USER    NEWDPF about 1.436000 0.069000 -0.007000
DOCKED: USER    NEWDPF tran0 27.460405 -16.954504 -2.530587
DOCKED: USER    NEWDPF quaternion0 0.335108 0.660156 0.569499 0.357167
DOCKED: USER    NEWDPF axisangle0 0.358772 0.706774 0.609715 138.147325
DOCKED: USER    NEWDPF quat0 0.358772 0.706774 0.609715 138.147325
DOCKED: USER    NEWDPF dihe0 -171.98 164.02 -57.19 -150.68 145.45 73.85 -117.91 -46.68 156.54 
DOCKED: USER  keepresnum = 1 
DOCKED: USER  
DOCKED: REMARK  Name = 
DOCKED: REMARK  11 active torsions:
DOCKED: REMARK  status: ('A' for Active; 'I' for Inactive)
DOCKED: REMARK    1  A    between atoms: C_2  and  O_3
DOCKED: REMARK    2  A    between atoms: O_3  and  C_4
DOCKED: REMARK    3  A    between atoms: C_4  and  C_5
DOCKED: REMARK    4  A    between atoms: C_10  and  C_11
DOCKED: REMARK    5  A    between atoms: C_11  and  N_12
DOCKED: REMARK    6  A    between atoms: N_12  and  C_13
DOCKED: REMARK    7  A    between atoms: N_12  and  C_15
DOCKED: REMARK    8  A    between atoms: C_13  and  C_14
DOCKED: REMARK    9  A    between atoms: C_15  and  C_16
DOCKED: REMARK   10  A    between atoms: N_21  and  C_22
DOCKED: REMARK   11  A    between atoms: C_25  and  C_26
DOCKED: REMARK                            x       y       z     vdW  Elec       q    Type
DOCKED: REMARK                         _______ _______ _______ _____ _____    ______ ____
DOCKED: USER                              x       y       z     vdW  Elec       q    Type
DOCKED: USER                           _______ _______ _______ _____ _____    ______ ____
DOCKED: ROOT
DOCKED: ATOM      1  C   UNL     1      30.569 -16.174  -0.256 -0.15 -0.00    +0.000 C 
DOCKED: ENDROOT
DOCKED: BRANCH   1   2
DOCKED: ATOM      2  C   UNL     1      30.360 -16.653  -1.667 -0.15 -0.00    +0.000 A 
DOCKED: ATOM      3  C   UNL     1      29.666 -15.860  -2.594 -0.15 -0.00    +0.000 A 
DOCKED: ATOM      4  C   UNL     1      29.490 -16.297  -3.910 -0.22 -0.00    +0.000 A 
DOCKED: ATOM      5  C   UNL     1      30.011 -17.533  -4.317 -0.23 -0.00    +0.000 A 
DOCKED: ATOM      6  C   UNL     1      29.844 -17.978  -5.638 -0.08 -0.00    +0.000 A 
DOCKED: ATOM      7  C   UNL     1      30.371 -19.213  -6.043 -0.38 -0.00    +0.000 A 
DOCKED: ATOM      8  C   UNL     1      31.060 -20.010  -5.115 -0.27 -0.00    +0.000 A 
DOCKED: ATOM      9  C   UNL     1      31.231 -19.576  -3.798 -0.13 -0.00    +0.000 A 
DOCKED: ATOM     10  C   UNL     1      30.711 -18.339  -3.390 -0.08 -0.00    +0.000 A 
DOCKED: ATOM     11  C   UNL     1      30.880 -17.893  -2.070 -0.16 -0.00    +0.000 A 
DOCKED: BRANCH   7  12
DOCKED: ATOM     12  C   UNL     1      30.172 -19.689  -7.459 -0.33 -0.00    +0.000 C 
DOCKED: BRANCH  12  13
DOCKED: ATOM     13  N   UNL     1      31.101 -19.004  -8.384 -0.35 -0.00    +0.000 N 
DOCKED: ATOM     14  H   UNL     1      30.489 -18.340  -8.858 -0.07 -0.00    +0.000 HD
DOCKED: BRANCH  13  15
DOCKED: ATOM     15  C   UNL     1      32.109 -18.131  -7.735 -0.21 -0.00    +0.000 C 
DOCKED: ATOM     16  C   UNL     1      32.207 -16.716  -8.327 -0.22 -0.00    +0.000 C 
DOCKED: ENDBRANCH  13  15
DOCKED: BRANCH  13  17
DOCKED: ATOM     17  C   UNL     1      31.617 -19.832  -9.500 -0.30 -0.00    +0.000 C 
DOCKED: ATOM     18  C   UNL     1      30.765 -19.778 -10.771 -0.43 -0.00    +0.000 C 
DOCKED: ENDBRANCH  13  17
DOCKED: ENDBRANCH  12  13
DOCKED: ENDBRANCH   7  12
DOCKED: ENDBRANCH   1   2
DOCKED: BRANCH   1  19
DOCKED: ATOM     19  O   UNL     1      29.390 -15.540   0.236 -0.21 -0.00    +0.000 OA
DOCKED: BRANCH  19  21
DOCKED: ATOM     20  O   UNL     1      27.488 -14.850  -0.879 -0.24 -0.00    +0.000 OA
DOCKED: ATOM     21  C   UNL     1      28.115 -15.773  -0.290 -0.29 -0.00    +0.000 C 
DOCKED: ATOM     22  N   UNL     1      27.548 -17.086  -0.188 -0.40 -0.00    +0.000 N 
DOCKED: ATOM     23  H   UNL     1      28.143 -17.824   0.076 -0.50 -0.00    +0.000 HD
DOCKED: BRANCH  22  24
DOCKED: ATOM     24  C   UNL     1      26.168 -17.395  -0.445 -0.54 -0.00    +0.000 A 
DOCKED: ATOM     25  C   UNL     1      25.484 -18.258   0.420 -0.40 -0.00    +0.000 A 
DOCKED: ATOM     26  C   UNL     1      24.133 -18.553   0.209 -0.29 -0.00    +0.000 A 
DOCKED: ATOM     27  C   UNL     1      23.436 -17.977  -0.867 -0.71 -0.00    +0.000 A 
DOCKED: ATOM     28  C   UNL     1      24.116 -17.084  -1.714 -0.49 -0.00    +0.000 A 
DOCKED: ATOM     29  C   UNL     1      25.467 -16.793  -1.505 -0.53 -0.00    +0.000 A 
DOCKED: BRANCH  27  30
DOCKED: ATOM     30  C   UNL     1      21.999 -18.269  -1.097 -0.73 -0.00    +0.000 C 
DOCKED: ATOM     31  N   UNL     1      21.579 -19.462  -1.767 -0.55 -0.00    +0.000 N 
DOCKED: ATOM     32  O   UNL     1      20.262 -19.753  -1.874 -2.36 -0.00    +0.000 OA
DOCKED: ATOM     33  O   UNL     1      21.128 -17.444  -0.708 -1.94 -0.00    +0.000 OA
DOCKED: ATOM     34  H   UNL     1      22.250 -20.072  -2.152 -0.54 -0.00    +0.000 HD
DOCKED: ENDBRANCH  27  30
DOCKED: ENDBRANCH  22  24
DOCKED: ENDBRANCH  19  21
DOCKED: ENDBRANCH   1  19
DOCKED: TORSDOF 9
DOCKED: TER
DOCKED: ENDMDL
________________________________________________________________________________


	BEGINNING GENETIC ALGORITHM DOCKING 91 of 100
Run: 91 Seed: 544030259 1155743872 [ Run 91 of 100 GA/GALS ]
Beginning LAMARCKIAN GENETIC ALGORITHM (LGA), with a maximum of 2500000 energy evaluations.

Final-Value: -16.148


	FINAL GENETIC ALGORITHM DOCKED STATE
	_______________________________________________


Detailed state:  trans 25.322 -13.813 -4.102 quatxyzw -0.179437 -0.262153 -0.828640 -0.460905 center 1.436 0.069 -0.007 ntor 9 -63.4764 164.4816 -55.9553 -51.3767 -70.5612 137.5330 -39.9622 16.3844 132.7497
State:	 25.322 -13.813  -4.102  -0.202 -0.295 -0.934 -125.109    -63.48  164.48  -55.96  -51.38  -70.56  137.53  -39.96   16.38  132.75

DOCKED: MODEL       91
DOCKED: USER    Run = 91
DOCKED: USER    DPF = ligand_dock.biased.dpf
DOCKED: USER  
DOCKED: USER    Estimated Free Energy of Binding    =  -11.92 kcal/mol  [=(1)+(2)+(3)-(4)]
DOCKED: USER    Estimated Inhibition Constant, Ki   =    1.83 nM (nanomolar)  [Temperature = 298.15 K]
DOCKED: USER    
DOCKED: USER    (1) Final Intermolecular Energy     =  -14.60 kcal/mol
DOCKED: USER        vdW + Hbond + desolv Energy     =  -14.60 kcal/mol
DOCKED: USER        Electrostatic Energy            =   +0.00 kcal/mol
DOCKED: USER    (2) Final Total Internal Energy     =   -1.54 kcal/mol
DOCKED: USER    (3) Torsional Free Energy           =   +2.68 kcal/mol
DOCKED: USER    (4) Unbound System's Energy  [=(2)] =   -1.54 kcal/mol
DOCKED: USER    
DOCKED: USER    
DOCKED: USER    NEWDPF move ligand.pdbqt
DOCKED: USER    NEWDPF about 1.436000 0.069000 -0.007000
DOCKED: USER    NEWDPF tran0 25.322465 -13.813126 -4.102121
DOCKED: USER    NEWDPF quaternion0 -0.179437 -0.262153 -0.828640 -0.460905
DOCKED: USER    NEWDPF axisangle0 -0.202194 -0.295400 -0.933732 -125.108900
DOCKED: USER    NEWDPF quat0 -0.202194 -0.295400 -0.933732 -125.108900
DOCKED: USER    NEWDPF dihe0 -63.48 164.48 -55.96 -51.38 -70.56 137.53 -39.96 16.38 132.75 
DOCKED: USER  keepresnum = 1 
DOCKED: USER  
DOCKED: REMARK  Name = 
DOCKED: REMARK  11 active torsions:
DOCKED: REMARK  status: ('A' for Active; 'I' for Inactive)
DOCKED: REMARK    1  A    between atoms: C_2  and  O_3
DOCKED: REMARK    2  A    between atoms: O_3  and  C_4
DOCKED: REMARK    3  A    between atoms: C_4  and  C_5
DOCKED: REMARK    4  A    between atoms: C_10  and  C_11
DOCKED: REMARK    5  A    between atoms: C_11  and  N_12
DOCKED: REMARK    6  A    between atoms: N_12  and  C_13
DOCKED: REMARK    7  A    between atoms: N_12  and  C_15
DOCKED: REMARK    8  A    between atoms: C_13  and  C_14
DOCKED: REMARK    9  A    between atoms: C_15  and  C_16
DOCKED: REMARK   10  A    between atoms: N_21  and  C_22
DOCKED: REMARK   11  A    between atoms: C_25  and  C_26
DOCKED: REMARK                            x       y       z     vdW  Elec       q    Type
DOCKED: REMARK                         _______ _______ _______ _____ _____    ______ ____
DOCKED: USER                              x       y       z     vdW  Elec       q    Type
DOCKED: USER                           _______ _______ _______ _____ _____    ______ ____
DOCKED: ROOT
DOCKED: ATOM      1  C   UNL     1      28.509 -15.592  -2.643 -0.24 -0.00    +0.000 C 
DOCKED: ENDROOT
DOCKED: BRANCH   1   2
DOCKED: ATOM      2  C   UNL     1      28.234 -14.619  -3.756 -0.20 -0.00    +0.000 A 
DOCKED: ATOM      3  C   UNL     1      27.256 -13.623  -3.607 -0.23 -0.00    +0.000 A 
DOCKED: ATOM      4  C   UNL     1      27.016 -12.706  -4.635 -0.23 -0.00    +0.000 A 
DOCKED: ATOM      5  C   UNL     1      27.755 -12.771  -5.825 -0.20 -0.00    +0.000 A 
DOCKED: ATOM      6  C   UNL     1      27.525 -11.851  -6.859 -0.16 -0.00    +0.000 A 
DOCKED: ATOM      7  C   UNL     1      28.271 -11.917  -8.046 -0.21 -0.00    +0.000 A 
DOCKED: ATOM      8  C   UNL     1      29.245 -12.917  -8.198 -0.16 -0.00    +0.000 A 
DOCKED: ATOM      9  C   UNL     1      29.481 -13.837  -7.173 -0.27 -0.00    +0.000 A 
DOCKED: ATOM     10  C   UNL     1      28.742 -13.772  -5.983 -0.25 -0.00    +0.000 A 
DOCKED: ATOM     11  C   UNL     1      28.973 -14.690  -4.947 -0.23 -0.00    +0.000 A 
DOCKED: BRANCH   7  12
DOCKED: ATOM     12  C   UNL     1      28.005 -10.935  -9.158 -0.19 -0.00    +0.000 C 
DOCKED: BRANCH  12  13
DOCKED: ATOM     13  N   UNL     1      28.025 -11.607 -10.475 -0.28 -0.00    +0.000 N 
DOCKED: ATOM     14  H   UNL     1      28.315 -12.554 -10.234 -0.23 -0.00    +0.000 HD
DOCKED: BRANCH  13  15
DOCKED: ATOM     15  C   UNL     1      26.697 -11.808 -11.102 -0.44 -0.00    +0.000 C 
DOCKED: ATOM     16  C   UNL     1      25.514 -11.783 -10.120 -0.42 -0.00    +0.000 C 
DOCKED: ENDBRANCH  13  15
DOCKED: BRANCH  13  17
DOCKED: ATOM     17  C   UNL     1      29.093 -11.161 -11.402 -0.21 -0.00    +0.000 C 
DOCKED: ATOM     18  C   UNL     1      30.391 -11.966 -11.303 -0.17 -0.00    +0.000 C 
DOCKED: ENDBRANCH  13  17
DOCKED: ENDBRANCH  12  13
DOCKED: ENDBRANCH   7  12
DOCKED: ENDBRANCH   1   2
DOCKED: BRANCH   1  19
DOCKED: ATOM     19  O   UNL     1      27.434 -15.594  -1.704 -0.29 -0.00    +0.000 OA
DOCKED: BRANCH  19  21
DOCKED: ATOM     20  O   UNL     1      25.787 -16.562  -3.004 -0.52 -0.00    +0.000 OA
DOCKED: ATOM     21  C   UNL     1      26.281 -16.371  -1.858 -0.50 -0.00    +0.000 C 
DOCKED: ATOM     22  N   UNL     1      25.693 -16.982  -0.702 -0.53 -0.00    +0.000 N 
DOCKED: ATOM     23  H   UNL     1      26.219 -16.995   0.129 -0.03 -0.00    +0.000 HD
DOCKED: BRANCH  22  24
DOCKED: ATOM     24  C   UNL     1      24.384 -17.578  -0.678 -0.65 -0.00    +0.000 A 
DOCKED: ATOM     25  C   UNL     1      23.253 -16.752  -0.699 -0.42 -0.00    +0.000 A 
DOCKED: ATOM     26  C   UNL     1      21.968 -17.305  -0.704 -0.61 -0.00    +0.000 A 
DOCKED: ATOM     27  C   UNL     1      21.792 -18.700  -0.702 -0.77 -0.00    +0.000 A 
DOCKED: ATOM     28  C   UNL     1      22.929 -19.527  -0.716 -0.49 -0.00    +0.000 A 
DOCKED: ATOM     29  C   UNL     1      24.213 -18.973  -0.706 -0.55 -0.00    +0.000 A 
DOCKED: BRANCH  27  30
DOCKED: ATOM     30  C   UNL     1      20.436 -19.303  -0.722 -0.90 -0.00    +0.000 C 
DOCKED: ATOM     31  N   UNL     1      19.653 -19.415   0.471 -0.70 -0.00    +0.000 N 
DOCKED: ATOM     32  O   UNL     1      18.382 -19.875   0.409 -0.78 -0.00    +0.000 OA
DOCKED: ATOM     33  O   UNL     1      19.967 -19.741  -1.808 -2.38 -0.00    +0.000 OA
DOCKED: ATOM     34  H   UNL     1      20.040 -19.157   1.340 -0.20 -0.00    +0.000 HD
DOCKED: ENDBRANCH  27  30
DOCKED: ENDBRANCH  22  24
DOCKED: ENDBRANCH  19  21
DOCKED: ENDBRANCH   1  19
DOCKED: TORSDOF 9
DOCKED: TER
DOCKED: ENDMDL
________________________________________________________________________________


	BEGINNING GENETIC ALGORITHM DOCKING 92 of 100
Run: 92 Seed: 1403987780 96524694 [ Run 92 of 100 GA/GALS ]
Beginning LAMARCKIAN GENETIC ALGORITHM (LGA), with a maximum of 2500000 energy evaluations.

Final-Value: -15.242


	FINAL GENETIC ALGORITHM DOCKED STATE
	_______________________________________________


Detailed state:  trans 26.262 -14.637 -1.490 quatxyzw -0.127739 -0.209676 -0.717266 -0.652111 center 1.436 0.069 -0.007 ntor 9 179.8370 -45.3496 -61.0837 -71.0455 53.2061 132.1469 -117.0081 -44.5774 177.5626
State:	 26.262 -14.637  -1.490  -0.168 -0.277 -0.946 -98.598    179.84  -45.35  -61.08  -71.05   53.21  132.15 -117.01  -44.58  177.56

DOCKED: MODEL       92
DOCKED: USER    Run = 92
DOCKED: USER    DPF = ligand_dock.biased.dpf
DOCKED: USER  
DOCKED: USER    Estimated Free Energy of Binding    =  -10.64 kcal/mol  [=(1)+(2)+(3)-(4)]
DOCKED: USER    Estimated Inhibition Constant, Ki   =   15.84 nM (nanomolar)  [Temperature = 298.15 K]
DOCKED: USER    
DOCKED: USER    (1) Final Intermolecular Energy     =  -13.33 kcal/mol
DOCKED: USER        vdW + Hbond + desolv Energy     =  -13.33 kcal/mol
DOCKED: USER        Electrostatic Energy            =   +0.00 kcal/mol
DOCKED: USER    (2) Final Total Internal Energy     =   -1.92 kcal/mol
DOCKED: USER    (3) Torsional Free Energy           =   +2.68 kcal/mol
DOCKED: USER    (4) Unbound System's Energy  [=(2)] =   -1.92 kcal/mol
DOCKED: USER    
DOCKED: USER    
DOCKED: USER    NEWDPF move ligand.pdbqt
DOCKED: USER    NEWDPF about 1.436000 0.069000 -0.007000
DOCKED: USER    NEWDPF tran0 26.262415 -14.636882 -1.490265
DOCKED: USER    NEWDPF quaternion0 -0.127739 -0.209676 -0.717266 -0.652111
DOCKED: USER    NEWDPF axisangle0 -0.168494 -0.276572 -0.946107 -98.598162
DOCKED: USER    NEWDPF quat0 -0.168494 -0.276572 -0.946107 -98.598162
DOCKED: USER    NEWDPF dihe0 179.84 -45.35 -61.08 -71.05 53.21 132.15 -117.01 -44.58 177.56 
DOCKED: USER  keepresnum = 1 
DOCKED: USER  
DOCKED: REMARK  Name = 
DOCKED: REMARK  11 active torsions:
DOCKED: REMARK  status: ('A' for Active; 'I' for Inactive)
DOCKED: REMARK    1  A    between atoms: C_2  and  O_3
DOCKED: REMARK    2  A    between atoms: O_3  and  C_4
DOCKED: REMARK    3  A    between atoms: C_4  and  C_5
DOCKED: REMARK    4  A    between atoms: C_10  and  C_11
DOCKED: REMARK    5  A    between atoms: C_11  and  N_12
DOCKED: REMARK    6  A    between atoms: N_12  and  C_13
DOCKED: REMARK    7  A    between atoms: N_12  and  C_15
DOCKED: REMARK    8  A    between atoms: C_13  and  C_14
DOCKED: REMARK    9  A    between atoms: C_15  and  C_16
DOCKED: REMARK   10  A    between atoms: N_21  and  C_22
DOCKED: REMARK   11  A    between atoms: C_25  and  C_26
DOCKED: REMARK                            x       y       z     vdW  Elec       q    Type
DOCKED: REMARK                         _______ _______ _______ _____ _____    ______ ____
DOCKED: USER                              x       y       z     vdW  Elec       q    Type
DOCKED: USER                           _______ _______ _______ _____ _____    ______ ____
DOCKED: ROOT
DOCKED: ATOM      1  C   UNL     1      30.059 -15.058  -0.564 -0.12 -0.00    +0.000 C 
DOCKED: ENDROOT
DOCKED: BRANCH   1   2
DOCKED: ATOM      2  C   UNL     1      29.266 -14.168  -1.482 -0.07 -0.00    +0.000 A 
DOCKED: ATOM      3  C   UNL     1      28.611 -13.031  -0.984 -0.07 -0.00    +0.000 A 
DOCKED: ATOM      4  C   UNL     1      27.893 -12.193  -1.842 -0.09 -0.00    +0.000 A 
DOCKED: ATOM      5  C   UNL     1      27.823 -12.481  -3.213 -0.12 -0.00    +0.000 A 
DOCKED: ATOM      6  C   UNL     1      27.109 -11.643  -4.082 -0.16 -0.00    +0.000 A 
DOCKED: ATOM      7  C   UNL     1      27.047 -11.931  -5.454 -0.19 -0.00    +0.000 A 
DOCKED: ATOM      8  C   UNL     1      27.697 -13.071  -5.952 -0.19 -0.00    +0.000 A 
DOCKED: ATOM      9  C   UNL     1      28.410 -13.912  -5.093 -0.23 -0.00    +0.000 A 
DOCKED: ATOM     10  C   UNL     1      28.480 -13.625  -3.723 -0.12 -0.00    +0.000 A 
DOCKED: ATOM     11  C   UNL     1      29.197 -14.461  -2.853 -0.09 -0.00    +0.000 A 
DOCKED: BRANCH   7  12
DOCKED: ATOM     12  C   UNL     1      26.263 -11.034  -6.377 -0.22 -0.00    +0.000 C 
DOCKED: BRANCH  12  13
DOCKED: ATOM     13  N   UNL     1      25.374 -10.133  -5.612 -0.27 -0.00    +0.000 N 
DOCKED: ATOM     14  H   UNL     1      25.227 -10.653  -4.747 -0.02 -0.00    +0.000 HD
DOCKED: BRANCH  13  15
DOCKED: ATOM     15  C   UNL     1      26.001  -8.872  -5.147 -0.15 -0.00    +0.000 C 
DOCKED: ATOM     16  C   UNL     1      25.627  -8.462  -3.713 -0.20 -0.00    +0.000 C 
DOCKED: ENDBRANCH  13  15
DOCKED: BRANCH  13  17
DOCKED: ATOM     17  C   UNL     1      24.000  -9.987  -6.148 -0.45 -0.00    +0.000 C 
DOCKED: ATOM     18  C   UNL     1      23.631  -8.560  -6.561 -0.39 -0.00    +0.000 C 
DOCKED: ENDBRANCH  13  17
DOCKED: ENDBRANCH  12  13
DOCKED: ENDBRANCH   7  12
DOCKED: ENDBRANCH   1   2
DOCKED: BRANCH   1  19
DOCKED: ATOM     19  O   UNL     1      29.212 -15.627   0.433 -0.22 -0.00    +0.000 OA
DOCKED: BRANCH  19  21
DOCKED: ATOM     20  O   UNL     1      27.020 -15.134   0.972 -0.26 -0.00    +0.000 OA
DOCKED: ATOM     21  C   UNL     1      27.833 -15.794   0.267 -0.27 -0.00    +0.000 C 
DOCKED: ATOM     22  N   UNL     1      27.356 -16.692  -0.743 -0.40 -0.00    +0.000 N 
DOCKED: ATOM     23  H   UNL     1      28.002 -17.017  -1.411 -0.02 -0.00    +0.000 HD
DOCKED: BRANCH  22  24
DOCKED: ATOM     24  C   UNL     1      25.997 -17.149  -0.845 -0.53 -0.00    +0.000 A 
DOCKED: ATOM     25  C   UNL     1      25.549 -18.168   0.006 -0.59 -0.00    +0.000 A 
DOCKED: ATOM     26  C   UNL     1      24.224 -18.612  -0.053 -0.46 -0.00    +0.000 A 
DOCKED: ATOM     27  C   UNL     1      23.317 -18.034  -0.958 -0.71 -0.00    +0.000 A 
DOCKED: ATOM     28  C   UNL     1      23.760 -16.989  -1.787 -0.12 -0.00    +0.000 A 
DOCKED: ATOM     29  C   UNL     1      25.085 -16.548  -1.731 -0.54 -0.00    +0.000 A 
DOCKED: BRANCH  27  30
DOCKED: ATOM     30  C   UNL     1      21.904 -18.485  -1.023 -0.80 -0.00    +0.000 C 
DOCKED: ATOM     31  N   UNL     1      21.516 -19.607  -1.822 -0.43 -0.00    +0.000 N 
DOCKED: ATOM     32  O   UNL     1      20.241 -20.059  -1.784 -2.29 -0.00    +0.000 OA
DOCKED: ATOM     33  O   UNL     1      21.022 -17.859  -0.374 -1.95 +0.00    +0.000 OA
DOCKED: ATOM     34  H   UNL     1      22.178 -20.052  -2.400 -0.59 -0.00    +0.000 HD
DOCKED: ENDBRANCH  27  30
DOCKED: ENDBRANCH  22  24
DOCKED: ENDBRANCH  19  21
DOCKED: ENDBRANCH   1  19
DOCKED: TORSDOF 9
DOCKED: TER
DOCKED: ENDMDL
________________________________________________________________________________


	BEGINNING GENETIC ALGORITHM DOCKING 93 of 100
Run: 93 Seed: 1458931850 1458700855 [ Run 93 of 100 GA/GALS ]
Beginning LAMARCKIAN GENETIC ALGORITHM (LGA), with a maximum of 2500000 energy evaluations.

Final-Value: -16.860


	FINAL GENETIC ALGORITHM DOCKED STATE
	_______________________________________________


Detailed state:  trans 29.097 -17.050 2.380 quatxyzw 0.118583 -0.814941 0.350978 0.445672 center 1.436 0.069 -0.007 ntor 9 -25.9420 179.4184 141.2505 -20.5470 -122.8214 162.2798 110.9210 33.0232 176.2620
State:	 29.097 -17.050   2.380   0.132 -0.910  0.392 127.067    -25.94  179.42  141.25  -20.55 -122.82  162.28  110.92   33.02  176.26

DOCKED: MODEL       93
DOCKED: USER    Run = 93
DOCKED: USER    DPF = ligand_dock.biased.dpf
DOCKED: USER  
DOCKED: USER    Estimated Free Energy of Binding    =  -12.64 kcal/mol  [=(1)+(2)+(3)-(4)]
DOCKED: USER    Estimated Inhibition Constant, Ki   =  542.41 pM (picomolar)  [Temperature = 298.15 K]
DOCKED: USER    
DOCKED: USER    (1) Final Intermolecular Energy     =  -15.33 kcal/mol
DOCKED: USER        vdW + Hbond + desolv Energy     =  -15.33 kcal/mol
DOCKED: USER        Electrostatic Energy            =   +0.00 kcal/mol
DOCKED: USER    (2) Final Total Internal Energy     =   -1.54 kcal/mol
DOCKED: USER    (3) Torsional Free Energy           =   +2.68 kcal/mol
DOCKED: USER    (4) Unbound System's Energy  [=(2)] =   -1.54 kcal/mol
DOCKED: USER    
DOCKED: USER    
DOCKED: USER    NEWDPF move ligand.pdbqt
DOCKED: USER    NEWDPF about 1.436000 0.069000 -0.007000
DOCKED: USER    NEWDPF tran0 29.097343 -17.050248 2.379850
DOCKED: USER    NEWDPF quaternion0 0.118583 -0.814941 0.350978 0.445672
DOCKED: USER    NEWDPF axisangle0 0.132466 -0.910349 0.392069 127.067291
DOCKED: USER    NEWDPF quat0 0.132466 -0.910349 0.392069 127.067291
DOCKED: USER    NEWDPF dihe0 -25.94 179.42 141.25 -20.55 -122.82 162.28 110.92 33.02 176.26 
DOCKED: USER  keepresnum = 1 
DOCKED: USER  
DOCKED: REMARK  Name = 
DOCKED: REMARK  11 active torsions:
DOCKED: REMARK  status: ('A' for Active; 'I' for Inactive)
DOCKED: REMARK    1  A    between atoms: C_2  and  O_3
DOCKED: REMARK    2  A    between atoms: O_3  and  C_4
DOCKED: REMARK    3  A    between atoms: C_4  and  C_5
DOCKED: REMARK    4  A    between atoms: C_10  and  C_11
DOCKED: REMARK    5  A    between atoms: C_11  and  N_12
DOCKED: REMARK    6  A    between atoms: N_12  and  C_13
DOCKED: REMARK    7  A    between atoms: N_12  and  C_15
DOCKED: REMARK    8  A    between atoms: C_13  and  C_14
DOCKED: REMARK    9  A    between atoms: C_15  and  C_16
DOCKED: REMARK   10  A    between atoms: N_21  and  C_22
DOCKED: REMARK   11  A    between atoms: C_25  and  C_26
DOCKED: REMARK                            x       y       z     vdW  Elec       q    Type
DOCKED: REMARK                         _______ _______ _______ _____ _____    ______ ____
DOCKED: USER                              x       y       z     vdW  Elec       q    Type
DOCKED: USER                           _______ _______ _______ _____ _____    ______ ____
DOCKED: ROOT
DOCKED: ATOM      1  C   UNL     1      29.585 -14.523  -0.591 -0.11 -0.00    +0.000 C 
DOCKED: ENDROOT
DOCKED: BRANCH   1   2
DOCKED: ATOM      2  C   UNL     1      29.850 -14.509   0.891 -0.12 -0.00    +0.000 A 
DOCKED: ATOM      3  C   UNL     1      30.993 -15.131   1.417 -0.11 -0.00    +0.000 A 
DOCKED: ATOM      4  C   UNL     1      31.249 -15.099   2.791 -0.19 -0.00    +0.000 A 
DOCKED: ATOM      5  C   UNL     1      30.364 -14.440   3.657 -0.26 -0.00    +0.000 A 
DOCKED: ATOM      6  C   UNL     1      30.616 -14.397   5.037 -0.06 -0.00    +0.000 A 
DOCKED: ATOM      7  C   UNL     1      29.731 -13.732   5.899 -0.31 -0.00    +0.000 A 
DOCKED: ATOM      8  C   UNL     1      28.585 -13.115   5.374 -0.39 -0.00    +0.000 A 
DOCKED: ATOM      9  C   UNL     1      28.326 -13.152   4.001 -0.33 -0.00    +0.000 A 
DOCKED: ATOM     10  C   UNL     1      29.210 -13.810   3.135 -0.23 -0.00    +0.000 A 
DOCKED: ATOM     11  C   UNL     1      28.961 -13.851   1.754 -0.17 -0.00    +0.000 A 
DOCKED: BRANCH   7  12
DOCKED: ATOM     12  C   UNL     1      30.001 -13.707   7.382 -0.30 -0.00    +0.000 C 
DOCKED: BRANCH  12  13
DOCKED: ATOM     13  N   UNL     1      29.100 -12.757   8.069 -0.39 -0.00    +0.000 N 
DOCKED: ATOM     14  H   UNL     1      28.298 -12.721   7.439 -0.03 +0.00    +0.000 HD
DOCKED: BRANCH  13  15
DOCKED: ATOM     15  C   UNL     1      28.513 -13.248   9.338 -0.44 -0.00    +0.000 C 
DOCKED: ATOM     16  C   UNL     1      29.213 -14.481   9.933 -0.50 -0.00    +0.000 C 
DOCKED: ENDBRANCH  13  15
DOCKED: BRANCH  13  17
DOCKED: ATOM     17  C   UNL     1      29.560 -11.348   8.096 -0.32 -0.00    +0.000 C 
DOCKED: ATOM     18  C   UNL     1      28.801 -10.417   7.146 -0.30 +0.00    +0.000 C 
DOCKED: ENDBRANCH  13  17
DOCKED: ENDBRANCH  12  13
DOCKED: ENDBRANCH   7  12
DOCKED: ENDBRANCH   1   2
DOCKED: BRANCH   1  19
DOCKED: ATOM     19  O   UNL     1      29.455 -15.864  -1.061 -0.17 -0.00    +0.000 OA
DOCKED: BRANCH  19  21
DOCKED: ATOM     20  O   UNL     1      27.925 -16.796  -2.519 -0.35 -0.00    +0.000 OA
DOCKED: ATOM     21  C   UNL     1      28.223 -16.466  -1.338 -0.33 -0.00    +0.000 C 
DOCKED: ATOM     22  N   UNL     1      27.322 -16.739  -0.257 -0.40 -0.00    +0.000 N 
DOCKED: ATOM     23  H   UNL     1      27.672 -16.672   0.660 -0.30 -0.00    +0.000 HD
DOCKED: BRANCH  22  24
DOCKED: ATOM     24  C   UNL     1      25.943 -17.106  -0.426 -0.50 -0.00    +0.000 A 
DOCKED: ATOM     25  C   UNL     1      25.131 -16.353  -1.285 -0.52 -0.00    +0.000 A 
DOCKED: ATOM     26  C   UNL     1      23.793 -16.705  -1.488 -0.31 -0.00    +0.000 A 
DOCKED: ATOM     27  C   UNL     1      23.244 -17.827  -0.844 -0.70 -0.00    +0.000 A 
DOCKED: ATOM     28  C   UNL     1      24.069 -18.601  -0.010 -0.48 -0.00    +0.000 A 
DOCKED: ATOM     29  C   UNL     1      25.406 -18.247   0.197 -0.51 -0.00    +0.000 A 
DOCKED: BRANCH  27  30
DOCKED: ATOM     30  C   UNL     1      21.829 -18.222  -1.060 -0.73 -0.00    +0.000 C 
DOCKED: ATOM     31  N   UNL     1      21.489 -19.475  -1.662 -0.61 -0.00    +0.000 N 
DOCKED: ATOM     32  O   UNL     1      20.193 -19.854  -1.755 -2.32 -0.00    +0.000 OA
DOCKED: ATOM     33  O   UNL     1      20.906 -17.432  -0.722 -2.02 +0.00    +0.000 OA
DOCKED: ATOM     34  H   UNL     1      22.199 -20.063  -2.009 -0.51 -0.00    +0.000 HD
DOCKED: ENDBRANCH  27  30
DOCKED: ENDBRANCH  22  24
DOCKED: ENDBRANCH  19  21
DOCKED: ENDBRANCH   1  19
DOCKED: TORSDOF 9
DOCKED: TER
DOCKED: ENDMDL
________________________________________________________________________________


	BEGINNING GENETIC ALGORITHM DOCKING 94 of 100
Run: 94 Seed: 781137301 1796735265 [ Run 94 of 100 GA/GALS ]
Beginning LAMARCKIAN GENETIC ALGORITHM (LGA), with a maximum of 2500000 energy evaluations.

Final-Value: -16.294


	FINAL GENETIC ALGORITHM DOCKED STATE
	_______________________________________________


Detailed state:  trans 29.520 -17.558 2.054 quatxyzw -0.513969 -0.711522 0.407261 -0.252410 center 1.436 0.069 -0.007 ntor 9 -159.3588 -174.8096 -76.3402 -159.8393 168.2632 4.0582 -66.0941 -136.1423 -148.0087
State:	 29.520 -17.558   2.054  -0.531 -0.735  0.421 -150.760   -159.36 -174.81  -76.34 -159.84  168.26    4.06  -66.09 -136.14 -148.01

DOCKED: MODEL       94
DOCKED: USER    Run = 94
DOCKED: USER    DPF = ligand_dock.biased.dpf
DOCKED: USER  
DOCKED: USER    Estimated Free Energy of Binding    =  -11.97 kcal/mol  [=(1)+(2)+(3)-(4)]
DOCKED: USER    Estimated Inhibition Constant, Ki   =    1.69 nM (nanomolar)  [Temperature = 298.15 K]
DOCKED: USER    
DOCKED: USER    (1) Final Intermolecular Energy     =  -14.65 kcal/mol
DOCKED: USER        vdW + Hbond + desolv Energy     =  -14.65 kcal/mol
DOCKED: USER        Electrostatic Energy            =   +0.00 kcal/mol
DOCKED: USER    (2) Final Total Internal Energy     =   -1.64 kcal/mol
DOCKED: USER    (3) Torsional Free Energy           =   +2.68 kcal/mol
DOCKED: USER    (4) Unbound System's Energy  [=(2)] =   -1.64 kcal/mol
DOCKED: USER    
DOCKED: USER    
DOCKED: USER    NEWDPF move ligand.pdbqt
DOCKED: USER    NEWDPF about 1.436000 0.069000 -0.007000
DOCKED: USER    NEWDPF tran0 29.519988 -17.558030 2.054333
DOCKED: USER    NEWDPF quaternion0 -0.513969 -0.711522 0.407261 -0.252410
DOCKED: USER    NEWDPF axisangle0 -0.531168 -0.735332 0.420889 -150.759620
DOCKED: USER    NEWDPF quat0 -0.531168 -0.735332 0.420889 -150.759620
DOCKED: USER    NEWDPF dihe0 -159.36 -174.81 -76.34 -159.84 168.26 4.06 -66.09 -136.14 -148.01 
DOCKED: USER  keepresnum = 1 
DOCKED: USER  
DOCKED: REMARK  Name = 
DOCKED: REMARK  11 active torsions:
DOCKED: REMARK  status: ('A' for Active; 'I' for Inactive)
DOCKED: REMARK    1  A    between atoms: C_2  and  O_3
DOCKED: REMARK    2  A    between atoms: O_3  and  C_4
DOCKED: REMARK    3  A    between atoms: C_4  and  C_5
DOCKED: REMARK    4  A    between atoms: C_10  and  C_11
DOCKED: REMARK    5  A    between atoms: C_11  and  N_12
DOCKED: REMARK    6  A    between atoms: N_12  and  C_13
DOCKED: REMARK    7  A    between atoms: N_12  and  C_15
DOCKED: REMARK    8  A    between atoms: C_13  and  C_14
DOCKED: REMARK    9  A    between atoms: C_15  and  C_16
DOCKED: REMARK   10  A    between atoms: N_21  and  C_22
DOCKED: REMARK   11  A    between atoms: C_25  and  C_26
DOCKED: REMARK                            x       y       z     vdW  Elec       q    Type
DOCKED: REMARK                         _______ _______ _______ _____ _____    ______ ____
DOCKED: USER                              x       y       z     vdW  Elec       q    Type
DOCKED: USER                           _______ _______ _______ _____ _____    ______ ____
DOCKED: ROOT
DOCKED: ATOM      1  C   UNL     1      31.239 -16.771  -1.392 -0.12 -0.00    +0.000 C 
DOCKED: ENDROOT
DOCKED: BRANCH   1   2
DOCKED: ATOM      2  C   UNL     1      31.364 -17.845  -0.345 -0.15 -0.00    +0.000 A 
DOCKED: ATOM      3  C   UNL     1      31.041 -19.177  -0.648 -0.16 -0.00    +0.000 A 
DOCKED: ATOM      4  C   UNL     1      31.179 -20.177   0.319 -0.09 -0.00    +0.000 A 
DOCKED: ATOM      5  C   UNL     1      31.646 -19.857   1.602 -0.05 -0.00    +0.000 A 
DOCKED: ATOM      6  C   UNL     1      31.792 -20.855   2.577 -0.28 -0.00    +0.000 A 
DOCKED: ATOM      7  C   UNL     1      32.265 -20.532   3.858 -0.39 -0.00    +0.000 A 
DOCKED: ATOM      8  C   UNL     1      32.584 -19.199   4.163 -0.34 -0.00    +0.000 A 
DOCKED: ATOM      9  C   UNL     1      32.441 -18.199   3.198 -0.29 -0.00    +0.000 A 
DOCKED: ATOM     10  C   UNL     1      31.974 -18.517   1.915 -0.11 -0.00    +0.000 A 
DOCKED: ATOM     11  C   UNL     1      31.830 -17.520   0.939 -0.13 -0.00    +0.000 A 
DOCKED: BRANCH   7  12
DOCKED: ATOM     12  C   UNL     1      32.403 -21.609   4.903 -0.53 -0.00    +0.000 C 
DOCKED: BRANCH  12  13
DOCKED: ATOM     13  N   UNL     1      33.810 -22.050   5.027 -0.32 -0.00    +0.000 N 
DOCKED: ATOM     14  H   UNL     1      33.766 -23.015   4.698 -0.37 -0.00    +0.000 HD
DOCKED: BRANCH  13  15
DOCKED: ATOM     15  C   UNL     1      34.758 -21.412   4.083 -0.18 -0.00    +0.000 C 
DOCKED: ATOM     16  C   UNL     1      35.439 -22.384   3.106 -0.10 -0.00    +0.000 C 
DOCKED: ENDBRANCH  13  15
DOCKED: BRANCH  13  17
DOCKED: ATOM     17  C   UNL     1      34.312 -22.197   6.415 -0.44 -0.00    +0.000 C 
DOCKED: ATOM     18  C   UNL     1      34.598 -23.642   6.832 -0.54 -0.00    +0.000 C 
DOCKED: ENDBRANCH  13  17
DOCKED: ENDBRANCH  12  13
DOCKED: ENDBRANCH   7  12
DOCKED: ENDBRANCH   1   2
DOCKED: BRANCH   1  19
DOCKED: ATOM     19  O   UNL     1      29.988 -16.095  -1.265 -0.15 -0.00    +0.000 OA
DOCKED: BRANCH  19  21
DOCKED: ATOM     20  O   UNL     1      28.484 -17.137  -2.676 -0.28 -0.00    +0.000 OA
DOCKED: ATOM     21  C   UNL     1      28.755 -16.705  -1.521 -0.30 -0.00    +0.000 C 
DOCKED: ATOM     22  N   UNL     1      27.823 -16.871  -0.445 -0.37 -0.00    +0.000 N 
DOCKED: ATOM     23  H   UNL     1      28.149 -16.726   0.472 -0.36 -0.00    +0.000 HD
DOCKED: BRANCH  22  24
DOCKED: ATOM     24  C   UNL     1      26.443 -17.236  -0.618 -0.51 -0.00    +0.000 A 
DOCKED: ATOM     25  C   UNL     1      25.773 -17.904   0.415 -0.26 -0.00    +0.000 A 
DOCKED: ATOM     26  C   UNL     1      24.423 -18.245   0.284 -0.44 -0.00    +0.000 A 
DOCKED: ATOM     27  C   UNL     1      23.713 -17.912  -0.883 -0.70 -0.00    +0.000 A 
DOCKED: ATOM     28  C   UNL     1      24.378 -17.211  -1.904 -0.50 -0.00    +0.000 A 
DOCKED: ATOM     29  C   UNL     1      25.729 -16.874  -1.775 -0.51 -0.00    +0.000 A 
DOCKED: BRANCH  27  30
DOCKED: ATOM     30  C   UNL     1      22.277 -18.255  -1.032 -0.79 -0.00    +0.000 C 
DOCKED: ATOM     31  N   UNL     1      21.857 -19.387  -1.800 -0.56 -0.00    +0.000 N 
DOCKED: ATOM     32  O   UNL     1      20.550 -19.736  -1.837 -2.16 -0.00    +0.000 OA
DOCKED: ATOM     33  O   UNL     1      21.405 -17.526  -0.484 -1.65 -0.00    +0.000 OA
DOCKED: ATOM     34  H   UNL     1      22.520 -19.914  -2.303 -0.52 -0.00    +0.000 HD
DOCKED: ENDBRANCH  27  30
DOCKED: ENDBRANCH  22  24
DOCKED: ENDBRANCH  19  21
DOCKED: ENDBRANCH   1  19
DOCKED: TORSDOF 9
DOCKED: TER
DOCKED: ENDMDL
________________________________________________________________________________


	BEGINNING GENETIC ALGORITHM DOCKING 95 of 100
Run: 95 Seed: 1699699794 1814005642 [ Run 95 of 100 GA/GALS ]
Beginning LAMARCKIAN GENETIC ALGORITHM (LGA), with a maximum of 2500000 energy evaluations.

Final-Value: -16.060


	FINAL GENETIC ALGORITHM DOCKED STATE
	_______________________________________________


Detailed state:  trans 26.142 -12.857 -1.149 quatxyzw -0.455866 0.211322 -0.800394 -0.326952 center 1.436 0.069 -0.007 ntor 9 -113.7881 123.3964 -46.2604 -55.1878 -45.5339 -49.5714 158.4080 33.6278 -173.5869
State:	 26.142 -12.857  -1.149  -0.482  0.224 -0.847 -141.832   -113.79  123.40  -46.26  -55.19  -45.53  -49.57  158.41   33.63 -173.59

DOCKED: MODEL       95
DOCKED: USER    Run = 95
DOCKED: USER    DPF = ligand_dock.biased.dpf
DOCKED: USER  
DOCKED: USER    Estimated Free Energy of Binding    =  -11.67 kcal/mol  [=(1)+(2)+(3)-(4)]
DOCKED: USER    Estimated Inhibition Constant, Ki   =    2.77 nM (nanomolar)  [Temperature = 298.15 K]
DOCKED: USER    
DOCKED: USER    (1) Final Intermolecular Energy     =  -14.36 kcal/mol
DOCKED: USER        vdW + Hbond + desolv Energy     =  -14.36 kcal/mol
DOCKED: USER        Electrostatic Energy            =   +0.00 kcal/mol
DOCKED: USER    (2) Final Total Internal Energy     =   -1.70 kcal/mol
DOCKED: USER    (3) Torsional Free Energy           =   +2.68 kcal/mol
DOCKED: USER    (4) Unbound System's Energy  [=(2)] =   -1.70 kcal/mol
DOCKED: USER    
DOCKED: USER    
DOCKED: USER    NEWDPF move ligand.pdbqt
DOCKED: USER    NEWDPF about 1.436000 0.069000 -0.007000
DOCKED: USER    NEWDPF tran0 26.141788 -12.856697 -1.148742
DOCKED: USER    NEWDPF quaternion0 -0.455866 0.211322 -0.800394 -0.326952
DOCKED: USER    NEWDPF axisangle0 -0.482377 0.223612 -0.846941 -141.832273
DOCKED: USER    NEWDPF quat0 -0.482377 0.223612 -0.846941 -141.832273
DOCKED: USER    NEWDPF dihe0 -113.79 123.40 -46.26 -55.19 -45.53 -49.57 158.41 33.63 -173.59 
DOCKED: USER  keepresnum = 1 
DOCKED: USER  
DOCKED: REMARK  Name = 
DOCKED: REMARK  11 active torsions:
DOCKED: REMARK  status: ('A' for Active; 'I' for Inactive)
DOCKED: REMARK    1  A    between atoms: C_2  and  O_3
DOCKED: REMARK    2  A    between atoms: O_3  and  C_4
DOCKED: REMARK    3  A    between atoms: C_4  and  C_5
DOCKED: REMARK    4  A    between atoms: C_10  and  C_11
DOCKED: REMARK    5  A    between atoms: C_11  and  N_12
DOCKED: REMARK    6  A    between atoms: N_12  and  C_13
DOCKED: REMARK    7  A    between atoms: N_12  and  C_15
DOCKED: REMARK    8  A    between atoms: C_13  and  C_14
DOCKED: REMARK    9  A    between atoms: C_15  and  C_16
DOCKED: REMARK   10  A    between atoms: N_21  and  C_22
DOCKED: REMARK   11  A    between atoms: C_25  and  C_26
DOCKED: REMARK                            x       y       z     vdW  Elec       q    Type
DOCKED: REMARK                         _______ _______ _______ _____ _____    ______ ____
DOCKED: USER                              x       y       z     vdW  Elec       q    Type
DOCKED: USER                           _______ _______ _______ _____ _____    ______ ____
DOCKED: ROOT
DOCKED: ATOM      1  C   UNL     1      27.542 -15.840  -3.290 -0.30 -0.00    +0.000 C 
DOCKED: ENDROOT
DOCKED: BRANCH   1   2
DOCKED: ATOM      2  C   UNL     1      27.358 -14.361  -3.494 -0.26 -0.00    +0.000 A 
DOCKED: ATOM      3  C   UNL     1      28.379 -13.461  -3.150 -0.11 -0.00    +0.000 A 
DOCKED: ATOM      4  C   UNL     1      28.215 -12.089  -3.360 -0.09 -0.00    +0.000 A 
DOCKED: ATOM      5  C   UNL     1      27.027 -11.599  -3.921 -0.16 -0.00    +0.000 A 
DOCKED: ATOM      6  C   UNL     1      26.855 -10.224  -4.140 -0.12 -0.00    +0.000 A 
DOCKED: ATOM      7  C   UNL     1      25.667  -9.738  -4.707 -0.22 -0.00    +0.000 A 
DOCKED: ATOM      8  C   UNL     1      24.644 -10.637  -5.046 -0.37 -0.00    +0.000 A 
DOCKED: ATOM      9  C   UNL     1      24.806 -12.008  -4.831 -0.25 -0.00    +0.000 A 
DOCKED: ATOM     10  C   UNL     1      25.993 -12.499  -4.270 -0.29 -0.00    +0.000 A 
DOCKED: ATOM     11  C   UNL     1      26.166 -13.874  -4.053 -0.40 -0.00    +0.000 A 
DOCKED: BRANCH   7  12
DOCKED: ATOM     12  C   UNL     1      25.486  -8.258  -4.923 -0.17 -0.00    +0.000 C 
DOCKED: BRANCH  12  13
DOCKED: ATOM     13  N   UNL     1      24.421  -7.720  -4.049 -0.22 -0.00    +0.000 N 
DOCKED: ATOM     14  H   UNL     1      24.007  -8.568  -3.661 -0.56 -0.00    +0.000 HD
DOCKED: BRANCH  13  15
DOCKED: ATOM     15  C   UNL     1      24.895  -6.994  -2.847 -0.14 -0.00    +0.000 C 
DOCKED: ATOM     16  C   UNL     1      25.504  -7.889  -1.756 -0.22 -0.00    +0.000 C 
DOCKED: ENDBRANCH  13  15
DOCKED: BRANCH  13  17
DOCKED: ATOM     17  C   UNL     1      23.278  -7.088  -4.752 -0.30 -0.00    +0.000 C 
DOCKED: ATOM     18  C   UNL     1      22.677  -7.941  -5.872 -0.45 -0.00    +0.000 C 
DOCKED: ENDBRANCH  13  17
DOCKED: ENDBRANCH  12  13
DOCKED: ENDBRANCH   7  12
DOCKED: ENDBRANCH   1   2
DOCKED: BRANCH   1  19
DOCKED: ATOM     19  O   UNL     1      27.526 -16.158  -1.899 -0.34 -0.00    +0.000 OA
DOCKED: BRANCH  19  21
DOCKED: ATOM     20  O   UNL     1      26.558 -17.288  -0.132 -0.58 -0.00    +0.000 OA
DOCKED: ATOM     21  C   UNL     1      26.421 -16.721  -1.251 -0.51 -0.00    +0.000 C 
DOCKED: ATOM     22  N   UNL     1      25.127 -16.607  -1.855 -0.55 -0.00    +0.000 N 
DOCKED: ATOM     23  H   UNL     1      25.023 -15.978  -2.604 -0.03 -0.00    +0.000 HD
DOCKED: BRANCH  22  24
DOCKED: ATOM     24  C   UNL     1      23.970 -17.352  -1.437 -0.62 -0.00    +0.000 A 
DOCKED: ATOM     25  C   UNL     1      23.020 -16.740  -0.609 -0.34 -0.00    +0.000 A 
DOCKED: ATOM     26  C   UNL     1      21.872 -17.432  -0.210 -0.41 -0.00    +0.000 A 
DOCKED: ATOM     27  C   UNL     1      21.647 -18.750  -0.645 -0.77 -0.00    +0.000 A 
DOCKED: ATOM     28  C   UNL     1      22.584 -19.350  -1.504 -0.48 -0.00    +0.000 A 
DOCKED: ATOM     29  C   UNL     1      23.734 -18.659  -1.899 -0.39 -0.00    +0.000 A 
DOCKED: BRANCH  27  30
DOCKED: ATOM     30  C   UNL     1      20.427 -19.493  -0.243 -0.86 -0.00    +0.000 C 
DOCKED: ATOM     31  N   UNL     1      20.241 -19.948   1.102 -0.68 -0.00    +0.000 N 
DOCKED: ATOM     32  O   UNL     1      19.076 -20.533   1.466 -0.74 -0.00    +0.000 OA
DOCKED: ATOM     33  O   UNL     1      19.540 -19.745  -1.104 -1.91 -0.00    +0.000 OA
DOCKED: ATOM     34  H   UNL     1      20.961 -19.834   1.764 -0.52 -0.00    +0.000 HD
DOCKED: ENDBRANCH  27  30
DOCKED: ENDBRANCH  22  24
DOCKED: ENDBRANCH  19  21
DOCKED: ENDBRANCH   1  19
DOCKED: TORSDOF 9
DOCKED: TER
DOCKED: ENDMDL
________________________________________________________________________________


	BEGINNING GENETIC ALGORITHM DOCKING 96 of 100
Run: 96 Seed: 330668640 121708738 [ Run 96 of 100 GA/GALS ]
Beginning LAMARCKIAN GENETIC ALGORITHM (LGA), with a maximum of 2500000 energy evaluations.

Final-Value: -15.125


	FINAL GENETIC ALGORITHM DOCKED STATE
	_______________________________________________


Detailed state:  trans 26.443 -13.797 -1.994 quatxyzw 0.106717 0.028799 0.771392 0.626687 center 1.436 0.069 -0.007 ntor 9 -147.2557 -172.3725 144.9811 171.0485 -29.4814 171.6022 11.8991 -6.9521 178.5913
State:	 26.443 -13.797  -1.994   0.137  0.037  0.990 102.388   -147.26 -172.37  144.98  171.05  -29.48  171.60   11.90   -6.95  178.59

DOCKED: MODEL       96
DOCKED: USER    Run = 96
DOCKED: USER    DPF = ligand_dock.biased.dpf
DOCKED: USER  
DOCKED: USER    Estimated Free Energy of Binding    =  -10.86 kcal/mol  [=(1)+(2)+(3)-(4)]
DOCKED: USER    Estimated Inhibition Constant, Ki   =   10.89 nM (nanomolar)  [Temperature = 298.15 K]
DOCKED: USER    
DOCKED: USER    (1) Final Intermolecular Energy     =  -13.55 kcal/mol
DOCKED: USER        vdW + Hbond + desolv Energy     =  -13.55 kcal/mol
DOCKED: USER        Electrostatic Energy            =   +0.00 kcal/mol
DOCKED: USER    (2) Final Total Internal Energy     =   -1.58 kcal/mol
DOCKED: USER    (3) Torsional Free Energy           =   +2.68 kcal/mol
DOCKED: USER    (4) Unbound System's Energy  [=(2)] =   -1.58 kcal/mol
DOCKED: USER    
DOCKED: USER    
DOCKED: USER    NEWDPF move ligand.pdbqt
DOCKED: USER    NEWDPF about 1.436000 0.069000 -0.007000
DOCKED: USER    NEWDPF tran0 26.443109 -13.797240 -1.993947
DOCKED: USER    NEWDPF quaternion0 0.106717 0.028799 0.771392 0.626687
DOCKED: USER    NEWDPF axisangle0 0.136944 0.036957 0.989889 102.387814
DOCKED: USER    NEWDPF quat0 0.136944 0.036957 0.989889 102.387814
DOCKED: USER    NEWDPF dihe0 -147.26 -172.37 144.98 171.05 -29.48 171.60 11.90 -6.95 178.59 
DOCKED: USER  keepresnum = 1 
DOCKED: USER  
DOCKED: REMARK  Name = 
DOCKED: REMARK  11 active torsions:
DOCKED: REMARK  status: ('A' for Active; 'I' for Inactive)
DOCKED: REMARK    1  A    between atoms: C_2  and  O_3
DOCKED: REMARK    2  A    between atoms: O_3  and  C_4
DOCKED: REMARK    3  A    between atoms: C_4  and  C_5
DOCKED: REMARK    4  A    between atoms: C_10  and  C_11
DOCKED: REMARK    5  A    between atoms: C_11  and  N_12
DOCKED: REMARK    6  A    between atoms: N_12  and  C_13
DOCKED: REMARK    7  A    between atoms: N_12  and  C_15
DOCKED: REMARK    8  A    between atoms: C_13  and  C_14
DOCKED: REMARK    9  A    between atoms: C_15  and  C_16
DOCKED: REMARK   10  A    between atoms: N_21  and  C_22
DOCKED: REMARK   11  A    between atoms: C_25  and  C_26
DOCKED: REMARK                            x       y       z     vdW  Elec       q    Type
DOCKED: REMARK                         _______ _______ _______ _____ _____    ______ ____
DOCKED: USER                              x       y       z     vdW  Elec       q    Type
DOCKED: USER                           _______ _______ _______ _____ _____    ______ ____
DOCKED: ROOT
DOCKED: ATOM      1  C   UNL     1      30.211 -14.917  -2.004 -0.07 -0.00    +0.000 C 
DOCKED: ENDROOT
DOCKED: BRANCH   1   2
DOCKED: ATOM      2  C   UNL     1      29.447 -13.701  -2.453 -0.05 -0.00    +0.000 A 
DOCKED: ATOM      3  C   UNL     1      29.099 -12.697  -1.535 -0.05 -0.00    +0.000 A 
DOCKED: ATOM      4  C   UNL     1      28.408 -11.559  -1.959 -0.06 -0.00    +0.000 A 
DOCKED: ATOM      5  C   UNL     1      28.058 -11.407  -3.308 -0.08 -0.00    +0.000 A 
DOCKED: ATOM      6  C   UNL     1      27.369 -10.264  -3.743 -0.09 -0.00    +0.000 A 
DOCKED: ATOM      7  C   UNL     1      27.027 -10.114  -5.095 -0.11 -0.00    +0.000 A 
DOCKED: ATOM      8  C   UNL     1      27.370 -11.120  -6.013 -0.14 -0.00    +0.000 A 
DOCKED: ATOM      9  C   UNL     1      28.056 -12.261  -5.589 -0.15 -0.00    +0.000 A 
DOCKED: ATOM     10  C   UNL     1      28.405 -12.413  -4.240 -0.10 -0.00    +0.000 A 
DOCKED: ATOM     11  C   UNL     1      29.097 -13.554  -3.805 -0.09 -0.00    +0.000 A 
DOCKED: BRANCH   7  12
DOCKED: ATOM     12  C   UNL     1      26.272  -8.891  -5.549 -0.12 -0.00    +0.000 C 
DOCKED: BRANCH  12  13
DOCKED: ATOM     13  N   UNL     1      24.822  -9.166  -5.641 -0.25 -0.00    +0.000 N 
DOCKED: ATOM     14  H   UNL     1      24.548  -8.626  -6.462 +0.00 -0.00    +0.000 HD
DOCKED: BRANCH  13  15
DOCKED: ATOM     15  C   UNL     1      24.465 -10.555  -6.014 -0.44 -0.00    +0.000 C 
DOCKED: ATOM     16  C   UNL     1      23.968 -10.723  -7.460 -0.37 -0.00    +0.000 C 
DOCKED: ENDBRANCH  13  15
DOCKED: BRANCH  13  17
DOCKED: ATOM     17  C   UNL     1      23.991  -8.574  -4.565 -0.28 -0.00    +0.000 C 
DOCKED: ATOM     18  C   UNL     1      23.014  -7.497  -5.043 -0.38 -0.00    +0.000 C 
DOCKED: ENDBRANCH  13  17
DOCKED: ENDBRANCH  12  13
DOCKED: ENDBRANCH   7  12
DOCKED: ENDBRANCH   1   2
DOCKED: BRANCH   1  19
DOCKED: ATOM     19  O   UNL     1      29.446 -15.666  -1.061 -0.16 -0.00    +0.000 OA
DOCKED: BRANCH  19  21
DOCKED: ATOM     20  O   UNL     1      27.845 -16.386  -2.564 -0.34 -0.00    +0.000 OA
DOCKED: ATOM     21  C   UNL     1      28.210 -16.249  -1.363 -0.32 -0.00    +0.000 C 
DOCKED: ATOM     22  N   UNL     1      27.384 -16.727  -0.294 -0.39 -0.00    +0.000 N 
DOCKED: ATOM     23  H   UNL     1      27.789 -16.804   0.600 -0.32 -0.00    +0.000 HD
DOCKED: BRANCH  22  24
DOCKED: ATOM     24  C   UNL     1      26.004 -17.100  -0.441 -0.50 -0.00    +0.000 A 
DOCKED: ATOM     25  C   UNL     1      25.171 -16.342  -1.275 -0.51 -0.00    +0.000 A 
DOCKED: ATOM     26  C   UNL     1      23.832 -16.700  -1.458 -0.36 -0.00    +0.000 A 
DOCKED: ATOM     27  C   UNL     1      23.302 -17.834  -0.818 -0.71 -0.00    +0.000 A 
DOCKED: ATOM     28  C   UNL     1      24.148 -18.613  -0.010 -0.45 -0.00    +0.000 A 
DOCKED: ATOM     29  C   UNL     1      25.486 -18.253   0.177 -0.52 -0.00    +0.000 A 
DOCKED: BRANCH  27  30
DOCKED: ATOM     30  C   UNL     1      21.887 -18.235  -1.013 -0.76 -0.00    +0.000 C 
DOCKED: ATOM     31  N   UNL     1      21.542 -19.516  -1.552 -0.62 -0.00    +0.000 N 
DOCKED: ATOM     32  O   UNL     1      20.246 -19.896  -1.625 -2.27 -0.00    +0.000 OA
DOCKED: ATOM     33  O   UNL     1      20.966 -17.427  -0.712 -2.02 +0.00    +0.000 OA
DOCKED: ATOM     34  H   UNL     1      22.250 -20.122  -1.871 -0.48 -0.00    +0.000 HD
DOCKED: ENDBRANCH  27  30
DOCKED: ENDBRANCH  22  24
DOCKED: ENDBRANCH  19  21
DOCKED: ENDBRANCH   1  19
DOCKED: TORSDOF 9
DOCKED: TER
DOCKED: ENDMDL
________________________________________________________________________________


	BEGINNING GENETIC ALGORITHM DOCKING 97 of 100
Run: 97 Seed: 1468883542 1424027063 [ Run 97 of 100 GA/GALS ]
Beginning LAMARCKIAN GENETIC ALGORITHM (LGA), with a maximum of 2500000 energy evaluations.

Final-Value: -16.767


	FINAL GENETIC ALGORITHM DOCKED STATE
	_______________________________________________


Detailed state:  trans 28.221 -16.494 2.695 quatxyzw -0.032818 0.732578 -0.507705 -0.452203 center 1.436 0.069 -0.007 ntor 9 -90.0010 95.8434 110.1096 -63.2145 112.0761 -140.0270 62.4395 33.6957 -139.6187
State:	 28.221 -16.494   2.695  -0.037  0.821 -0.569 -126.230    -90.00   95.84  110.11  -63.21  112.08 -140.03   62.44   33.70 -139.62

DOCKED: MODEL       97
DOCKED: USER    Run = 97
DOCKED: USER    DPF = ligand_dock.biased.dpf
DOCKED: USER  
DOCKED: USER    Estimated Free Energy of Binding    =  -12.60 kcal/mol  [=(1)+(2)+(3)-(4)]
DOCKED: USER    Estimated Inhibition Constant, Ki   =  579.08 pM (picomolar)  [Temperature = 298.15 K]
DOCKED: USER    
DOCKED: USER    (1) Final Intermolecular Energy     =  -15.29 kcal/mol
DOCKED: USER        vdW + Hbond + desolv Energy     =  -15.29 kcal/mol
DOCKED: USER        Electrostatic Energy            =   +0.00 kcal/mol
DOCKED: USER    (2) Final Total Internal Energy     =   -1.48 kcal/mol
DOCKED: USER    (3) Torsional Free Energy           =   +2.68 kcal/mol
DOCKED: USER    (4) Unbound System's Energy  [=(2)] =   -1.48 kcal/mol
DOCKED: USER    
DOCKED: USER    
DOCKED: USER    NEWDPF move ligand.pdbqt
DOCKED: USER    NEWDPF about 1.436000 0.069000 -0.007000
DOCKED: USER    NEWDPF tran0 28.221447 -16.494293 2.695386
DOCKED: USER    NEWDPF quaternion0 -0.032818 0.732578 -0.507705 -0.452203
DOCKED: USER    NEWDPF axisangle0 -0.036795 0.821354 -0.569231 -126.229827
DOCKED: USER    NEWDPF quat0 -0.036795 0.821354 -0.569231 -126.229827
DOCKED: USER    NEWDPF dihe0 -90.00 95.84 110.11 -63.21 112.08 -140.03 62.44 33.70 -139.62 
DOCKED: USER  keepresnum = 1 
DOCKED: USER  
DOCKED: REMARK  Name = 
DOCKED: REMARK  11 active torsions:
DOCKED: REMARK  status: ('A' for Active; 'I' for Inactive)
DOCKED: REMARK    1  A    between atoms: C_2  and  O_3
DOCKED: REMARK    2  A    between atoms: O_3  and  C_4
DOCKED: REMARK    3  A    between atoms: C_4  and  C_5
DOCKED: REMARK    4  A    between atoms: C_10  and  C_11
DOCKED: REMARK    5  A    between atoms: C_11  and  N_12
DOCKED: REMARK    6  A    between atoms: N_12  and  C_13
DOCKED: REMARK    7  A    between atoms: N_12  and  C_15
DOCKED: REMARK    8  A    between atoms: C_13  and  C_14
DOCKED: REMARK    9  A    between atoms: C_15  and  C_16
DOCKED: REMARK   10  A    between atoms: N_21  and  C_22
DOCKED: REMARK   11  A    between atoms: C_25  and  C_26
DOCKED: REMARK                            x       y       z     vdW  Elec       q    Type
DOCKED: REMARK                         _______ _______ _______ _____ _____    ______ ____
DOCKED: USER                              x       y       z     vdW  Elec       q    Type
DOCKED: USER                           _______ _______ _______ _____ _____    ______ ____
DOCKED: ROOT
DOCKED: ATOM      1  C   UNL     1      29.811 -14.985  -0.567 -0.12 -0.00    +0.000 C 
DOCKED: ENDROOT
DOCKED: BRANCH   1   2
DOCKED: ATOM      2  C   UNL     1      29.848 -14.657   0.901 -0.12 -0.00    +0.000 A 
DOCKED: ATOM      3  C   UNL     1      31.073 -14.569   1.582 -0.10 -0.00    +0.000 A 
DOCKED: ATOM      4  C   UNL     1      31.106 -14.243   2.941 -0.16 -0.00    +0.000 A 
DOCKED: ATOM      5  C   UNL     1      29.913 -13.996   3.636 -0.25 -0.00    +0.000 A 
DOCKED: ATOM      6  C   UNL     1      29.938 -13.663   4.999 -0.29 -0.00    +0.000 A 
DOCKED: ATOM      7  C   UNL     1      28.742 -13.412   5.689 -0.40 -0.00    +0.000 A 
DOCKED: ATOM      8  C   UNL     1      27.517 -13.505   5.010 -0.42 -0.00    +0.000 A 
DOCKED: ATOM      9  C   UNL     1      27.483 -13.837   3.653 -0.43 -0.00    +0.000 A 
DOCKED: ATOM     10  C   UNL     1      28.675 -14.083   2.957 -0.28 -0.00    +0.000 A 
DOCKED: ATOM     11  C   UNL     1      28.652 -14.414   1.594 -0.18 -0.00    +0.000 A 
DOCKED: BRANCH   7  12
DOCKED: ATOM     12  C   UNL     1      28.778 -13.071   7.157 -0.38 -0.00    +0.000 C 
DOCKED: BRANCH  12  13
DOCKED: ATOM     13  N   UNL     1      29.844 -12.087   7.447 -0.25 -0.00    +0.000 N 
DOCKED: ATOM     14  H   UNL     1      30.433 -12.151   6.616 +0.00 -0.00    +0.000 HD
DOCKED: BRANCH  13  15
DOCKED: ATOM     15  C   UNL     1      29.411 -10.669   7.447 -0.29 +0.00    +0.000 C 
DOCKED: ATOM     16  C   UNL     1      28.568 -10.256   6.229 -0.32 +0.00    +0.000 C 
DOCKED: ENDBRANCH  13  15
DOCKED: BRANCH  13  17
DOCKED: ATOM     17  C   UNL     1      30.774 -12.458   8.540 -0.23 -0.00    +0.000 C 
DOCKED: ATOM     18  C   UNL     1      30.844 -13.960   8.827 -0.33 -0.00    +0.000 C 
DOCKED: ENDBRANCH  13  17
DOCKED: ENDBRANCH  12  13
DOCKED: ENDBRANCH   7  12
DOCKED: ENDBRANCH   1   2
DOCKED: BRANCH   1  19
DOCKED: ATOM     19  O   UNL     1      29.393 -16.335  -0.766 -0.24 -0.00    +0.000 OA
DOCKED: BRANCH  19  21
DOCKED: ATOM     20  O   UNL     1      27.688 -16.369  -2.324 -0.35 -0.00    +0.000 OA
DOCKED: ATOM     21  C   UNL     1      28.103 -16.688  -1.175 -0.36 -0.00    +0.000 C 
DOCKED: ATOM     22  N   UNL     1      27.274 -17.451  -0.288 -0.47 -0.00    +0.000 N 
DOCKED: ATOM     23  H   UNL     1      27.700 -17.864   0.497 -0.40 -0.00    +0.000 HD
DOCKED: BRANCH  22  24
DOCKED: ATOM     24  C   UNL     1      25.863 -17.652  -0.471 -0.57 -0.00    +0.000 A 
DOCKED: ATOM     25  C   UNL     1      25.260 -17.249  -1.670 -0.56 -0.00    +0.000 A 
DOCKED: ATOM     26  C   UNL     1      23.894 -17.458  -1.885 -0.30 -0.00    +0.000 A 
DOCKED: ATOM     27  C   UNL     1      23.106 -18.089  -0.906 -0.72 -0.00    +0.000 A 
DOCKED: ATOM     28  C   UNL     1      23.720 -18.524   0.281 -0.33 -0.00    +0.000 A 
DOCKED: ATOM     29  C   UNL     1      25.084 -18.310   0.498 -0.12 -0.00    +0.000 A 
DOCKED: BRANCH  27  30
DOCKED: ATOM     30  C   UNL     1      21.658 -18.331  -1.124 -0.65 -0.00    +0.000 C 
DOCKED: ATOM     31  N   UNL     1      21.193 -19.498  -1.810 -0.63 -0.00    +0.000 N 
DOCKED: ATOM     32  O   UNL     1      19.866 -19.745  -1.906 -2.37 -0.00    +0.000 OA
DOCKED: ATOM     33  O   UNL     1      20.818 -17.485  -0.711 -2.08 +0.00    +0.000 OA
DOCKED: ATOM     34  H   UNL     1      21.839 -20.123  -2.212 -0.58 -0.00    +0.000 HD
DOCKED: ENDBRANCH  27  30
DOCKED: ENDBRANCH  22  24
DOCKED: ENDBRANCH  19  21
DOCKED: ENDBRANCH   1  19
DOCKED: TORSDOF 9
DOCKED: TER
DOCKED: ENDMDL
________________________________________________________________________________


	BEGINNING GENETIC ALGORITHM DOCKING 98 of 100
Run: 98 Seed: 931987609 1813513367 [ Run 98 of 100 GA/GALS ]
Beginning LAMARCKIAN GENETIC ALGORITHM (LGA), with a maximum of 2500000 energy evaluations.

Final-Value: -16.901


	FINAL GENETIC ALGORITHM DOCKED STATE
	_______________________________________________


Detailed state:  trans 28.320 -16.701 2.229 quatxyzw -0.040880 0.736031 -0.473910 -0.481661 center 1.436 0.069 -0.007 ntor 9 -40.4845 -150.8864 -180.0000 93.0907 135.4234 146.7179 81.5692 25.2005 -146.1556
State:	 28.320 -16.701   2.229  -0.047  0.840 -0.541 -122.412    -40.48 -150.89 -180.00   93.09  135.42  146.72   81.57   25.20 -146.16

DOCKED: MODEL       98
DOCKED: USER    Run = 98
DOCKED: USER    DPF = ligand_dock.biased.dpf
DOCKED: USER  
DOCKED: USER    Estimated Free Energy of Binding    =  -12.37 kcal/mol  [=(1)+(2)+(3)-(4)]
DOCKED: USER    Estimated Inhibition Constant, Ki   =  860.03 pM (picomolar)  [Temperature = 298.15 K]
DOCKED: USER    
DOCKED: USER    (1) Final Intermolecular Energy     =  -15.05 kcal/mol
DOCKED: USER        vdW + Hbond + desolv Energy     =  -15.05 kcal/mol
DOCKED: USER        Electrostatic Energy            =   +0.00 kcal/mol
DOCKED: USER    (2) Final Total Internal Energy     =   -1.85 kcal/mol
DOCKED: USER    (3) Torsional Free Energy           =   +2.68 kcal/mol
DOCKED: USER    (4) Unbound System's Energy  [=(2)] =   -1.85 kcal/mol
DOCKED: USER    
DOCKED: USER    
DOCKED: USER    NEWDPF move ligand.pdbqt
DOCKED: USER    NEWDPF about 1.436000 0.069000 -0.007000
DOCKED: USER    NEWDPF tran0 28.320091 -16.700647 2.228854
DOCKED: USER    NEWDPF quaternion0 -0.040880 0.736031 -0.473910 -0.481661
DOCKED: USER    NEWDPF axisangle0 -0.046648 0.839875 -0.540772 -122.412155
DOCKED: USER    NEWDPF quat0 -0.046648 0.839875 -0.540772 -122.412155
DOCKED: USER    NEWDPF dihe0 -40.48 -150.89 -180.00 93.09 135.42 146.72 81.57 25.20 -146.16 
DOCKED: USER  keepresnum = 1 
DOCKED: USER  
DOCKED: REMARK  Name = 
DOCKED: REMARK  11 active torsions:
DOCKED: REMARK  status: ('A' for Active; 'I' for Inactive)
DOCKED: REMARK    1  A    between atoms: C_2  and  O_3
DOCKED: REMARK    2  A    between atoms: O_3  and  C_4
DOCKED: REMARK    3  A    between atoms: C_4  and  C_5
DOCKED: REMARK    4  A    between atoms: C_10  and  C_11
DOCKED: REMARK    5  A    between atoms: C_11  and  N_12
DOCKED: REMARK    6  A    between atoms: N_12  and  C_13
DOCKED: REMARK    7  A    between atoms: N_12  and  C_15
DOCKED: REMARK    8  A    between atoms: C_13  and  C_14
DOCKED: REMARK    9  A    between atoms: C_15  and  C_16
DOCKED: REMARK   10  A    between atoms: N_21  and  C_22
DOCKED: REMARK   11  A    between atoms: C_25  and  C_26
DOCKED: REMARK                            x       y       z     vdW  Elec       q    Type
DOCKED: REMARK                         _______ _______ _______ _____ _____    ______ ____
DOCKED: USER                              x       y       z     vdW  Elec       q    Type
DOCKED: USER                           _______ _______ _______ _____ _____    ______ ____
DOCKED: ROOT
DOCKED: ATOM      1  C   UNL     1      29.887 -14.925  -0.908 -0.10 -0.00    +0.000 C 
DOCKED: ENDROOT
DOCKED: BRANCH   1   2
DOCKED: ATOM      2  C   UNL     1      29.858 -14.667   0.574 -0.12 -0.00    +0.000 A 
DOCKED: ATOM      3  C   UNL     1      31.048 -14.661   1.320 -0.10 -0.00    +0.000 A 
DOCKED: ATOM      4  C   UNL     1      31.022 -14.399   2.692 -0.16 -0.00    +0.000 A 
DOCKED: ATOM      5  C   UNL     1      29.804 -14.137   3.337 -0.24 -0.00    +0.000 A 
DOCKED: ATOM      6  C   UNL     1      29.769 -13.868   4.714 -0.31 -0.00    +0.000 A 
DOCKED: ATOM      7  C   UNL     1      28.550 -13.601   5.354 -0.43 -0.00    +0.000 A 
DOCKED: ATOM      8  C   UNL     1      27.360 -13.612   4.610 -0.44 -0.00    +0.000 A 
DOCKED: ATOM      9  C   UNL     1      27.385 -13.879   3.238 -0.37 -0.00    +0.000 A 
DOCKED: ATOM     10  C   UNL     1      28.601 -14.141   2.593 -0.25 -0.00    +0.000 A 
DOCKED: ATOM     11  C   UNL     1      28.637 -14.407   1.216 -0.19 -0.00    +0.000 A 
DOCKED: BRANCH   7  12
DOCKED: ATOM     12  C   UNL     1      28.521 -13.330   6.837 -0.24 -0.00    +0.000 C 
DOCKED: BRANCH  12  13
DOCKED: ATOM     13  N   UNL     1      29.185 -12.046   7.154 -0.33 -0.00    +0.000 N 
DOCKED: ATOM     14  H   UNL     1      28.567 -11.650   7.862 -0.04 +0.00    +0.000 HD
DOCKED: BRANCH  13  15
DOCKED: ATOM     15  C   UNL     1      30.482 -12.164   7.862 -0.23 -0.00    +0.000 C 
DOCKED: ATOM     16  C   UNL     1      30.942 -13.608   8.122 -0.29 -0.00    +0.000 C 
DOCKED: ENDBRANCH  13  15
DOCKED: BRANCH  13  17
DOCKED: ATOM     17  C   UNL     1      29.150 -11.027   6.077 -0.27 +0.00    +0.000 C 
DOCKED: ATOM     18  C   UNL     1      28.804  -9.615   6.556 -0.26 +0.00    +0.000 C 
DOCKED: ENDBRANCH  13  17
DOCKED: ENDBRANCH  12  13
DOCKED: ENDBRANCH   7  12
DOCKED: ENDBRANCH   1   2
DOCKED: BRANCH   1  19
DOCKED: ATOM     19  O   UNL     1      29.573 -16.290  -1.183 -0.20 -0.00    +0.000 OA
DOCKED: BRANCH  19  21
DOCKED: ATOM     20  O   UNL     1      27.846 -16.685  -2.665 -0.34 -0.00    +0.000 OA
DOCKED: ATOM     21  C   UNL     1      28.282 -16.737  -1.482 -0.35 -0.00    +0.000 C 
DOCKED: ATOM     22  N   UNL     1      27.477 -17.294  -0.435 -0.44 -0.00    +0.000 N 
DOCKED: ATOM     23  H   UNL     1      27.920 -17.519   0.415 -0.41 -0.00    +0.000 HD
DOCKED: BRANCH  22  24
DOCKED: ATOM     24  C   UNL     1      26.065 -17.545  -0.544 -0.55 -0.00    +0.000 A 
DOCKED: ATOM     25  C   UNL     1      25.187 -16.468  -0.721 -0.45 -0.00    +0.000 A 
DOCKED: ATOM     26  C   UNL     1      23.813 -16.686  -0.859 -0.42 -0.00    +0.000 A 
DOCKED: ATOM     27  C   UNL     1      23.292 -17.991  -0.834 -0.72 -0.00    +0.000 A 
DOCKED: ATOM     28  C   UNL     1      24.178 -19.073  -0.691 -0.42 -0.00    +0.000 A 
DOCKED: ATOM     29  C   UNL     1      25.552 -18.854  -0.549 -0.23 -0.00    +0.000 A 
DOCKED: BRANCH  27  30
DOCKED: ATOM     30  C   UNL     1      21.837 -18.241  -0.992 -0.76 -0.00    +0.000 C 
DOCKED: ATOM     31  N   UNL     1      21.344 -19.494  -1.478 -0.71 -0.00    +0.000 N 
DOCKED: ATOM     32  O   UNL     1      20.013 -19.732  -1.516 -2.28 -0.00    +0.000 OA
DOCKED: ATOM     33  O   UNL     1      21.016 -17.327  -0.708 -1.94 +0.00    +0.000 OA
DOCKED: ATOM     34  H   UNL     1      21.976 -20.186  -1.784 -0.45 -0.00    +0.000 HD
DOCKED: ENDBRANCH  27  30
DOCKED: ENDBRANCH  22  24
DOCKED: ENDBRANCH  19  21
DOCKED: ENDBRANCH   1  19
DOCKED: TORSDOF 9
DOCKED: TER
DOCKED: ENDMDL
________________________________________________________________________________


	BEGINNING GENETIC ALGORITHM DOCKING 99 of 100
Run: 99 Seed: 20197681 115887302 [ Run 99 of 100 GA/GALS ]
Beginning LAMARCKIAN GENETIC ALGORITHM (LGA), with a maximum of 2500000 energy evaluations.

Final-Value: -16.402


	FINAL GENETIC ALGORITHM DOCKED STATE
	_______________________________________________


Detailed state:  trans 27.704 -16.705 -4.403 quatxyzw -0.269399 -0.643075 -0.651429 -0.299197 center 1.436 0.069 -0.007 ntor 9 -9.2961 -179.9431 179.2866 -16.8321 144.3436 150.2457 -83.7973 -14.9149 -180.0000
State:	 27.704 -16.705  -4.403  -0.282 -0.674 -0.683 -145.181     -9.30 -179.94  179.29  -16.83  144.34  150.25  -83.80  -14.91 -180.00

DOCKED: MODEL       99
DOCKED: USER    Run = 99
DOCKED: USER    DPF = ligand_dock.biased.dpf
DOCKED: USER  
DOCKED: USER    Estimated Free Energy of Binding    =  -11.97 kcal/mol  [=(1)+(2)+(3)-(4)]
DOCKED: USER    Estimated Inhibition Constant, Ki   =    1.68 nM (nanomolar)  [Temperature = 298.15 K]
DOCKED: USER    
DOCKED: USER    (1) Final Intermolecular Energy     =  -14.65 kcal/mol
DOCKED: USER        vdW + Hbond + desolv Energy     =  -14.65 kcal/mol
DOCKED: USER        Electrostatic Energy            =   +0.00 kcal/mol
DOCKED: USER    (2) Final Total Internal Energy     =   -1.75 kcal/mol
DOCKED: USER    (3) Torsional Free Energy           =   +2.68 kcal/mol
DOCKED: USER    (4) Unbound System's Energy  [=(2)] =   -1.75 kcal/mol
DOCKED: USER    
DOCKED: USER    
DOCKED: USER    NEWDPF move ligand.pdbqt
DOCKED: USER    NEWDPF about 1.436000 0.069000 -0.007000
DOCKED: USER    NEWDPF tran0 27.704051 -16.705273 -4.403269
DOCKED: USER    NEWDPF quaternion0 -0.269399 -0.643075 -0.651429 -0.299197
DOCKED: USER    NEWDPF axisangle0 -0.282332 -0.673948 -0.682703 -145.181235
DOCKED: USER    NEWDPF quat0 -0.282332 -0.673948 -0.682703 -145.181235
DOCKED: USER    NEWDPF dihe0 -9.30 -179.94 179.29 -16.83 144.34 150.25 -83.80 -14.91 -180.00 
DOCKED: USER  keepresnum = 1 
DOCKED: USER  
DOCKED: REMARK  Name = 
DOCKED: REMARK  11 active torsions:
DOCKED: REMARK  status: ('A' for Active; 'I' for Inactive)
DOCKED: REMARK    1  A    between atoms: C_2  and  O_3
DOCKED: REMARK    2  A    between atoms: O_3  and  C_4
DOCKED: REMARK    3  A    between atoms: C_4  and  C_5
DOCKED: REMARK    4  A    between atoms: C_10  and  C_11
DOCKED: REMARK    5  A    between atoms: C_11  and  N_12
DOCKED: REMARK    6  A    between atoms: N_12  and  C_13
DOCKED: REMARK    7  A    between atoms: N_12  and  C_15
DOCKED: REMARK    8  A    between atoms: C_13  and  C_14
DOCKED: REMARK    9  A    between atoms: C_15  and  C_16
DOCKED: REMARK   10  A    between atoms: N_21  and  C_22
DOCKED: REMARK   11  A    between atoms: C_25  and  C_26
DOCKED: REMARK                            x       y       z     vdW  Elec       q    Type
DOCKED: REMARK                         _______ _______ _______ _____ _____    ______ ____
DOCKED: USER                              x       y       z     vdW  Elec       q    Type
DOCKED: USER                           _______ _______ _______ _____ _____    ______ ____
DOCKED: ROOT
DOCKED: ATOM      1  C   UNL     1      30.333 -16.422  -1.495 -0.16 -0.00    +0.000 C 
DOCKED: ENDROOT
DOCKED: BRANCH   1   2
DOCKED: ATOM      2  C   UNL     1      30.387 -16.699  -2.973 -0.15 -0.00    +0.000 A 
DOCKED: ATOM      3  C   UNL     1      30.396 -15.643  -3.897 -0.11 -0.00    +0.000 A 
DOCKED: ATOM      4  C   UNL     1      30.468 -15.902  -5.269 -0.19 -0.00    +0.000 A 
DOCKED: ATOM      5  C   UNL     1      30.534 -17.223  -5.734 -0.28 -0.00    +0.000 A 
DOCKED: ATOM      6  C   UNL     1      30.612 -17.492  -7.109 -0.28 -0.00    +0.000 A 
DOCKED: ATOM      7  C   UNL     1      30.684 -18.815  -7.570 -0.33 -0.00    +0.000 A 
DOCKED: ATOM      8  C   UNL     1      30.669 -19.872  -6.647 -0.39 -0.00    +0.000 A 
DOCKED: ATOM      9  C   UNL     1      30.592 -19.614  -5.276 -0.31 -0.00    +0.000 A 
DOCKED: ATOM     10  C   UNL     1      30.525 -18.293  -4.810 -0.26 -0.00    +0.000 A 
DOCKED: ATOM     11  C   UNL     1      30.450 -18.023  -3.435 -0.09 -0.00    +0.000 A 
DOCKED: BRANCH   7  12
DOCKED: ATOM     12  C   UNL     1      30.750 -19.094  -9.050 -0.39 -0.00    +0.000 C 
DOCKED: BRANCH  12  13
DOCKED: ATOM     13  N   UNL     1      32.105 -18.825  -9.580 -0.23 -0.00    +0.000 N 
DOCKED: ATOM     14  H   UNL     1      32.697 -19.008  -8.770 +0.00 -0.00    +0.000 HD
DOCKED: BRANCH  13  15
DOCKED: ATOM     15  C   UNL     1      32.594 -19.798 -10.586 -0.16 -0.00    +0.000 C 
DOCKED: ATOM     16  C   UNL     1      31.499 -20.401 -11.481 -0.29 -0.00    +0.000 C 
DOCKED: ENDBRANCH  13  15
DOCKED: BRANCH  13  17
DOCKED: ATOM     17  C   UNL     1      32.398 -17.405  -9.889 -0.22 -0.00    +0.000 C 
DOCKED: ATOM     18  C   UNL     1      33.342 -16.725  -8.894 -0.12 -0.00    +0.000 C 
DOCKED: ENDBRANCH  13  17
DOCKED: ENDBRANCH  12  13
DOCKED: ENDBRANCH   7  12
DOCKED: ENDBRANCH   1   2
DOCKED: BRANCH   1  19
DOCKED: ATOM     19  O   UNL     1      29.103 -15.784  -1.152 -0.19 -0.00    +0.000 OA
DOCKED: BRANCH  19  21
DOCKED: ATOM     20  O   UNL     1      27.377 -16.151  -2.642 -0.36 -0.00    +0.000 OA
DOCKED: ATOM     21  C   UNL     1      27.848 -16.307  -1.482 -0.34 -0.00    +0.000 C 
DOCKED: ATOM     22  N   UNL     1      27.124 -17.057  -0.498 -0.45 -0.00    +0.000 N 
DOCKED: ATOM     23  H   UNL     1      27.609 -17.342   0.310 -0.21 -0.00    +0.000 HD
DOCKED: BRANCH  22  24
DOCKED: ATOM     24  C   UNL     1      25.738 -17.419  -0.614 -0.56 -0.00    +0.000 A 
DOCKED: ATOM     25  C   UNL     1      24.770 -16.411  -0.717 -0.42 -0.00    +0.000 A 
DOCKED: ATOM     26  C   UNL     1      23.417 -16.735  -0.858 -0.42 -0.00    +0.000 A 
DOCKED: ATOM     27  C   UNL     1      23.008 -18.079  -0.913 -0.72 -0.00    +0.000 A 
DOCKED: ATOM     28  C   UNL     1      23.984 -19.088  -0.844 -0.53 -0.00    +0.000 A 
DOCKED: ATOM     29  C   UNL     1      25.336 -18.764  -0.698 -0.36 -0.00    +0.000 A 
DOCKED: BRANCH  27  30
DOCKED: ATOM     30  C   UNL     1      21.578 -18.440  -1.077 -0.76 -0.00    +0.000 C 
DOCKED: ATOM     31  N   UNL     1      21.186 -19.692  -1.651 -0.63 -0.00    +0.000 N 
DOCKED: ATOM     32  O   UNL     1      19.879 -20.039  -1.696 -2.09 -0.00    +0.000 OA
DOCKED: ATOM     33  O   UNL     1      20.686 -17.624  -0.718 -2.17 +0.00    +0.000 OA
DOCKED: ATOM     34  H   UNL     1      21.869 -20.302  -2.014 -0.48 -0.00    +0.000 HD
DOCKED: ENDBRANCH  27  30
DOCKED: ENDBRANCH  22  24
DOCKED: ENDBRANCH  19  21
DOCKED: ENDBRANCH   1  19
DOCKED: TORSDOF 9
DOCKED: TER
DOCKED: ENDMDL
________________________________________________________________________________


	BEGINNING GENETIC ALGORITHM DOCKING 100 of 100
Run: 100 Seed: 687804384 1897003418 [ Run 100 of 100 GA/GALS ]
Beginning LAMARCKIAN GENETIC ALGORITHM (LGA), with a maximum of 2500000 energy evaluations.

Final-Value: -16.549


	FINAL GENETIC ALGORITHM DOCKED STATE
	_______________________________________________


Detailed state:  trans 27.112 -16.202 1.207 quatxyzw -0.221755 0.797166 -0.324491 -0.458319 center 1.436 0.069 -0.007 ntor 9 -171.5206 23.2391 -65.9028 -70.0024 96.1385 127.6457 96.8740 25.0700 135.3765
State:	 27.112 -16.202   1.207  -0.250  0.897 -0.365 -125.443   -171.52   23.24  -65.90  -70.00   96.14  127.65   96.87   25.07  135.38

DOCKED: MODEL      100
DOCKED: USER    Run = 100
DOCKED: USER    DPF = ligand_dock.biased.dpf
DOCKED: USER  
DOCKED: USER    Estimated Free Energy of Binding    =  -12.21 kcal/mol  [=(1)+(2)+(3)-(4)]
DOCKED: USER    Estimated Inhibition Constant, Ki   =    1.11 nM (nanomolar)  [Temperature = 298.15 K]
DOCKED: USER    
DOCKED: USER    (1) Final Intermolecular Energy     =  -14.90 kcal/mol
DOCKED: USER        vdW + Hbond + desolv Energy     =  -14.90 kcal/mol
DOCKED: USER        Electrostatic Energy            =   +0.00 kcal/mol
DOCKED: USER    (2) Final Total Internal Energy     =   -1.65 kcal/mol
DOCKED: USER    (3) Torsional Free Energy           =   +2.68 kcal/mol
DOCKED: USER    (4) Unbound System's Energy  [=(2)] =   -1.65 kcal/mol
DOCKED: USER    
DOCKED: USER    
DOCKED: USER    NEWDPF move ligand.pdbqt
DOCKED: USER    NEWDPF about 1.436000 0.069000 -0.007000
DOCKED: USER    NEWDPF tran0 27.111679 -16.202476 1.206995
DOCKED: USER    NEWDPF quaternion0 -0.221755 0.797166 -0.324491 -0.458319
DOCKED: USER    NEWDPF axisangle0 -0.249503 0.896914 -0.365094 -125.442631
DOCKED: USER    NEWDPF quat0 -0.249503 0.896914 -0.365094 -125.442631
DOCKED: USER    NEWDPF dihe0 -171.52 23.24 -65.90 -70.00 96.14 127.65 96.87 25.07 135.38 
DOCKED: USER  keepresnum = 1 
DOCKED: USER  
DOCKED: REMARK  Name = 
DOCKED: REMARK  11 active torsions:
DOCKED: REMARK  status: ('A' for Active; 'I' for Inactive)
DOCKED: REMARK    1  A    between atoms: C_2  and  O_3
DOCKED: REMARK    2  A    between atoms: O_3  and  C_4
DOCKED: REMARK    3  A    between atoms: C_4  and  C_5
DOCKED: REMARK    4  A    between atoms: C_10  and  C_11
DOCKED: REMARK    5  A    between atoms: C_11  and  N_12
DOCKED: REMARK    6  A    between atoms: N_12  and  C_13
DOCKED: REMARK    7  A    between atoms: N_12  and  C_15
DOCKED: REMARK    8  A    between atoms: C_13  and  C_14
DOCKED: REMARK    9  A    between atoms: C_15  and  C_16
DOCKED: REMARK   10  A    between atoms: N_21  and  C_22
DOCKED: REMARK   11  A    between atoms: C_25  and  C_26
DOCKED: REMARK                            x       y       z     vdW  Elec       q    Type
DOCKED: REMARK                         _______ _______ _______ _____ _____    ______ ____
DOCKED: USER                              x       y       z     vdW  Elec       q    Type
DOCKED: USER                           _______ _______ _______ _____ _____    ______ ____
DOCKED: ROOT
DOCKED: ATOM      1  C   UNL     1      26.964 -13.819  -1.915 -0.24 -0.00    +0.000 C 
DOCKED: ENDROOT
DOCKED: BRANCH   1   2
DOCKED: ATOM      2  C   UNL     1      27.274 -13.659  -0.451 -0.20 -0.00    +0.000 A 
DOCKED: ATOM      3  C   UNL     1      28.011 -14.638   0.233 -0.22 -0.00    +0.000 A 
DOCKED: ATOM      4  C   UNL     1      28.316 -14.478   1.588 -0.21 -0.00    +0.000 A 
DOCKED: ATOM      5  C   UNL     1      27.889 -13.333   2.276 -0.26 -0.00    +0.000 A 
DOCKED: ATOM      6  C   UNL     1      28.195 -13.162   3.635 -0.31 -0.00    +0.000 A 
DOCKED: ATOM      7  C   UNL     1      27.770 -12.012   4.318 -0.31 +0.00    +0.000 A 
DOCKED: ATOM      8  C   UNL     1      27.028 -11.035   3.636 -0.10 +0.00    +0.000 A 
DOCKED: ATOM      9  C   UNL     1      26.718 -11.198   2.283 -0.30 +0.00    +0.000 A 
DOCKED: ATOM     10  C   UNL     1      27.145 -12.342   1.595 -0.25 -0.00    +0.000 A 
DOCKED: ATOM     11  C   UNL     1      26.842 -12.513   0.235 -0.21 -0.00    +0.000 A 
DOCKED: BRANCH   7  12
DOCKED: ATOM     12  C   UNL     1      28.090 -11.845   5.781 -0.41 +0.00    +0.000 C 
DOCKED: BRANCH  12  13
DOCKED: ATOM     13  N   UNL     1      29.339 -12.554   6.136 -0.30 -0.00    +0.000 N 
DOCKED: ATOM     14  H   UNL     1      29.397 -13.271   5.412 -0.00 -0.00    +0.000 HD
DOCKED: BRANCH  13  15
DOCKED: ATOM     15  C   UNL     1      30.585 -11.775   5.942 -0.14 -0.00    +0.000 C 
DOCKED: ATOM     16  C   UNL     1      31.678 -12.502   5.141 -0.13 -0.00    +0.000 C 
DOCKED: ENDBRANCH  13  15
DOCKED: BRANCH  13  17
DOCKED: ATOM     17  C   UNL     1      29.287 -13.351   7.385 -0.42 -0.00    +0.000 C 
DOCKED: ATOM     18  C   UNL     1      28.742 -12.591   8.596 -0.41 -0.00    +0.000 C 
DOCKED: ENDBRANCH  13  17
DOCKED: ENDBRANCH  12  13
DOCKED: ENDBRANCH   7  12
DOCKED: ENDBRANCH   1   2
DOCKED: BRANCH   1  19
DOCKED: ATOM     19  O   UNL     1      27.095 -15.185  -2.306 -0.29 -0.00    +0.000 OA
DOCKED: BRANCH  19  21
DOCKED: ATOM     20  O   UNL     1      25.454 -16.362  -3.427 -0.59 -0.00    +0.000 OA
DOCKED: ATOM     21  C   UNL     1      26.022 -16.082  -2.335 -0.51 -0.00    +0.000 C 
DOCKED: ATOM     22  N   UNL     1      25.605 -16.711  -1.117 -0.51 -0.00    +0.000 N 
DOCKED: ATOM     23  H   UNL     1      26.201 -16.640  -0.337 -0.02 -0.00    +0.000 HD
DOCKED: BRANCH  22  24
DOCKED: ATOM     24  C   UNL     1      24.375 -17.437  -0.960 -0.64 -0.00    +0.000 A 
DOCKED: ATOM     25  C   UNL     1      23.192 -16.737  -0.691 -0.40 -0.00    +0.000 A 
DOCKED: ATOM     26  C   UNL     1      21.976 -17.416  -0.561 -0.62 -0.00    +0.000 A 
DOCKED: ATOM     27  C   UNL     1      21.920 -18.813  -0.712 -0.76 -0.00    +0.000 A 
DOCKED: ATOM     28  C   UNL     1      23.102 -19.510  -1.016 -0.50 -0.00    +0.000 A 
DOCKED: ATOM     29  C   UNL     1      24.318 -18.831  -1.141 -0.47 -0.00    +0.000 A 
DOCKED: BRANCH  27  30
DOCKED: ATOM     30  C   UNL     1      20.636 -19.547  -0.591 -0.88 -0.00    +0.000 C 
DOCKED: ATOM     31  N   UNL     1      20.185 -20.059   0.667 -0.70 -0.00    +0.000 N 
DOCKED: ATOM     32  O   UNL     1      18.965 -20.635   0.769 -0.82 -0.00    +0.000 OA
DOCKED: ATOM     33  O   UNL     1      19.931 -19.739  -1.620 -2.32 -0.00    +0.000 OA
DOCKED: ATOM     34  H   UNL     1      20.764 -19.992   1.461 -0.45 -0.00    +0.000 HD
DOCKED: ENDBRANCH  27  30
DOCKED: ENDBRANCH  22  24
DOCKED: ENDBRANCH  19  21
DOCKED: ENDBRANCH   1  19
DOCKED: TORSDOF 9
DOCKED: TER
DOCKED: ENDMDL
________________________________________________________________________________

DPF>                           # do this many hybrid GA-LS runs

DPF> analysis                             # perform a ranked cluster analysis


		CLUSTER ANALYSIS OF CONFORMATIONS
		_________________________________

Number of conformations = 100

RMSD cluster analysis will be performed using the ligand atoms only (34 / 34 total atoms).

Outputting structurally similar clusters, ranked in order of increasing energy.


________________________________________________________________________________

Number of distinct conformational clusters found = 13,  out of 100 runs,
Using an rmsd-tolerance of 2.0 A


	CLUSTERING HISTOGRAM
	____________________

________________________________________________________________________________
     |           |     |           |     |                                    
Clus | Lowest    | Run | Mean      | Num | Histogram                          
-ter | Binding   |     | Binding   | in  |                                    
Rank | Energy    |     | Energy    | Clus|    5    10   15   20   25   30   35
_____|___________|_____|___________|_____|____:____|____:____|____:____|____:___
   1 |    -13.24 |  34 |    -11.86 |  24 |########################
   2 |    -12.81 |  40 |    -11.81 |  19 |###################
   3 |    -12.26 |  37 |    -11.38 |   7 |#######
   4 |    -12.11 |  81 |    -10.96 |  25 |#########################
   5 |    -11.97 |  94 |    -11.84 |   2 |##
   6 |    -11.94 |  28 |    -11.05 |  11 |###########
   7 |    -11.78 |  50 |    -11.02 |   3 |###
   8 |    -11.21 |   7 |    -11.01 |   2 |##
   9 |    -11.02 |  14 |    -10.43 |   2 |##
  10 |    -11.00 |  20 |    -11.00 |   1 |#
  11 |    -10.46 |  61 |    -10.33 |   2 |##
  12 |    -10.25 |  13 |    -10.25 |   1 |#
  13 |     -9.98 |  60 |     -9.98 |   1 |#
_____|___________|_____|___________|_____|______________________________________


Number of multi-member conformational clusters found = 10, out of 100 runs.

	RMSD TABLE
	__________

_____________________________________________________________________
     |      |      |           |         |                 |
Rank | Sub- | Run  | Binding   | Cluster | Reference       | Grep
     | Rank |      | Energy    | RMSD    | RMSD            | Pattern
_____|______|______|___________|_________|_________________|___________
   1      1     34      -13.24      0.00     24.14           RANKING
   1      2     67      -13.10      1.73     23.72           RANKING
   1      3     93      -12.64      1.07     24.17           RANKING
   1      4     97      -12.60      1.26     24.11           RANKING
   1      5      3      -12.57      1.98     23.48           RANKING
   1      6     98      -12.37      1.39     24.03           RANKING
   1      7     69      -12.30      0.97     24.41           RANKING
   1      8     58      -12.26      1.96     23.00           RANKING
   1      9     15      -12.24      1.32     23.85           RANKING
   1     10     75      -12.22      1.52     23.88           RANKING
   1     11     48      -11.99      1.50     23.72           RANKING
   1     12      4      -11.93      1.25     24.17           RANKING
   1     13     10      -11.87      1.05     24.03           RANKING
   1     14     62      -11.57      1.84     23.42           RANKING
   1     15     29      -11.54      1.95     23.38           RANKING
   1     16     25      -11.51      1.63     23.93           RANKING
   1     17     55      -11.48      1.28     23.58           RANKING
   1     18     45      -11.41      1.66     23.80           RANKING
   1     19     11      -11.40      1.25     24.37           RANKING
   1     20      2      -11.28      1.67     24.27           RANKING
   1     21     86      -11.08      1.41     23.99           RANKING
   1     22     22      -10.88      1.67     24.10           RANKING
   1     23     73      -10.68      1.54     24.36           RANKING
   1     24     27      -10.44      1.61     24.77           RANKING
   2      1     40      -12.81      0.00     25.40           RANKING
   2      2     57      -12.23      0.79     25.67           RANKING
   2      3     46      -12.16      1.88     26.67           RANKING
   2      4     38      -12.13      1.15     25.00           RANKING
   2      5     43      -12.13      1.96     26.72           RANKING
   2      6     84      -12.01      1.72     26.23           RANKING
   2      7     12      -11.97      1.73     26.22           RANKING
   2      8     99      -11.97      1.75     26.39           RANKING
   2      9     90      -11.95      1.83     26.12           RANKING
   2     10     49      -11.84      1.05     25.37           RANKING
   2     11     71      -11.78      1.95     26.72           RANKING
   2     12     52      -11.68      1.31     25.43           RANKING
   2     13     79      -11.63      1.85     26.19           RANKING
   2     14     74      -11.63      1.64     25.62           RANKING
   2     15     85      -11.60      1.65     25.92           RANKING
   2     16     80      -11.39      1.76     26.23           RANKING
   2     17     47      -11.38      1.90     26.02           RANKING
   2     18     87      -11.10      1.90     26.57           RANKING
   2     19     77      -10.99      1.64     26.30           RANKING
   3      1     37      -12.26      0.00     22.83           RANKING
   3      2    100      -12.21      0.95     22.86           RANKING
   3      3      6      -11.52      1.33     22.80           RANKING
   3      4      8      -11.33      1.59     23.16           RANKING
   3      5     88      -10.97      1.77     23.07           RANKING
   3      6     33      -10.80      1.22     22.81           RANKING
   3      7     44      -10.60      1.71     23.11           RANKING
   4      1     81      -12.11      0.00     21.82           RANKING
   4      2     39      -12.08      1.05     22.22           RANKING
   4      3     76      -11.70      1.65     22.00           RANKING
   4      4     95      -11.67      1.37     21.21           RANKING
   4      5     51      -11.56      0.84     21.84           RANKING
   4      6     32      -11.55      1.39     22.14           RANKING
   4      7     24      -11.38      1.68     22.55           RANKING
   4      8     19      -11.29      1.77     22.36           RANKING
   4      9     65      -11.28      1.75     22.43           RANKING
   4     10     18      -11.26      1.77     22.24           RANKING
   4     11      5      -11.15      1.90     23.00           RANKING
   4     12     78      -11.11      1.08     21.79           RANKING
   4     13      1      -10.97      1.24     22.37           RANKING
   4     14     26      -10.93      1.48     21.49           RANKING
   4     15     96      -10.86      1.81     22.29           RANKING
   4     16     17      -10.72      1.76     22.50           RANKING
   4     17     92      -10.64      1.88     22.51           RANKING
   4     18     23      -10.56      1.76     22.80           RANKING
   4     19     72      -10.51      1.65     21.65           RANKING
   4     20     16      -10.51      1.45     22.51           RANKING
   4     21     89      -10.37      1.53     21.97           RANKING
   4     22     83      -10.21      1.74     22.44           RANKING
   4     23     35      -10.03      1.55     22.53           RANKING
   4     24     63       -9.85      1.41     22.51           RANKING
   4     25     70       -9.62      1.44     22.52           RANKING
   5      1     94      -11.97      0.00     27.69           RANKING
   5      2     21      -11.71      0.86     27.56           RANKING
   6      1     28      -11.94      0.00     24.07           RANKING
   6      2     91      -11.92      1.60     23.26           RANKING
   6      3     36      -11.82      1.89     22.92           RANKING
   6      4     68      -11.24      1.15     24.26           RANKING
   6      5     56      -11.11      1.11     24.30           RANKING
   6      6     30      -10.91      1.79     24.27           RANKING
   6      7     31      -10.71      1.21     23.66           RANKING
   6      8     41      -10.68      1.79     23.26           RANKING
   6      9     54      -10.57      1.11     24.11           RANKING
   6     10      9      -10.56      1.33     24.44           RANKING
   6     11     66      -10.05      1.29     23.78           RANKING
   7      1     50      -11.78      0.00     20.71           RANKING
   7      2     82      -10.72      1.70     21.68           RANKING
   7      3     64      -10.57      1.83     21.58           RANKING
   8      1      7      -11.21      0.00     22.39           RANKING
   8      2     59      -10.82      1.82     22.81           RANKING
   9      1     14      -11.02      0.00     25.97           RANKING
   9      2     42       -9.83      1.49     25.23           RANKING
  10      1     20      -11.00      0.00     26.77           RANKING
  11      1     61      -10.46      0.00     27.19           RANKING
  11      2     53      -10.20      0.95     27.04           RANKING
  12      1     13      -10.25      0.00     22.23           RANKING
  13      1     60       -9.98      0.00     21.76           RANKING
_______________________________________________________________________



	INFORMATION ENTROPY ANALYSIS FOR THIS CLUSTERING
	________________________________________________


Information entropy for this clustering = 0.43  (rmstol = 2.00 Angstrom)

_______________________________________________________________________


	STATISTICAL MECHANICAL ANALYSIS
	_______________________________


Partition function, Q =   101.94            at Temperature, T = 298.15 K
Free energy,        A ~ -2739.83 kcal/mol   at Temperature, T = 298.15 K
Internal energy,    U =   -11.36 kcal/mol   at Temperature, T = 298.15 K
Entropy,            S =     9.15 kcal/mol/K at Temperature, T = 298.15 K

_______________________________________________________________________


	LOWEST ENERGY DOCKED CONFORMATION from EACH CLUSTER
	___________________________________________________



Keeping original residue number (specified in the input PDBQ file) for outputting.

MODEL       34
USER    Run = 34
USER    Cluster Rank = 1
USER    Number of conformations in this cluster = 24
USER  
USER    RMSD from reference structure       = 24.143 A
USER  
USER    Estimated Free Energy of Binding    =  -13.24 kcal/mol  [=(1)+(2)+(3)-(4)]
USER    Estimated Inhibition Constant, Ki   =  198.75 pM (picomolar)  [Temperature = 298.15 K]
USER    
USER    (1) Final Intermolecular Energy     =  -15.92 kcal/mol
USER        vdW + Hbond + desolv Energy     =  -15.92 kcal/mol
USER        Electrostatic Energy            =   +0.00 kcal/mol
USER    (2) Final Total Internal Energy     =   -1.37 kcal/mol
USER    (3) Torsional Free Energy           =   +2.68 kcal/mol
USER    (4) Unbound System's Energy  [=(2)] =   -1.37 kcal/mol
USER    
USER    
USER  
USER    DPF = ligand_dock.biased.dpf
USER    NEWDPF move	ligand.pdbqt
USER    NEWDPF about	1.436000 0.069000 -0.007000
USER    NEWDPF tran0	28.354491 -16.404128 3.176883
USER    NEWDPF axisangle0	0.122486 -0.896918 0.424894 125.351882
USER    NEWDPF quaternion0	0.108819 -0.796844 0.377486 0.459023
USER    NEWDPF dihe0	55.73 80.62 154.68 -78.72 48.40 175.42 69.31 41.92 174.60 
USER  
USER                              x       y       z    vdW   Elec        q     RMS 
ATOM      1  C   UNL     1      29.060 -14.025   0.129 -0.13 -0.00    +0.000    24.143
ATOM      2  C   UNL     1      29.250 -13.951   1.620 -0.15 -0.00    +0.000    24.143
ATOM      3  C   UNL     1      30.328 -14.607   2.234 -0.11 -0.00    +0.000    24.143
ATOM      4  C   UNL     1      30.515 -14.519   3.617 -0.26 -0.00    +0.000    24.143
ATOM      5  C   UNL     1      29.627 -13.772   4.403 -0.30 -0.00    +0.000    24.143
ATOM      6  C   UNL     1      29.810 -13.674   5.791 -0.31 -0.00    +0.000    24.143
ATOM      7  C   UNL     1      28.921 -12.921   6.573 -0.37 -0.00    +0.000    24.143
ATOM      8  C   UNL     1      27.839 -12.270   5.959 -0.32 +0.00    +0.000    24.143
ATOM      9  C   UNL     1      27.649 -12.362   4.578 -0.26 +0.00    +0.000    24.143
ATOM     10  C   UNL     1      28.537 -13.109   3.791 -0.28 -0.00    +0.000    24.143
ATOM     11  C   UNL     1      28.356 -13.205   2.403 -0.22 -0.00    +0.000    24.143
ATOM     12  C   UNL     1      29.117 -12.836   8.065 -0.43 -0.00    +0.000    24.143
ATOM     13  N   UNL     1      29.974 -13.940   8.550 -0.37 -0.00    +0.000    24.143
ATOM     14  H   UNL     1      29.732 -14.701   7.916 -0.58 -0.00    +0.000    24.143
ATOM     15  C   UNL     1      31.428 -13.758   8.322 -0.24 -0.00    +0.000    24.143
ATOM     16  C   UNL     1      32.203 -13.214   9.533 -0.19 -0.00    +0.000    24.143
ATOM     17  C   UNL     1      29.613 -14.490   9.879 -0.47 -0.00    +0.000    24.143
ATOM     18  C   UNL     1      28.305 -13.942  10.454 -0.53 -0.00    +0.000    24.143
ATOM     19  O   UNL     1      28.918 -15.382  -0.290 -0.21 -0.00    +0.000    24.143
ATOM     20  O   UNL     1      27.300 -15.604  -1.924 -0.30 -0.00    +0.000    24.143
ATOM     21  C   UNL     1      27.718 -15.915  -0.774 -0.34 -0.00    +0.000    24.143
ATOM     22  N   UNL     1      26.995 -16.852   0.034 -0.44 -0.00    +0.000    24.143
ATOM     23  H   UNL     1      27.454 -17.234   0.816 -0.24 -0.00    +0.000    24.143
ATOM     24  C   UNL     1      25.643 -17.269  -0.223 -0.43 -0.00    +0.000    24.143
ATOM     25  C   UNL     1      24.727 -16.348  -0.748 -0.40 -0.00    +0.000    24.143
ATOM     26  C   UNL     1      23.414 -16.734  -1.033 -0.40 -0.00    +0.000    24.143
ATOM     27  C   UNL     1      22.995 -18.057  -0.810 -0.72 -0.00    +0.000    24.143
ATOM     28  C   UNL     1      23.925 -18.989  -0.315 -0.36 -0.00    +0.000    24.143
ATOM     29  C   UNL     1      25.237 -18.601  -0.026 -0.41 -0.00    +0.000    24.143
ATOM     30  C   UNL     1      21.609 -18.487  -1.120 -0.71 -0.00    +0.000    24.143
ATOM     31  N   UNL     1      21.349 -19.663  -1.893 -0.42 -0.00    +0.000    24.143
ATOM     32  O   UNL     1      20.077 -20.089  -2.076 -2.21 -0.00    +0.000    24.143
ATOM     33  O   UNL     1      20.637 -17.796  -0.708 -2.30 +0.00    +0.000    24.143
ATOM     34  H   UNL     1      22.096 -20.165  -2.293 -0.55 -0.00    +0.000    24.143
TER
ENDMDL
MODEL       40
USER    Run = 40
USER    Cluster Rank = 2
USER    Number of conformations in this cluster = 19
USER  
USER    RMSD from reference structure       = 25.404 A
USER  
USER    Estimated Free Energy of Binding    =  -12.81 kcal/mol  [=(1)+(2)+(3)-(4)]
USER    Estimated Inhibition Constant, Ki   =  405.72 pM (picomolar)  [Temperature = 298.15 K]
USER    
USER    (1) Final Intermolecular Energy     =  -15.50 kcal/mol
USER        vdW + Hbond + desolv Energy     =  -15.50 kcal/mol
USER        Electrostatic Energy            =   +0.00 kcal/mol
USER    (2) Final Total Internal Energy     =   -1.14 kcal/mol
USER    (3) Torsional Free Energy           =   +2.68 kcal/mol
USER    (4) Unbound System's Energy  [=(2)] =   -1.14 kcal/mol
USER    
USER    
USER  
USER    DPF = ligand_dock.biased.dpf
USER    NEWDPF move	ligand.pdbqt
USER    NEWDPF about	1.436000 0.069000 -0.007000
USER    NEWDPF tran0	29.896087 -18.246370 -3.045541
USER    NEWDPF axisangle0	0.421030 -0.899847 0.114062 -87.486782
USER    NEWDPF quaternion0	0.291112 -0.622181 0.078866 -0.722444
USER    NEWDPF dihe0	-134.53 -180.00 95.90 11.02 -48.15 179.87 178.50 -170.84 -102.03 
USER  
USER                              x       y       z    vdW   Elec        q     RMS 
ATOM      1  C   UNL     1      27.877 -15.282  -1.439 -0.25 -0.00    +0.000    25.404
ATOM      2  C   UNL     1      28.371 -15.626  -2.818 -0.22 -0.00    +0.000    25.404
ATOM      3  C   UNL     1      27.823 -15.001  -3.949 -0.29 -0.00    +0.000    25.404
ATOM      4  C   UNL     1      28.298 -15.307  -5.227 -0.35 -0.00    +0.000    25.404
ATOM      5  C   UNL     1      29.330 -16.242  -5.391 -0.29 -0.00    +0.000    25.404
ATOM      6  C   UNL     1      29.817 -16.551  -6.671 -0.09 -0.00    +0.000    25.404
ATOM      7  C   UNL     1      30.854 -17.483  -6.829 -0.30 -0.00    +0.000    25.404
ATOM      8  C   UNL     1      31.398 -18.113  -5.699 -0.20 -0.00    +0.000    25.404
ATOM      9  C   UNL     1      30.919 -17.811  -4.421 -0.20 -0.00    +0.000    25.404
ATOM     10  C   UNL     1      29.887 -16.877  -4.257 -0.23 -0.00    +0.000    25.404
ATOM     11  C   UNL     1      29.402 -16.565  -2.978 -0.21 -0.00    +0.000    25.404
ATOM     12  C   UNL     1      31.357 -17.820  -8.209 -0.33 -0.00    +0.000    25.404
ATOM     13  N   UNL     1      31.095 -19.238  -8.537 -0.35 -0.00    +0.000    25.404
ATOM     14  H   UNL     1      30.085 -19.307  -8.420 -0.11 -0.00    +0.000    25.404
ATOM     15  C   UNL     1      31.297 -19.606  -9.959 -0.37 -0.00    +0.000    25.404
ATOM     16  C   UNL     1      30.034 -19.516 -10.830 -0.27 -0.00    +0.000    25.404
ATOM     17  C   UNL     1      31.609 -20.225  -7.557 -0.27 -0.00    +0.000    25.404
ATOM     18  C   UNL     1      30.527 -20.882  -6.697 -0.39 -0.00    +0.000    25.404
ATOM     19  O   UNL     1      27.834 -16.448  -0.618 -0.37 -0.00    +0.000    25.404
ATOM     20  O   UNL     1      26.674 -18.144   0.438 -0.64 -0.00    +0.000    25.404
ATOM     21  C   UNL     1      26.653 -17.140  -0.327 -0.54 -0.00    +0.000    25.404
ATOM     22  N   UNL     1      25.415 -16.669  -0.874 -0.51 -0.00    +0.000    25.404
ATOM     23  H   UNL     1      25.404 -15.772  -1.279 -0.01 -0.00    +0.000    25.404
ATOM     24  C   UNL     1      24.190 -17.421  -0.872 -0.65 -0.00    +0.000    25.404
ATOM     25  C   UNL     1      24.241 -18.819  -0.939 -0.58 -0.00    +0.000    25.404
ATOM     26  C   UNL     1      23.065 -19.576  -0.910 -0.43 -0.00    +0.000    25.404
ATOM     27  C   UNL     1      21.814 -18.946  -0.799 -0.75 -0.00    +0.000    25.404
ATOM     28  C   UNL     1      21.767 -17.545  -0.697 -0.64 -0.00    +0.000    25.404
ATOM     29  C   UNL     1      22.942 -16.788  -0.731 -0.40 -0.00    +0.000    25.404
ATOM     30  C   UNL     1      20.558 -19.735  -0.753 -0.85 -0.00    +0.000    25.404
ATOM     31  N   UNL     1      20.208 -20.512   0.397 -0.70 -0.00    +0.000    25.404
ATOM     32  O   UNL     1      19.010 -21.140   0.454 -0.83 -0.00    +0.000    25.404
ATOM     33  O   UNL     1      19.787 -19.736  -1.752 -2.31 -0.00    +0.000    25.404
ATOM     34  H   UNL     1      20.839 -20.590   1.149 -0.53 -0.00    +0.000    25.404
TER
ENDMDL
MODEL       37
USER    Run = 37
USER    Cluster Rank = 3
USER    Number of conformations in this cluster = 7
USER  
USER    RMSD from reference structure       = 22.833 A
USER  
USER    Estimated Free Energy of Binding    =  -12.26 kcal/mol  [=(1)+(2)+(3)-(4)]
USER    Estimated Inhibition Constant, Ki   =    1.03 nM (nanomolar)  [Temperature = 298.15 K]
USER    
USER    (1) Final Intermolecular Energy     =  -14.94 kcal/mol
USER        vdW + Hbond + desolv Energy     =  -14.94 kcal/mol
USER        Electrostatic Energy            =   +0.00 kcal/mol
USER    (2) Final Total Internal Energy     =   -1.71 kcal/mol
USER    (3) Torsional Free Energy           =   +2.68 kcal/mol
USER    (4) Unbound System's Energy  [=(2)] =   -1.71 kcal/mol
USER    
USER    
USER  
USER    DPF = ligand_dock.biased.dpf
USER    NEWDPF move	ligand.pdbqt
USER    NEWDPF about	1.436000 0.069000 -0.007000
USER    NEWDPF tran0	26.976072 -16.172344 1.767822
USER    NEWDPF axisangle0	0.204259 -0.923150 0.325687 124.766063
USER    NEWDPF quaternion0	0.180987 -0.817972 0.288580 0.463558
USER    NEWDPF dihe0	-109.36 -33.37 106.95 155.77 179.78 -23.84 73.53 31.24 127.46 
USER  
USER                              x       y       z    vdW   Elec        q     RMS 
ATOM      1  C   UNL     1      26.925 -13.455  -1.072 -0.22 -0.00    +0.000    22.833
ATOM      2  C   UNL     1      27.237 -13.470   0.400 -0.23 -0.00    +0.000    22.833
ATOM      3  C   UNL     1      27.787 -14.613   1.001 -0.25 -0.00    +0.000    22.833
ATOM      4  C   UNL     1      28.096 -14.618   2.364 -0.07 -0.00    +0.000    22.833
ATOM      5  C   UNL     1      27.863 -13.476   3.144 -0.33 -0.00    +0.000    22.833
ATOM      6  C   UNL     1      28.176 -13.469   4.512 -0.43 -0.00    +0.000    22.833
ATOM      7  C   UNL     1      27.945 -12.323   5.287 -0.38 +0.00    +0.000    22.833
ATOM      8  C   UNL     1      27.391 -11.181   4.688 -0.21 +0.00    +0.000    22.833
ATOM      9  C   UNL     1      27.076 -11.178   3.326 -0.20 +0.00    +0.000    22.833
ATOM     10  C   UNL     1      27.309 -12.319   2.546 -0.27 -0.00    +0.000    22.833
ATOM     11  C   UNL     1      26.999 -12.326   1.178 -0.25 -0.00    +0.000    22.833
ATOM     12  C   UNL     1      28.269 -12.332   6.759 -0.35 +0.00    +0.000    22.833
ATOM     13  N   UNL     1      29.403 -11.431   7.058 -0.27 -0.00    +0.000    22.833
ATOM     14  H   UNL     1      29.746 -11.797   7.947 -0.00 -0.00    +0.000    22.833
ATOM     15  C   UNL     1      30.574 -11.569   6.160 -0.14 -0.00    +0.000    22.833
ATOM     16  C   UNL     1      31.326 -12.905   6.288 -0.21 -0.00    +0.000    22.833
ATOM     17  C   UNL     1      29.036 -10.034   7.397 -0.28 +0.00    +0.000    22.833
ATOM     18  C   UNL     1      29.346  -9.016   6.297 -0.20 +0.00    +0.000    22.833
ATOM     19  O   UNL     1      27.004 -14.773  -1.612 -0.28 -0.00    +0.000    22.833
ATOM     20  O   UNL     1      25.154 -15.365  -2.862 -0.59 -0.00    +0.000    22.833
ATOM     21  C   UNL     1      25.883 -15.574  -1.853 -0.48 -0.00    +0.000    22.833
ATOM     22  N   UNL     1      25.598 -16.661  -0.964 -0.50 -0.00    +0.000    22.833
ATOM     23  H   UNL     1      26.298 -16.928  -0.325 -0.02 -0.00    +0.000    22.833
ATOM     24  C   UNL     1      24.357 -17.387  -0.943 -0.64 -0.00    +0.000    22.833
ATOM     25  C   UNL     1      24.373 -18.782  -1.076 -0.53 -0.00    +0.000    22.833
ATOM     26  C   UNL     1      23.183 -19.514  -1.031 -0.50 -0.00    +0.000    22.833
ATOM     27  C   UNL     1      21.952 -18.864  -0.839 -0.75 -0.00    +0.000    22.833
ATOM     28  C   UNL     1      21.941 -17.468  -0.672 -0.64 -0.00    +0.000    22.833
ATOM     29  C   UNL     1      23.130 -16.735  -0.722 -0.40 -0.00    +0.000    22.833
ATOM     30  C   UNL     1      20.681 -19.628  -0.776 -0.86 -0.00    +0.000    22.833
ATOM     31  N   UNL     1      20.250 -20.259   0.435 -0.71 -0.00    +0.000    22.833
ATOM     32  O   UNL     1      19.041 -20.862   0.493 -0.89 -0.00    +0.000    22.833
ATOM     33  O   UNL     1      19.970 -19.738  -1.812 -2.39 -0.00    +0.000    22.833
ATOM     34  H   UNL     1      20.835 -20.254   1.227 -0.49 -0.00    +0.000    22.833
TER
ENDMDL
MODEL       81
USER    Run = 81
USER    Cluster Rank = 4
USER    Number of conformations in this cluster = 25
USER  
USER    RMSD from reference structure       = 21.818 A
USER  
USER    Estimated Free Energy of Binding    =  -12.11 kcal/mol  [=(1)+(2)+(3)-(4)]
USER    Estimated Inhibition Constant, Ki   =    1.33 nM (nanomolar)  [Temperature = 298.15 K]
USER    
USER    (1) Final Intermolecular Energy     =  -14.79 kcal/mol
USER        vdW + Hbond + desolv Energy     =  -14.79 kcal/mol
USER        Electrostatic Energy            =   +0.00 kcal/mol
USER    (2) Final Total Internal Energy     =   -1.57 kcal/mol
USER    (3) Torsional Free Energy           =   +2.68 kcal/mol
USER    (4) Unbound System's Energy  [=(2)] =   -1.57 kcal/mol
USER    
USER    
USER  
USER    DPF = ligand_dock.biased.dpf
USER    NEWDPF move	ligand.pdbqt
USER    NEWDPF about	1.436000 0.069000 -0.007000
USER    NEWDPF tran0	25.715271 -13.977676 -0.531182
USER    NEWDPF axisangle0	0.380830 -0.126664 0.915928 124.665407
USER    NEWDPF quaternion0	0.337286 -0.112181 0.811200 0.464337
USER    NEWDPF dihe0	93.80 152.35 99.64 161.93 -157.01 -162.54 117.42 23.53 -175.20 
USER  
USER                              x       y       z    vdW   Elec        q     RMS 
ATOM      1  C   UNL     1      28.421 -16.355  -2.104 -0.29 -0.00    +0.000    21.818
ATOM      2  C   UNL     1      27.940 -14.953  -2.359 -0.19 -0.00    +0.000    21.818
ATOM      3  C   UNL     1      28.517 -13.867  -1.683 -0.10 -0.00    +0.000    21.818
ATOM      4  C   UNL     1      28.084 -12.562  -1.937 -0.09 -0.00    +0.000    21.818
ATOM      5  C   UNL     1      27.068 -12.327  -2.875 -0.13 -0.00    +0.000    21.818
ATOM      6  C   UNL     1      26.631 -11.020  -3.140 -0.07 -0.00    +0.000    21.818
ATOM      7  C   UNL     1      25.618 -10.789  -4.084 -0.17 -0.00    +0.000    21.818
ATOM      8  C   UNL     1      25.037 -11.875  -4.757 -0.29 -0.00    +0.000    21.818
ATOM      9  C   UNL     1      25.467 -13.180  -4.499 -0.22 -0.00    +0.000    21.818
ATOM     10  C   UNL     1      26.481 -13.416  -3.561 -0.29 -0.00    +0.000    21.818
ATOM     11  C   UNL     1      26.922 -14.722  -3.297 -0.32 -0.00    +0.000    21.818
ATOM     12  C   UNL     1      25.144  -9.383  -4.350 -0.30 -0.00    +0.000    21.818
ATOM     13  N   UNL     1      25.007  -9.135  -5.801 -0.22 -0.00    +0.000    21.818
ATOM     14  H   UNL     1      25.161  -8.129  -5.867 +0.00 -0.00    +0.000    21.818
ATOM     15  C   UNL     1      26.089  -9.700  -6.644 -0.17 -0.00    +0.000    21.818
ATOM     16  C   UNL     1      25.604 -10.408  -7.919 -0.28 -0.00    +0.000    21.818
ATOM     17  C   UNL     1      23.639  -9.296  -6.350 -0.45 -0.00    +0.000    21.818
ATOM     18  C   UNL     1      22.711  -8.106  -6.089 -0.45 -0.00    +0.000    21.818
ATOM     19  O   UNL     1      28.055 -16.777  -0.791 -0.39 -0.00    +0.000    21.818
ATOM     20  O   UNL     1      26.914 -18.611   0.028 -0.63 -0.00    +0.000    21.818
ATOM     21  C   UNL     1      26.873 -17.468  -0.506 -0.55 -0.00    +0.000    21.818
ATOM     22  N   UNL     1      25.614 -16.845  -0.792 -0.52 -0.00    +0.000    21.818
ATOM     23  H   UNL     1      25.615 -15.883  -0.999 -0.01 -0.00    +0.000    21.818
ATOM     24  C   UNL     1      24.352 -17.532  -0.794 -0.65 -0.00    +0.000    21.818
ATOM     25  C   UNL     1      24.331 -18.933  -0.783 -0.52 -0.00    +0.000    21.818
ATOM     26  C   UNL     1      23.117 -19.626  -0.757 -0.38 -0.00    +0.000    21.818
ATOM     27  C   UNL     1      21.897 -18.928  -0.729 -0.75 -0.00    +0.000    21.818
ATOM     28  C   UNL     1      21.921 -17.523  -0.706 -0.65 -0.00    +0.000    21.818
ATOM     29  C   UNL     1      23.135 -16.830  -0.737 -0.45 -0.00    +0.000    21.818
ATOM     30  C   UNL     1      20.600 -19.649  -0.688 -0.87 -0.00    +0.000    21.818
ATOM     31  N   UNL     1      20.133 -20.273   0.513 -0.71 -0.00    +0.000    21.818
ATOM     32  O   UNL     1      18.903 -20.836   0.551 -0.87 -0.00    +0.000    21.818
ATOM     33  O   UNL     1      19.900 -19.727  -1.734 -2.36 -0.00    +0.000    21.818
ATOM     34  H   UNL     1      20.707 -20.294   1.312 -0.48 -0.00    +0.000    21.818
TER
ENDMDL
MODEL       94
USER    Run = 94
USER    Cluster Rank = 5
USER    Number of conformations in this cluster = 2
USER  
USER    RMSD from reference structure       = 27.695 A
USER  
USER    Estimated Free Energy of Binding    =  -11.97 kcal/mol  [=(1)+(2)+(3)-(4)]
USER    Estimated Inhibition Constant, Ki   =    1.69 nM (nanomolar)  [Temperature = 298.15 K]
USER    
USER    (1) Final Intermolecular Energy     =  -14.65 kcal/mol
USER        vdW + Hbond + desolv Energy     =  -14.65 kcal/mol
USER        Electrostatic Energy            =   +0.00 kcal/mol
USER    (2) Final Total Internal Energy     =   -1.64 kcal/mol
USER    (3) Torsional Free Energy           =   +2.68 kcal/mol
USER    (4) Unbound System's Energy  [=(2)] =   -1.64 kcal/mol
USER    
USER    
USER  
USER    DPF = ligand_dock.biased.dpf
USER    NEWDPF move	ligand.pdbqt
USER    NEWDPF about	1.436000 0.069000 -0.007000
USER    NEWDPF tran0	29.519988 -17.558030 2.054333
USER    NEWDPF axisangle0	-0.531168 -0.735332 0.420889 -150.759620
USER    NEWDPF quaternion0	-0.513969 -0.711522 0.407261 -0.252410
USER    NEWDPF dihe0	-159.36 -174.81 -76.34 -159.84 168.26 4.06 -66.09 -136.14 -148.01 
USER  
USER                              x       y       z    vdW   Elec        q     RMS 
ATOM      1  C   UNL     1      31.239 -16.771  -1.392 -0.12 -0.00    +0.000    27.695
ATOM      2  C   UNL     1      31.364 -17.845  -0.345 -0.15 -0.00    +0.000    27.695
ATOM      3  C   UNL     1      31.041 -19.177  -0.648 -0.16 -0.00    +0.000    27.695
ATOM      4  C   UNL     1      31.179 -20.177   0.319 -0.09 -0.00    +0.000    27.695
ATOM      5  C   UNL     1      31.646 -19.857   1.602 -0.05 -0.00    +0.000    27.695
ATOM      6  C   UNL     1      31.792 -20.855   2.577 -0.28 -0.00    +0.000    27.695
ATOM      7  C   UNL     1      32.265 -20.532   3.858 -0.39 -0.00    +0.000    27.695
ATOM      8  C   UNL     1      32.584 -19.199   4.163 -0.34 -0.00    +0.000    27.695
ATOM      9  C   UNL     1      32.441 -18.199   3.198 -0.29 -0.00    +0.000    27.695
ATOM     10  C   UNL     1      31.974 -18.517   1.915 -0.11 -0.00    +0.000    27.695
ATOM     11  C   UNL     1      31.830 -17.520   0.939 -0.13 -0.00    +0.000    27.695
ATOM     12  C   UNL     1      32.403 -21.609   4.903 -0.53 -0.00    +0.000    27.695
ATOM     13  N   UNL     1      33.810 -22.050   5.027 -0.32 -0.00    +0.000    27.695
ATOM     14  H   UNL     1      33.766 -23.015   4.698 -0.37 -0.00    +0.000    27.695
ATOM     15  C   UNL     1      34.758 -21.412   4.083 -0.18 -0.00    +0.000    27.695
ATOM     16  C   UNL     1      35.439 -22.384   3.106 -0.10 -0.00    +0.000    27.695
ATOM     17  C   UNL     1      34.312 -22.197   6.415 -0.44 -0.00    +0.000    27.695
ATOM     18  C   UNL     1      34.598 -23.642   6.832 -0.54 -0.00    +0.000    27.695
ATOM     19  O   UNL     1      29.988 -16.095  -1.265 -0.15 -0.00    +0.000    27.695
ATOM     20  O   UNL     1      28.484 -17.137  -2.676 -0.28 -0.00    +0.000    27.695
ATOM     21  C   UNL     1      28.755 -16.705  -1.521 -0.30 -0.00    +0.000    27.695
ATOM     22  N   UNL     1      27.823 -16.871  -0.445 -0.37 -0.00    +0.000    27.695
ATOM     23  H   UNL     1      28.149 -16.726   0.472 -0.36 -0.00    +0.000    27.695
ATOM     24  C   UNL     1      26.443 -17.236  -0.618 -0.51 -0.00    +0.000    27.695
ATOM     25  C   UNL     1      25.773 -17.904   0.415 -0.26 -0.00    +0.000    27.695
ATOM     26  C   UNL     1      24.423 -18.245   0.284 -0.44 -0.00    +0.000    27.695
ATOM     27  C   UNL     1      23.713 -17.912  -0.883 -0.70 -0.00    +0.000    27.695
ATOM     28  C   UNL     1      24.378 -17.211  -1.904 -0.50 -0.00    +0.000    27.695
ATOM     29  C   UNL     1      25.729 -16.874  -1.775 -0.51 -0.00    +0.000    27.695
ATOM     30  C   UNL     1      22.277 -18.255  -1.032 -0.79 -0.00    +0.000    27.695
ATOM     31  N   UNL     1      21.857 -19.387  -1.800 -0.56 -0.00    +0.000    27.695
ATOM     32  O   UNL     1      20.550 -19.736  -1.837 -2.16 -0.00    +0.000    27.695
ATOM     33  O   UNL     1      21.405 -17.526  -0.484 -1.65 -0.00    +0.000    27.695
ATOM     34  H   UNL     1      22.520 -19.914  -2.303 -0.52 -0.00    +0.000    27.695
TER
ENDMDL
MODEL       28
USER    Run = 28
USER    Cluster Rank = 6
USER    Number of conformations in this cluster = 11
USER  
USER    RMSD from reference structure       = 24.066 A
USER  
USER    Estimated Free Energy of Binding    =  -11.94 kcal/mol  [=(1)+(2)+(3)-(4)]
USER    Estimated Inhibition Constant, Ki   =    1.78 nM (nanomolar)  [Temperature = 298.15 K]
USER    
USER    (1) Final Intermolecular Energy     =  -14.62 kcal/mol
USER        vdW + Hbond + desolv Energy     =  -14.62 kcal/mol
USER        Electrostatic Energy            =   +0.00 kcal/mol
USER    (2) Final Total Internal Energy     =   -1.42 kcal/mol
USER    (3) Torsional Free Energy           =   +2.68 kcal/mol
USER    (4) Unbound System's Energy  [=(2)] =   -1.42 kcal/mol
USER    
USER    
USER  
USER    DPF = ligand_dock.biased.dpf
USER    NEWDPF move	ligand.pdbqt
USER    NEWDPF about	1.436000 0.069000 -0.007000
USER    NEWDPF tran0	26.968868 -14.482931 -3.206275
USER    NEWDPF axisangle0	-0.172555 -0.311891 -0.934317 -116.368478
USER    NEWDPF quaternion0	-0.146628 -0.265029 -0.793934 -0.527190
USER    NEWDPF dihe0	-48.60 -96.98 161.54 -25.02 -151.51 -179.00 -40.40 -17.30 -165.78 
USER  
USER                              x       y       z    vdW   Elec        q     RMS 
ATOM      1  C   UNL     1      30.388 -15.777  -1.762 -0.11 -0.00    +0.000    24.066
ATOM      2  C   UNL     1      29.969 -14.825  -2.849 -0.07 -0.00    +0.000    24.066
ATOM      3  C   UNL     1      29.942 -13.441  -2.614 -0.03 -0.00    +0.000    24.066
ATOM      4  C   UNL     1      29.573 -12.556  -3.631 -0.04 -0.00    +0.000    24.066
ATOM      5  C   UNL     1      29.228 -13.045  -4.900 -0.10 -0.00    +0.000    24.066
ATOM      6  C   UNL     1      28.862 -12.164  -5.929 -0.11 -0.00    +0.000    24.066
ATOM      7  C   UNL     1      28.523 -12.657  -7.198 -0.22 -0.00    +0.000    24.066
ATOM      8  C   UNL     1      28.544 -14.041  -7.432 -0.12 -0.00    +0.000    24.066
ATOM      9  C   UNL     1      28.908 -14.925  -6.413 -0.33 -0.00    +0.000    24.066
ATOM     10  C   UNL     1      29.252 -14.438  -5.145 -0.19 -0.00    +0.000    24.066
ATOM     11  C   UNL     1      29.622 -15.318  -4.117 -0.16 -0.00    +0.000    24.066
ATOM     12  C   UNL     1      28.115 -11.703  -8.291 -0.23 -0.00    +0.000    24.066
ATOM     13  N   UNL     1      28.673 -12.122  -9.596 -0.25 -0.00    +0.000    24.066
ATOM     14  H   UNL     1      28.871 -13.110  -9.442 -0.57 -0.00    +0.000    24.066
ATOM     15  C   UNL     1      27.706 -12.141 -10.719 -0.42 -0.00    +0.000    24.066
ATOM     16  C   UNL     1      26.246 -11.878 -10.314 -0.45 -0.00    +0.000    24.066
ATOM     17  C   UNL     1      30.006 -11.565  -9.927 -0.17 -0.00    +0.000    24.066
ATOM     18  C   UNL     1      30.457 -11.823 -11.367 -0.18 -0.00    +0.000    24.066
ATOM     19  O   UNL     1      29.320 -15.980  -0.838 -0.21 -0.00    +0.000    24.066
ATOM     20  O   UNL     1      27.523 -15.876  -2.286 -0.32 -0.00    +0.000    24.066
ATOM     21  C   UNL     1      28.025 -16.342  -1.226 -0.34 -0.00    +0.000    24.066
ATOM     22  N   UNL     1      27.294 -17.280  -0.426 -0.46 -0.00    +0.000    24.066
ATOM     23  H   UNL     1      27.790 -17.783   0.260 -0.40 -0.00    +0.000    24.066
ATOM     24  C   UNL     1      25.886 -17.535  -0.560 -0.56 -0.00    +0.000    24.066
ATOM     25  C   UNL     1      25.041 -16.509  -1.005 -0.51 -0.00    +0.000    24.066
ATOM     26  C   UNL     1      23.671 -16.738  -1.171 -0.44 -0.00    +0.000    24.066
ATOM     27  C   UNL     1      23.122 -18.005  -0.907 -0.71 -0.00    +0.000    24.066
ATOM     28  C   UNL     1      23.977 -19.042  -0.494 -0.37 -0.00    +0.000    24.066
ATOM     29  C   UNL     1      25.346 -18.812  -0.323 -0.25 -0.00    +0.000    24.066
ATOM     30  C   UNL     1      21.673 -18.268  -1.091 -0.70 -0.00    +0.000    24.066
ATOM     31  N   UNL     1      21.207 -19.473  -1.708 -0.67 -0.00    +0.000    24.066
ATOM     32  O   UNL     1      19.881 -19.734  -1.772 -2.38 -0.00    +0.000    24.066
ATOM     33  O   UNL     1      20.833 -17.407  -0.712 -1.99 +0.00    +0.000    24.066
ATOM     34  H   UNL     1      21.853 -20.114  -2.086 -0.55 -0.00    +0.000    24.066
TER
ENDMDL
MODEL       50
USER    Run = 50
USER    Cluster Rank = 7
USER    Number of conformations in this cluster = 3
USER  
USER    RMSD from reference structure       = 20.712 A
USER  
USER    Estimated Free Energy of Binding    =  -11.78 kcal/mol  [=(1)+(2)+(3)-(4)]
USER    Estimated Inhibition Constant, Ki   =    2.33 nM (nanomolar)  [Temperature = 298.15 K]
USER    
USER    (1) Final Intermolecular Energy     =  -14.46 kcal/mol
USER        vdW + Hbond + desolv Energy     =  -14.46 kcal/mol
USER        Electrostatic Energy            =   +0.00 kcal/mol
USER    (2) Final Total Internal Energy     =   -1.41 kcal/mol
USER    (3) Torsional Free Energy           =   +2.68 kcal/mol
USER    (4) Unbound System's Energy  [=(2)] =   -1.41 kcal/mol
USER    
USER    
USER  
USER    DPF = ligand_dock.biased.dpf
USER    NEWDPF move	ligand.pdbqt
USER    NEWDPF about	1.436000 0.069000 -0.007000
USER    NEWDPF tran0	26.180793 -11.500571 -2.528655
USER    NEWDPF axisangle0	-0.790973 0.048590 0.609919 133.841379
USER    NEWDPF quaternion0	-0.727666 0.044701 0.561103 0.392005
USER    NEWDPF dihe0	144.91 -160.07 -75.03 -14.18 -65.85 149.63 152.59 -169.51 -106.75 
USER  
USER                              x       y       z    vdW   Elec        q     RMS 
ATOM      1  C   UNL     1      27.539 -14.510  -0.397 -0.26 -0.00    +0.000    20.712
ATOM      2  C   UNL     1      27.044 -13.120  -0.104 -0.21 -0.00    +0.000    20.712
ATOM      3  C   UNL     1      26.546 -12.792   1.167 -0.31 -0.00    +0.000    20.712
ATOM      4  C   UNL     1      26.106 -11.495   1.442 -0.35 +0.00    +0.000    20.712
ATOM      5  C   UNL     1      26.161 -10.505   0.450 -0.26 +0.00    +0.000    20.712
ATOM      6  C   UNL     1      25.727  -9.199   0.720 -0.20 +0.00    +0.000    20.712
ATOM      7  C   UNL     1      25.789  -8.211  -0.275 -0.25 +0.00    +0.000    20.712
ATOM      8  C   UNL     1      26.282  -8.539  -1.548 -0.16 -0.00    +0.000    20.712
ATOM      9  C   UNL     1      26.717  -9.838  -1.825 -0.12 -0.00    +0.000    20.712
ATOM     10  C   UNL     1      26.661 -10.827  -0.834 +0.05 -0.00    +0.000    20.712
ATOM     11  C   UNL     1      27.098 -12.133  -1.102 -0.07 -0.00    +0.000    20.712
ATOM     12  C   UNL     1      25.305  -6.814   0.020 -0.23 +0.00    +0.000    20.712
ATOM     13  N   UNL     1      24.441  -6.312  -1.070 -0.23 +0.00    +0.000    20.712
ATOM     14  H   UNL     1      23.995  -7.165  -1.407 -0.59 -0.00    +0.000    20.712
ATOM     15  C   UNL     1      23.294  -5.479  -0.635 -0.14 +0.00    +0.000    20.712
ATOM     16  C   UNL     1      22.314  -5.101  -1.757 -0.25 -0.00    +0.000    20.712
ATOM     17  C   UNL     1      25.154  -5.815  -2.271 -0.13 -0.00    +0.000    20.712
ATOM     18  C   UNL     1      24.695  -6.451  -3.586 -0.15 -0.00    +0.000    20.712
ATOM     19  O   UNL     1      27.089 -14.941  -1.680 -0.27 -0.00    +0.000    20.712
ATOM     20  O   UNL     1      25.367 -15.801  -2.958 -0.58 -0.00    +0.000    20.712
ATOM     21  C   UNL     1      26.000 -15.799  -1.865 -0.49 -0.00    +0.000    20.712
ATOM     22  N   UNL     1      25.640 -16.705  -0.815 -0.50 -0.00    +0.000    20.712
ATOM     23  H   UNL     1      26.278 -16.830  -0.077 -0.02 -0.00    +0.000    20.712
ATOM     24  C   UNL     1      24.406 -17.443  -0.769 -0.64 -0.00    +0.000    20.712
ATOM     25  C   UNL     1      23.191 -16.748  -0.723 -0.41 -0.00    +0.000    20.712
ATOM     26  C   UNL     1      21.976 -17.440  -0.706 -0.64 -0.00    +0.000    20.712
ATOM     27  C   UNL     1      21.955 -18.845  -0.747 -0.75 -0.00    +0.000    20.712
ATOM     28  C   UNL     1      23.175 -19.539  -0.827 -0.46 -0.00    +0.000    20.712
ATOM     29  C   UNL     1      24.389 -18.847  -0.840 -0.53 -0.00    +0.000    20.712
ATOM     30  C   UNL     1      20.674 -19.595  -0.744 -0.87 -0.00    +0.000    20.712
ATOM     31  N   UNL     1      20.156 -20.180   0.456 -0.71 -0.00    +0.000    20.712
ATOM     32  O   UNL     1      18.938 -20.769   0.453 -0.90 -0.00    +0.000    20.712
ATOM     33  O   UNL     1      20.033 -19.734  -1.821 -2.39 -0.00    +0.000    20.712
ATOM     34  H   UNL     1      20.687 -20.153   1.285 -0.43 -0.00    +0.000    20.712
TER
ENDMDL
MODEL        7
USER    Run = 7
USER    Cluster Rank = 8
USER    Number of conformations in this cluster = 2
USER  
USER    RMSD from reference structure       = 22.391 A
USER  
USER    Estimated Free Energy of Binding    =  -11.21 kcal/mol  [=(1)+(2)+(3)-(4)]
USER    Estimated Inhibition Constant, Ki   =    6.07 nM (nanomolar)  [Temperature = 298.15 K]
USER    
USER    (1) Final Intermolecular Energy     =  -13.89 kcal/mol
USER        vdW + Hbond + desolv Energy     =  -13.89 kcal/mol
USER        Electrostatic Energy            =   +0.00 kcal/mol
USER    (2) Final Total Internal Energy     =   -1.56 kcal/mol
USER    (3) Torsional Free Energy           =   +2.68 kcal/mol
USER    (4) Unbound System's Energy  [=(2)] =   -1.56 kcal/mol
USER    
USER    
USER  
USER    DPF = ligand_dock.biased.dpf
USER    NEWDPF move	ligand.pdbqt
USER    NEWDPF about	1.436000 0.069000 -0.007000
USER    NEWDPF tran0	24.948751 -13.465821 -3.542704
USER    NEWDPF axisangle0	0.178366 0.293334 0.939223 117.865449
USER    NEWDPF quaternion0	0.152782 0.251259 0.804503 0.516044
USER    NEWDPF dihe0	27.62 133.14 -71.09 -85.74 -12.89 165.07 -57.74 6.19 150.32 
USER  
USER                              x       y       z    vdW   Elec        q     RMS 
ATOM      1  C   UNL     1      28.340 -14.908  -2.175 -0.19 -0.00    +0.000    22.391
ATOM      2  C   UNL     1      27.939 -13.922  -3.239 -0.16 -0.00    +0.000    22.391
ATOM      3  C   UNL     1      27.112 -12.832  -2.925 -0.16 -0.00    +0.000    22.391
ATOM      4  C   UNL     1      26.758 -11.905  -3.910 -0.19 -0.00    +0.000    22.391
ATOM      5  C   UNL     1      27.231 -12.055  -5.222 -0.19 -0.00    +0.000    22.391
ATOM      6  C   UNL     1      26.885 -11.126  -6.215 -0.17 -0.00    +0.000    22.391
ATOM      7  C   UNL     1      27.366 -11.277  -7.525 -0.16 -0.00    +0.000    22.391
ATOM      8  C   UNL     1      28.189 -12.369  -7.840 -0.19 -0.00    +0.000    22.391
ATOM      9  C   UNL     1      28.537 -13.299  -6.857 -0.25 -0.00    +0.000    22.391
ATOM     10  C   UNL     1      28.065 -13.150  -5.546 -0.21 -0.00    +0.000    22.391
ATOM     11  C   UNL     1      28.412 -14.077  -4.551 -0.20 -0.00    +0.000    22.391
ATOM     12  C   UNL     1      26.975 -10.283  -8.589 -0.17 -0.00    +0.000    22.391
ATOM     13  N   UNL     1      25.627 -10.578  -9.122 -0.29 -0.00    +0.000    22.391
ATOM     14  H   UNL     1      25.632 -11.597  -9.175 -0.02 -0.00    +0.000    22.391
ATOM     15  C   UNL     1      24.505 -10.292  -8.196 -0.22 -0.00    +0.000    22.391
ATOM     16  C   UNL     1      24.258  -8.798  -7.931 -0.26 -0.00    +0.000    22.391
ATOM     17  C   UNL     1      25.395 -10.175 -10.529 -0.27 -0.00    +0.000    22.391
ATOM     18  C   UNL     1      26.338 -10.835 -11.538 -0.32 -0.00    +0.000    22.391
ATOM     19  O   UNL     1      27.279 -15.089  -1.238 -0.27 -0.00    +0.000    22.391
ATOM     20  O   UNL     1      25.428 -15.574  -2.532 -0.54 -0.00    +0.000    22.391
ATOM     21  C   UNL     1      26.128 -15.834  -1.514 -0.47 -0.00    +0.000    22.391
ATOM     22  N   UNL     1      25.777 -16.922  -0.649 -0.51 -0.00    +0.000    22.391
ATOM     23  H   UNL     1      26.452 -17.232  -0.004 -0.03 -0.00    +0.000    22.391
ATOM     24  C   UNL     1      24.505 -17.591  -0.664 -0.64 -0.00    +0.000    22.391
ATOM     25  C   UNL     1      23.329 -16.831  -0.710 -0.47 -0.00    +0.000    22.391
ATOM     26  C   UNL     1      22.079 -17.456  -0.753 -0.62 -0.00    +0.000    22.391
ATOM     27  C   UNL     1      21.983 -18.859  -0.765 -0.75 -0.00    +0.000    22.391
ATOM     28  C   UNL     1      23.165 -19.619  -0.753 -0.38 -0.00    +0.000    22.391
ATOM     29  C   UNL     1      24.414 -18.994  -0.705 -0.46 -0.00    +0.000    22.391
ATOM     30  C   UNL     1      20.664 -19.538  -0.824 -0.87 -0.00    +0.000    22.391
ATOM     31  N   UNL     1      20.004 -19.989   0.363 -0.72 -0.00    +0.000    22.391
ATOM     32  O   UNL     1      18.759 -20.513   0.290 -0.94 -0.00    +0.000    22.391
ATOM     33  O   UNL     1      20.118 -19.736  -1.944 -2.37 -0.00    +0.000    22.391
ATOM     34  H   UNL     1      20.456 -19.918   1.235 -0.22 -0.00    +0.000    22.391
TER
ENDMDL
MODEL       14
USER    Run = 14
USER    Cluster Rank = 9
USER    Number of conformations in this cluster = 2
USER  
USER    RMSD from reference structure       = 25.972 A
USER  
USER    Estimated Free Energy of Binding    =  -11.02 kcal/mol  [=(1)+(2)+(3)-(4)]
USER    Estimated Inhibition Constant, Ki   =    8.37 nM (nanomolar)  [Temperature = 298.15 K]
USER    
USER    (1) Final Intermolecular Energy     =  -13.70 kcal/mol
USER        vdW + Hbond + desolv Energy     =  -13.70 kcal/mol
USER        Electrostatic Energy            =   +0.00 kcal/mol
USER    (2) Final Total Internal Energy     =   -1.77 kcal/mol
USER    (3) Torsional Free Energy           =   +2.68 kcal/mol
USER    (4) Unbound System's Energy  [=(2)] =   -1.77 kcal/mol
USER    
USER    
USER  
USER    DPF = ligand_dock.biased.dpf
USER    NEWDPF move	ligand.pdbqt
USER    NEWDPF about	1.436000 0.069000 -0.007000
USER    NEWDPF tran0	28.441095 -14.783321 -3.042500
USER    NEWDPF axisangle0	0.304389 0.437479 0.846144 161.769791
USER    NEWDPF quaternion0	0.300545 0.431954 0.835459 0.158418
USER    NEWDPF dihe0	-126.08 40.65 136.11 -48.71 -176.47 -66.95 -176.26 7.22 -179.97 
USER  
USER                              x       y       z    vdW   Elec        q     RMS 
ATOM      1  C   UNL     1      30.319 -16.812  -0.249 -0.17 -0.00    +0.000    25.972
ATOM      2  C   UNL     1      30.553 -16.513  -1.705 -0.12 -0.00    +0.000    25.972
ATOM      3  C   UNL     1      31.172 -15.316  -2.097 -0.04 -0.00    +0.000    25.972
ATOM      4  C   UNL     1      31.408 -15.049  -3.448 -0.03 -0.00    +0.000    25.972
ATOM      5  C   UNL     1      31.030 -15.980  -4.427 -0.10 -0.00    +0.000    25.972
ATOM      6  C   UNL     1      31.268 -15.723  -5.786 -0.13 -0.00    +0.000    25.972
ATOM      7  C   UNL     1      30.893 -16.660  -6.761 -0.27 -0.00    +0.000    25.972
ATOM      8  C   UNL     1      30.269 -17.855  -6.370 -0.28 -0.00    +0.000    25.972
ATOM      9  C   UNL     1      30.028 -18.119  -5.019 -0.23 -0.00    +0.000    25.972
ATOM     10  C   UNL     1      30.405 -17.189  -4.041 -0.21 -0.00    +0.000    25.972
ATOM     11  C   UNL     1      30.171 -17.446  -2.681 -0.16 -0.00    +0.000    25.972
ATOM     12  C   UNL     1      31.137 -16.367  -8.219 -0.20 -0.00    +0.000    25.972
ATOM     13  N   UNL     1      32.100 -17.329  -8.799 -0.24 -0.00    +0.000    25.972
ATOM     14  H   UNL     1      32.357 -17.896  -7.991 +0.00 -0.00    +0.000    25.972
ATOM     15  C   UNL     1      31.519 -18.318  -9.737 -0.31 -0.00    +0.000    25.972
ATOM     16  C   UNL     1      30.909 -19.558  -9.063 -0.40 -0.00    +0.000    25.972
ATOM     17  C   UNL     1      33.399 -16.753  -9.223 -0.13 -0.00    +0.000    25.972
ATOM     18  C   UNL     1      33.313 -15.316  -9.741 -0.15 -0.00    +0.000    25.972
ATOM     19  O   UNL     1      29.407 -15.870   0.314 -0.21 -0.00    +0.000    25.972
ATOM     20  O   UNL     1      27.288 -14.970   0.501 -0.34 -0.00    +0.000    25.972
ATOM     21  C   UNL     1      28.027 -15.908   0.090 -0.27 -0.00    +0.000    25.972
ATOM     22  N   UNL     1      27.470 -17.003  -0.647 -0.42 -0.00    +0.000    25.972
ATOM     23  H   UNL     1      28.090 -17.592  -1.134 -0.05 -0.00    +0.000    25.972
ATOM     24  C   UNL     1      26.064 -17.298  -0.722 -0.54 -0.00    +0.000    25.972
ATOM     25  C   UNL     1      25.264 -16.604  -1.638 -0.54 -0.00    +0.000    25.972
ATOM     26  C   UNL     1      23.900 -16.891  -1.751 -0.25 -0.00    +0.000    25.972
ATOM     27  C   UNL     1      23.312 -17.889  -0.954 -0.70 -0.00    +0.000    25.972
ATOM     28  C   UNL     1      24.124 -18.608  -0.060 -0.49 -0.00    +0.000    25.972
ATOM     29  C   UNL     1      25.487 -18.318   0.056 -0.55 -0.00    +0.000    25.972
ATOM     30  C   UNL     1      21.869 -18.215  -1.071 -0.73 -0.00    +0.000    25.972
ATOM     31  N   UNL     1      21.429 -19.469  -1.604 -0.65 -0.00    +0.000    25.972
ATOM     32  O   UNL     1      20.113 -19.782  -1.605 -2.29 -0.00    +0.000    25.972
ATOM     33  O   UNL     1      21.009 -17.366  -0.709 -1.98 +0.00    +0.000    25.972
ATOM     34  H   UNL     1      22.085 -20.106  -1.970 -0.52 -0.00    +0.000    25.972
TER
ENDMDL
MODEL       20
USER    Run = 20
USER    Cluster Rank = 10
USER    Number of conformations in this cluster = 1
USER  
USER    RMSD from reference structure       = 26.768 A
USER  
USER    Estimated Free Energy of Binding    =  -11.00 kcal/mol  [=(1)+(2)+(3)-(4)]
USER    Estimated Inhibition Constant, Ki   =    8.58 nM (nanomolar)  [Temperature = 298.15 K]
USER    
USER    (1) Final Intermolecular Energy     =  -13.69 kcal/mol
USER        vdW + Hbond + desolv Energy     =  -13.69 kcal/mol
USER        Electrostatic Energy            =   +0.00 kcal/mol
USER    (2) Final Total Internal Energy     =   -1.67 kcal/mol
USER    (3) Torsional Free Energy           =   +2.68 kcal/mol
USER    (4) Unbound System's Energy  [=(2)] =   -1.67 kcal/mol
USER    
USER    
USER  
USER    DPF = ligand_dock.biased.dpf
USER    NEWDPF move	ligand.pdbqt
USER    NEWDPF about	1.436000 0.069000 -0.007000
USER    NEWDPF tran0	29.920802 -19.303766 -1.890678
USER    NEWDPF axisangle0	-0.048117 -0.996386 -0.070002 -102.839065
USER    NEWDPF quaternion0	-0.037614 -0.778908 -0.054723 -0.623613
USER    NEWDPF dihe0	-147.83 34.05 175.34 -168.91 -19.22 179.36 -31.79 -138.70 -123.19 
USER  
USER                              x       y       z    vdW   Elec        q     RMS 
ATOM      1  C   UNL     1      30.073 -15.400  -1.458 -0.11 -0.00    +0.000    26.768
ATOM      2  C   UNL     1      30.505 -16.385  -2.511 -0.12 -0.00    +0.000    26.768
ATOM      3  C   UNL     1      30.352 -16.085  -3.873 -0.14 -0.00    +0.000    26.768
ATOM      4  C   UNL     1      30.773 -16.993  -4.850 -0.20 -0.00    +0.000    26.768
ATOM      5  C   UNL     1      31.356 -18.212  -4.475 -0.17 -0.00    +0.000    26.768
ATOM      6  C   UNL     1      31.786 -19.126  -5.449 -0.16 -0.00    +0.000    26.768
ATOM      7  C   UNL     1      32.373 -20.343  -5.069 -0.11 -0.00    +0.000    26.768
ATOM      8  C   UNL     1      32.521 -20.645  -3.706 -0.09 -0.00    +0.000    26.768
ATOM      9  C   UNL     1      32.095 -19.741  -2.730 -0.11 -0.00    +0.000    26.768
ATOM     10  C   UNL     1      31.513 -18.522  -3.104 -0.14 -0.00    +0.000    26.768
ATOM     11  C   UNL     1      31.085 -17.606  -2.131 -0.14 -0.00    +0.000    26.768
ATOM     12  C   UNL     1      32.817 -21.325  -6.122 -0.09 -0.00    +0.000    26.768
ATOM     13  N   UNL     1      31.705 -22.216  -6.519 -0.20 -0.00    +0.000    26.768
ATOM     14  H   UNL     1      32.089 -23.142  -6.332 +0.00 -0.00    +0.000    26.768
ATOM     15  C   UNL     1      30.509 -22.162  -5.644 -0.29 -0.00    +0.000    26.768
ATOM     16  C   UNL     1      30.333 -23.381  -4.724 -0.31 -0.00    +0.000    26.768
ATOM     17  C   UNL     1      31.415 -22.266  -7.972 -0.22 -0.00    +0.000    26.768
ATOM     18  C   UNL     1      31.521 -20.915  -8.684 -0.26 -0.00    +0.000    26.768
ATOM     19  O   UNL     1      29.091 -15.983  -0.602 -0.23 -0.00    +0.000    26.768
ATOM     20  O   UNL     1      27.243 -15.606  -1.936 -0.31 -0.00    +0.000    26.768
ATOM     21  C   UNL     1      27.788 -16.277  -1.017 -0.36 -0.00    +0.000    26.768
ATOM     22  N   UNL     1      27.096 -17.378  -0.413 -0.49 -0.00    +0.000    26.768
ATOM     23  H   UNL     1      27.620 -18.006   0.134 -0.37 -0.00    +0.000    26.768
ATOM     24  C   UNL     1      25.686 -17.623  -0.553 -0.58 -0.00    +0.000    26.768
ATOM     25  C   UNL     1      24.811 -16.540  -0.706 -0.45 -0.00    +0.000    26.768
ATOM     26  C   UNL     1      23.439 -16.752  -0.872 -0.43 -0.00    +0.000    26.768
ATOM     27  C   UNL     1      22.917 -18.057  -0.901 -0.72 -0.00    +0.000    26.768
ATOM     28  C   UNL     1      23.801 -19.144  -0.782 -0.55 -0.00    +0.000    26.768
ATOM     29  C   UNL     1      25.172 -18.931  -0.611 -0.19 -0.00    +0.000    26.768
ATOM     30  C   UNL     1      21.465 -18.300  -1.091 -0.68 -0.00    +0.000    26.768
ATOM     31  N   UNL     1      20.985 -19.494  -1.718 -0.72 -0.00    +0.000    26.768
ATOM     32  O   UNL     1      19.656 -19.737  -1.787 -2.23 -0.00    +0.000    26.768
ATOM     33  O   UNL     1      20.635 -17.432  -0.706 -1.99 +0.00    +0.000    26.768
ATOM     34  H   UNL     1      21.623 -20.140  -2.099 -0.54 -0.00    +0.000    26.768
TER
ENDMDL
MODEL       61
USER    Run = 61
USER    Cluster Rank = 11
USER    Number of conformations in this cluster = 2
USER  
USER    RMSD from reference structure       = 27.188 A
USER  
USER    Estimated Free Energy of Binding    =  -10.46 kcal/mol  [=(1)+(2)+(3)-(4)]
USER    Estimated Inhibition Constant, Ki   =   21.53 nM (nanomolar)  [Temperature = 298.15 K]
USER    
USER    (1) Final Intermolecular Energy     =  -13.14 kcal/mol
USER        vdW + Hbond + desolv Energy     =  -13.14 kcal/mol
USER        Electrostatic Energy            =   +0.00 kcal/mol
USER    (2) Final Total Internal Energy     =   -1.93 kcal/mol
USER    (3) Torsional Free Energy           =   +2.68 kcal/mol
USER    (4) Unbound System's Energy  [=(2)] =   -1.93 kcal/mol
USER    
USER    
USER  
USER    DPF = ligand_dock.biased.dpf
USER    NEWDPF move	ligand.pdbqt
USER    NEWDPF about	1.436000 0.069000 -0.007000
USER    NEWDPF tran0	28.729250 -18.919131 -3.313652
USER    NEWDPF axisangle0	-0.277948 -0.901721 -0.331126 174.373655
USER    NEWDPF quaternion0	-0.277613 -0.900634 -0.330727 0.049079
USER    NEWDPF dihe0	-67.72 -77.30 -33.05 114.45 -44.99 -26.14 -136.96 -11.17 -180.00 
USER  
USER                              x       y       z    vdW   Elec        q     RMS 
ATOM      1  C   UNL     1      30.335 -16.127  -1.061 -0.15 -0.00    +0.000    27.188
ATOM      2  C   UNL     1      30.733 -17.504  -1.518 -0.17 -0.00    +0.000    27.188
ATOM      3  C   UNL     1      31.343 -17.693  -2.768 -0.12 -0.00    +0.000    27.188
ATOM      4  C   UNL     1      31.732 -18.970  -3.182 -0.13 -0.00    +0.000    27.188
ATOM      5  C   UNL     1      31.518 -20.077  -2.347 -0.13 -0.00    +0.000    27.188
ATOM      6  C   UNL     1      31.910 -21.362  -2.752 -0.12 -0.00    +0.000    27.188
ATOM      7  C   UNL     1      31.699 -22.465  -1.911 -0.12 -0.00    +0.000    27.188
ATOM      8  C   UNL     1      31.084 -22.278  -0.663 -0.17 -0.00    +0.000    27.188
ATOM      9  C   UNL     1      30.691 -21.002  -0.252 -0.09 -0.00    +0.000    27.188
ATOM     10  C   UNL     1      30.904 -19.896  -1.086 -0.05 -0.00    +0.000    27.188
ATOM     11  C   UNL     1      30.515 -18.610  -0.681 -0.10 -0.00    +0.000    27.188
ATOM     12  C   UNL     1      32.109 -23.844  -2.363 -0.08 -0.00    +0.000    27.188
ATOM     13  N   UNL     1      30.925 -24.705  -2.579 -0.14 -0.00    +0.000    27.188
ATOM     14  H   UNL     1      31.297 -25.441  -3.179 +0.01 -0.00    +0.000    27.188
ATOM     15  C   UNL     1      30.456 -25.446  -1.384 -0.26 -0.00    +0.000    27.188
ATOM     16  C   UNL     1      31.544 -25.719  -0.332 -0.24 -0.00    +0.000    27.188
ATOM     17  C   UNL     1      29.849 -24.112  -3.410 -0.31 -0.00    +0.000    27.188
ATOM     18  C   UNL     1      28.444 -24.617  -3.075 -0.46 -0.00    +0.000    27.188
ATOM     19  O   UNL     1      29.321 -15.593  -1.911 -0.15 -0.00    +0.000    27.188
ATOM     20  O   UNL     1      27.634 -16.344  -3.300 -0.30 -0.00    +0.000    27.188
ATOM     21  C   UNL     1      28.090 -16.222  -2.129 -0.30 -0.00    +0.000    27.188
ATOM     22  N   UNL     1      27.376 -16.763  -1.011 -0.40 -0.00    +0.000    27.188
ATOM     23  H   UNL     1      27.855 -16.844  -0.155 -0.07 -0.00    +0.000    27.188
ATOM     24  C   UNL     1      26.005 -17.193  -1.057 -0.52 -0.00    +0.000    27.188
ATOM     25  C   UNL     1      25.684 -18.508  -0.694 -0.51 -0.00    +0.000    27.188
ATOM     26  C   UNL     1      24.355 -18.944  -0.704 -0.52 -0.00    +0.000    27.188
ATOM     27  C   UNL     1      23.318 -18.066  -1.064 -0.71 -0.00    +0.000    27.188
ATOM     28  C   UNL     1      23.639 -16.738  -1.395 -0.35 -0.00    +0.000    27.188
ATOM     29  C   UNL     1      24.968 -16.303  -1.390 -0.50 -0.00    +0.000    27.188
ATOM     30  C   UNL     1      21.902 -18.509  -1.066 -0.79 -0.00    +0.000    27.188
ATOM     31  N   UNL     1      21.471 -19.624  -1.853 -0.42 -0.00    +0.000    27.188
ATOM     32  O   UNL     1      20.197 -20.071  -1.758 -2.26 -0.00    +0.000    27.188
ATOM     33  O   UNL     1      21.055 -17.883  -0.372 -1.93 +0.00    +0.000    27.188
ATOM     34  H   UNL     1      22.102 -20.069  -2.464 -0.61 -0.00    +0.000    27.188
TER
ENDMDL
MODEL       13
USER    Run = 13
USER    Cluster Rank = 12
USER    Number of conformations in this cluster = 1
USER  
USER    RMSD from reference structure       = 22.230 A
USER  
USER    Estimated Free Energy of Binding    =  -10.25 kcal/mol  [=(1)+(2)+(3)-(4)]
USER    Estimated Inhibition Constant, Ki   =   30.81 nM (nanomolar)  [Temperature = 298.15 K]
USER    
USER    (1) Final Intermolecular Energy     =  -12.93 kcal/mol
USER        vdW + Hbond + desolv Energy     =  -12.93 kcal/mol
USER        Electrostatic Energy            =   +0.00 kcal/mol
USER    (2) Final Total Internal Energy     =   -1.92 kcal/mol
USER    (3) Torsional Free Energy           =   +2.68 kcal/mol
USER    (4) Unbound System's Energy  [=(2)] =   -1.92 kcal/mol
USER    
USER    
USER  
USER    DPF = ligand_dock.biased.dpf
USER    NEWDPF move	ligand.pdbqt
USER    NEWDPF about	1.436000 0.069000 -0.007000
USER    NEWDPF tran0	28.767333 -12.738629 -2.383608
USER    NEWDPF axisangle0	-0.788585 0.104729 0.605941 130.887620
USER    NEWDPF quaternion0	-0.717261 0.095257 0.551137 0.415585
USER    NEWDPF dihe0	-153.12 -67.19 177.71 -119.20 143.29 110.24 -168.60 -160.84 24.21 
USER  
USER                              x       y       z    vdW   Elec        q     RMS 
ATOM      1  C   UNL     1      29.915 -15.568   0.092 -0.16 -0.00    +0.000    22.230
ATOM      2  C   UNL     1      29.468 -14.137   0.223 -0.10 -0.00    +0.000    22.230
ATOM      3  C   UNL     1      30.303 -13.088  -0.191 -0.03 -0.00    +0.000    22.230
ATOM      4  C   UNL     1      29.877 -11.760  -0.087 -0.02 -0.00    +0.000    22.230
ATOM      5  C   UNL     1      28.608 -11.465   0.429 -0.06 -0.00    +0.000    22.230
ATOM      6  C   UNL     1      28.170 -10.136   0.532 -0.08 +0.00    +0.000    22.230
ATOM      7  C   UNL     1      26.896  -9.846   1.044 -0.22 +0.00    +0.000    22.230
ATOM      8  C   UNL     1      26.063 -10.894   1.463 -0.36 +0.00    +0.000    22.230
ATOM      9  C   UNL     1      26.490 -12.221   1.365 -0.31 +0.00    +0.000    22.230
ATOM     10  C   UNL     1      27.760 -12.517   0.849 -0.16 -0.00    +0.000    22.230
ATOM     11  C   UNL     1      28.197 -13.846   0.744 -0.18 -0.00    +0.000    22.230
ATOM     12  C   UNL     1      26.442  -8.414   1.165 -0.12 +0.00    +0.000    22.230
ATOM     13  N   UNL     1      26.072  -7.861  -0.156 -0.22 +0.00    +0.000    22.230
ATOM     14  H   UNL     1      26.980  -7.733  -0.602 +0.00 +0.00    +0.000    22.230
ATOM     15  C   UNL     1      25.378  -8.806  -1.063 -0.26 +0.00    +0.000    22.230
ATOM     16  C   UNL     1      26.199  -9.234  -2.291 -0.19 -0.00    +0.000    22.230
ATOM     17  C   UNL     1      25.515  -6.487  -0.139 -0.21 +0.00    +0.000    22.230
ATOM     18  C   UNL     1      24.356  -6.264  -1.114 -0.22 +0.00    +0.000    22.230
ATOM     19  O   UNL     1      29.497 -16.108  -1.161 -0.19 -0.00    +0.000    22.230
ATOM     20  O   UNL     1      28.094 -17.484  -2.376 -0.04 -0.00    +0.000    22.230
ATOM     21  C   UNL     1      28.289 -16.791  -1.339 -0.35 -0.00    +0.000    22.230
ATOM     22  N   UNL     1      27.293 -16.728  -0.310 -0.40 -0.00    +0.000    22.230
ATOM     23  H   UNL     1      27.560 -16.367   0.566 -0.18 -0.00    +0.000    22.230
ATOM     24  C   UNL     1      25.931 -17.156  -0.473 -0.52 -0.00    +0.000    22.230
ATOM     25  C   UNL     1      24.932 -16.201  -0.703 -0.34 -0.00    +0.000    22.230
ATOM     26  C   UNL     1      23.603 -16.593  -0.893 -0.20 -0.00    +0.000    22.230
ATOM     27  C   UNL     1      23.250 -17.954  -0.869 -0.71 -0.00    +0.000    22.230
ATOM     28  C   UNL     1      24.259 -18.913  -0.672 -0.54 -0.00    +0.000    22.230
ATOM     29  C   UNL     1      25.587 -18.520  -0.478 -0.54 -0.00    +0.000    22.230
ATOM     30  C   UNL     1      21.847 -18.387  -1.083 -0.76 -0.00    +0.000    22.230
ATOM     31  N   UNL     1      21.539 -19.681  -1.613 -0.48 -0.00    +0.000    22.230
ATOM     32  O   UNL     1      20.252 -20.089  -1.703 -2.27 -0.00    +0.000    22.230
ATOM     33  O   UNL     1      20.904 -17.597  -0.806 -2.09 -0.00    +0.000    22.230
ATOM     34  H   UNL     1      22.265 -20.275  -1.914 -0.43 -0.00    +0.000    22.230
TER
ENDMDL
MODEL       60
USER    Run = 60
USER    Cluster Rank = 13
USER    Number of conformations in this cluster = 1
USER  
USER    RMSD from reference structure       = 21.756 A
USER  
USER    Estimated Free Energy of Binding    =   -9.98 kcal/mol  [=(1)+(2)+(3)-(4)]
USER    Estimated Inhibition Constant, Ki   =   48.06 nM (nanomolar)  [Temperature = 298.15 K]
USER    
USER    (1) Final Intermolecular Energy     =  -12.67 kcal/mol
USER        vdW + Hbond + desolv Energy     =  -12.67 kcal/mol
USER        Electrostatic Energy            =   +0.00 kcal/mol
USER    (2) Final Total Internal Energy     =   -1.80 kcal/mol
USER    (3) Torsional Free Energy           =   +2.68 kcal/mol
USER    (4) Unbound System's Energy  [=(2)] =   -1.80 kcal/mol
USER    
USER    
USER  
USER    DPF = ligand_dock.biased.dpf
USER    NEWDPF move	ligand.pdbqt
USER    NEWDPF about	1.436000 0.069000 -0.007000
USER    NEWDPF tran0	26.309330 -14.349219 -3.008769
USER    NEWDPF axisangle0	0.323631 -0.119798 0.938569 80.955727
USER    NEWDPF quaternion0	0.210086 -0.077767 0.609276 0.760657
USER    NEWDPF dihe0	-169.69 62.98 -172.57 -121.62 126.79 -40.21 53.54 -19.89 142.58 
USER  
USER                              x       y       z    vdW   Elec        q     RMS 
ATOM      1  C   UNL     1      29.990 -13.963  -4.331 -0.09 -0.00    +0.000    21.756
ATOM      2  C   UNL     1      28.737 -13.131  -4.374 -0.11 -0.00    +0.000    21.756
ATOM      3  C   UNL     1      27.967 -12.942  -3.215 -0.12 -0.00    +0.000    21.756
ATOM      4  C   UNL     1      26.815 -12.151  -3.252 -0.13 -0.00    +0.000    21.756
ATOM      5  C   UNL     1      26.420 -11.536  -4.448 -0.23 -0.00    +0.000    21.756
ATOM      6  C   UNL     1      25.268 -10.736  -4.493 -0.29 -0.00    +0.000    21.756
ATOM      7  C   UNL     1      24.880 -10.117  -5.691 -0.34 -0.00    +0.000    21.756
ATOM      8  C   UNL     1      25.647 -10.310  -6.850 -0.24 -0.00    +0.000    21.756
ATOM      9  C   UNL     1      26.795 -11.106  -6.815 -0.17 -0.00    +0.000    21.756
ATOM     10  C   UNL     1      27.191 -11.721  -5.620 -0.17 -0.00    +0.000    21.756
ATOM     11  C   UNL     1      28.344 -12.519  -5.574 -0.15 -0.00    +0.000    21.756
ATOM     12  C   UNL     1      23.631  -9.273  -5.732 -0.40 -0.00    +0.000    21.756
ATOM     13  N   UNL     1      23.718  -8.151  -4.772 -0.32 -0.00    +0.000    21.756
ATOM     14  H   UNL     1      23.556  -8.615  -3.878 -0.50 -0.00    +0.000    21.756
ATOM     15  C   UNL     1      25.069  -7.562  -4.609 -0.17 -0.00    +0.000    21.756
ATOM     16  C   UNL     1      25.553  -7.463  -3.154 -0.16 -0.00    +0.000    21.756
ATOM     17  C   UNL     1      22.611  -7.168  -4.839 -0.39 -0.00    +0.000    21.756
ATOM     18  C   UNL     1      21.692  -7.334  -6.052 -0.38 -0.00    +0.000    21.756
ATOM     19  O   UNL     1      29.909 -14.935  -3.290 -0.11 -0.00    +0.000    21.756
ATOM     20  O   UNL     1      28.416 -16.531  -4.039 -0.15 -0.00    +0.000    21.756
ATOM     21  C   UNL     1      28.805 -15.775  -3.106 -0.24 -0.00    +0.000    21.756
ATOM     22  N   UNL     1      28.148 -15.795  -1.832 -0.23 -0.00    +0.000    21.756
ATOM     23  H   UNL     1      28.604 -15.365  -1.074 +0.00 -0.00    +0.000    21.756
ATOM     24  C   UNL     1      26.867 -16.402  -1.591 -0.38 -0.00    +0.000    21.756
ATOM     25  C   UNL     1      26.796 -17.582  -0.840 -0.47 -0.00    +0.000    21.756
ATOM     26  C   UNL     1      25.561 -18.178  -0.567 -0.60 -0.00    +0.000    21.756
ATOM     27  C   UNL     1      24.369 -17.595  -1.031 -0.66 -0.00    +0.000    21.756
ATOM     28  C   UNL     1      24.440 -16.393  -1.755 -0.42 -0.00    +0.000    21.756
ATOM     29  C   UNL     1      25.676 -15.799  -2.032 -0.46 -0.00    +0.000    21.756
ATOM     30  C   UNL     1      23.049 -18.208  -0.738 -0.82 -0.00    +0.000    21.756
ATOM     31  N   UNL     1      21.835 -17.464  -0.882 -0.67 -0.00    +0.000    21.756
ATOM     32  O   UNL     1      20.640 -18.075  -0.707 -2.27 -0.00    +0.000    21.756
ATOM     33  O   UNL     1      22.994 -19.403  -0.340 -0.77 -0.00    +0.000    21.756
ATOM     34  H   UNL     1      21.868 -16.507  -1.109 -0.05 -0.00    +0.000    21.756
TER
ENDMDL


AVSFLD: # AVS field file
AVSFLD: #
AVSFLD: # Created by AutoDock
AVSFLD: #
AVSFLD: ndim=2           # number of dimensions in the field
AVSFLD: nspace=1         # number of physical coordinates
AVSFLD: veclen=7         # vector size
AVSFLD: dim1=34          # atoms
AVSFLD: dim2=13          # conformations
AVSFLD: data=Real       # data type (byte,integer,Real,double)
AVSFLD: field=uniform    # field coordinate layout
AVSFLD: label= x y z vdW Elec q RMS
AVSFLD: variable 1 file = ligand_dock.biased.dlg.pdb filetype = ascii offset = 5 stride = 12
AVSFLD: variable 2 file = ligand_dock.biased.dlg.pdb filetype = ascii offset = 6 stride = 12
AVSFLD: variable 3 file = ligand_dock.biased.dlg.pdb filetype = ascii offset = 7 stride = 12
AVSFLD: variable 4 file = ligand_dock.biased.dlg.pdb filetype = ascii offset = 8 stride = 12
AVSFLD: variable 5 file = ligand_dock.biased.dlg.pdb filetype = ascii offset = 9 stride = 12
AVSFLD: variable 6 file = ligand_dock.biased.dlg.pdb filetype = ascii offset = 10 stride = 12
AVSFLD: variable 7 file = ligand_dock.biased.dlg.pdb filetype = ascii offset = 11 stride = 12
AVSFLD: # end of file

>>> Closing the docking parameter file (DPF)...
This docking finished at:			11:22 01" a.m., 11/08/2024


________________________________________________________________________________

autodock4: Successful Completion on "ThinkStation-P620"

Real= 16m 43.23s,  CPU= 16m 42.91s,  System= 0.20s
________________________________________________________________________________

