REMARK  Name = 
REMARK  5 active torsions:
REMARK  status: ('A' for Active; 'I' for Inactive)
REMARK    1  A    between atoms: S_2  and  N_3
REMARK    2  A    between atoms: S_2  and  C_10
REMARK    3  A    between atoms: N_3  and  C_4
REMARK    4  A    between atoms: C_12  and  C_13
REMARK    5  A    between atoms: C_14  and  C_15
REMARK                            x       y       z     vdW  Elec       q    Type
REMARK                         _______ _______ _______ _____ _____    ______ ____
ROOT
ATOM      1  C   UNL     1      -0.281  -2.129  -0.076  0.00  0.00    +0.000 A 
ATOM      2  C   UNL     1       0.600  -1.062  -0.302  0.00  0.00    +0.000 A 
ATOM      3  C   UNL     1       1.745  -0.896   0.505  0.00  0.00    +0.000 A 
ATOM      4  C   UNL     1       1.977  -1.808   1.548  0.00  0.00    +0.000 A 
ATOM      5  C   UNL     1       1.103  -2.876   1.766  0.00  0.00    +0.000 A 
ATOM      6  C   UNL     1      -0.021  -3.040   0.955  0.00  0.00    +0.000 A 
ENDROOT
BRANCH   1   8
ATOM      7  O   UNL     1      -2.789  -3.064  -0.337  0.00  0.00    +0.000 OA
ATOM      8  S   UNL     1      -1.719  -2.312  -1.078  0.00  0.00    +0.000 S 
ATOM      9  O   UNL     1      -1.349  -3.078  -2.316  0.00  0.00    +0.000 OA
BRANCH   8  10
ATOM     10  N   UNL     1      -2.334  -0.753  -1.532  0.00  0.00    +0.000 N 
ATOM     11  H   UNL     1      -2.494  -0.580  -2.488  0.00  0.00    +0.000 HD
BRANCH  10  12
ATOM     12  C   UNL     1      -2.624   0.300  -0.596  0.00  0.00    +0.000 A 
ATOM     13  C   UNL     1      -2.665   0.072   0.794  0.00  0.00    +0.000 A 
ATOM     14  C   UNL     1      -2.940   1.123   1.674  0.00  0.00    +0.000 A 
ATOM     15  C   UNL     1      -3.182   2.407   1.181  0.00  0.00    +0.000 A 
ATOM     16  C   UNL     1      -3.151   2.642  -0.195  0.00  0.00    +0.000 A 
ATOM     17  C   UNL     1      -2.876   1.595  -1.079  0.00  0.00    +0.000 A 
ENDBRANCH  10  12
ENDBRANCH   8  10
ENDBRANCH   1   8
BRANCH   3  18
ATOM     18  C   UNL     1       2.695   0.230   0.323  0.00  0.00    +0.000 C 
ATOM     19  C   UNL     1       2.832   0.910  -0.825  0.00  0.00    +0.000 C 
BRANCH  19  20
ATOM     20  C   UNL     1       3.779   2.031  -0.998  0.00  0.00    +0.000 C 
ATOM     21  N   UNL     1       4.879   2.251  -0.106  0.00  0.00    +0.000 N 
ATOM     22  O   UNL     1       5.654   3.351  -0.245  0.00  0.00    +0.000 OA
ATOM     23  O   UNL     1       3.621   2.804  -1.981  0.00  0.00    +0.000 OA
ATOM     24  H   UNL     1       5.070   1.601   0.608  0.00  0.00    +0.000 HD
ENDBRANCH  19  20
ENDBRANCH   3  18
TORSDOF 5
