          AutoDock 4.2 Release 4.2.6   
         (C) 1989-2012 The Scripps Research Institute
        AutoDock comes with ABSOLUTELY NO WARRANTY.
        AutoDock is free software, and you are welcome
        to redistribute it under certain conditions;
        for details type 'autodock4 -C'

                     main.cc  $Revision: 1.213 $

                   Compiled on Feb 20 2022 at 09:48:33


This file was created at:			11:05 18" a.m., 11/08/2024
                   on host:		"ThinkStation-P620"
Current Working Directory = "/home/antonio/Documenti/buccheri/IDROSSAMICO HDAC/HDAC 2/DP/Ligand_3"

      ________________________________________________________________

                   SETTING UP DEFAULT PARAMETER LIBRARY
      ________________________________________________________________


Random number generator was seeded with values 333840, 1731060318.
Docking parameter file (DPF) used for this docking:		ligand_dock.biased.dpf
DPF> autodock_parameter_version 4.2       # used by autodock to validate parameter set

	Autodock parameter version 4.2.
DPF> outlev 1                             # diagnostic output level

Output Level = 1  ADT-COMPATIBLE OUTPUT DURING DOCKING.
DPF> intelec                              # calculate internal electrostatics

Electrostatic energies will be calculated for all non-bonds between moving atoms.
DPF> seed pid time                        # seeds for random generator

Random number generator was seeded with values 333840, 1731060318.
DPF> ligand_types A C OA N S HD           # atoms types in ligand

DPF> fld receptor.maps.fld                # grid_data_file

Opening Grid Map Dimensions file:		receptor.maps.fld
Grid Point Spacing =				0.375 Angstroms

Even Number of User-specified Grid Points =	70 x-points
						70 y-points
						70 z-points

Coordinates of Central Grid Point of Maps =	(24.757, -16.735, 0.794)
Macromolecule file used to create Grid Maps =	receptor.pdbqt
Grid Parameter file used to create Grid Maps =	receptor.gpf
Minimum coordinates in grid = (11.632, -29.860, -12.331)
Maximum coordinates in grid = (37.882, -3.610, 13.919)

DPF> map receptor.A.map                   # atom-specific affinity map

DPF> map receptor.C.map                   # atom-specific affinity map

DPF> map receptor.OA.biased.map

DPF> map receptor.N.map                   # atom-specific affinity map

DPF> map receptor.S.map                   # atom-specific affinity map

DPF> map receptor.HD.biased.map

DPF> elecmap receptor.e.map               # electrostatics map

DPF> desolvmap receptor.d.map             # desolvation map

DPF> move ligand.pdbqt                    # small molecule

1,4-interactions will be _ignored_ in the non-bonded internal energy calculation.

Ligand PDBQT file = "ligand.pdbqt"

INPUT LIGAND PDBQT FILE:
________________________

INPUT-LIGAND-PDBQT: REMARK  Name = 
INPUT-LIGAND-PDBQT: REMARK  5 active torsions:
INPUT-LIGAND-PDBQT: REMARK  status: ('A' for Active; 'I' for Inactive)
INPUT-LIGAND-PDBQT: REMARK    1  A    between atoms: S_2  and  N_3
INPUT-LIGAND-PDBQT: REMARK    2  A    between atoms: S_2  and  C_10
INPUT-LIGAND-PDBQT: REMARK    3  A    between atoms: N_3  and  C_4
INPUT-LIGAND-PDBQT: REMARK    4  A    between atoms: C_12  and  C_13
INPUT-LIGAND-PDBQT: REMARK    5  A    between atoms: C_14  and  C_15
INPUT-LIGAND-PDBQT: REMARK                            x       y       z     vdW  Elec       q    Type
INPUT-LIGAND-PDBQT: REMARK                         _______ _______ _______ _____ _____    ______ ____
INPUT-LIGAND-PDBQT: ROOT
INPUT-LIGAND-PDBQT: ATOM      1  C   UNL     1      -0.281  -2.129  -0.076  0.00  0.00    +0.000 A 
INPUT-LIGAND-PDBQT: ATOM      2  C   UNL     1       0.600  -1.062  -0.302  0.00  0.00    +0.000 A 
INPUT-LIGAND-PDBQT: ATOM      3  C   UNL     1       1.745  -0.896   0.505  0.00  0.00    +0.000 A 
INPUT-LIGAND-PDBQT: ATOM      4  C   UNL     1       1.977  -1.808   1.548  0.00  0.00    +0.000 A 
INPUT-LIGAND-PDBQT: ATOM      5  C   UNL     1       1.103  -2.876   1.766  0.00  0.00    +0.000 A 
INPUT-LIGAND-PDBQT: ATOM      6  C   UNL     1      -0.021  -3.040   0.955  0.00  0.00    +0.000 A 
INPUT-LIGAND-PDBQT: ENDROOT
INPUT-LIGAND-PDBQT: BRANCH   1   8
INPUT-LIGAND-PDBQT: ATOM      7  O   UNL     1      -2.789  -3.064  -0.337  0.00  0.00    +0.000 OA
INPUT-LIGAND-PDBQT: ATOM      8  S   UNL     1      -1.719  -2.312  -1.078  0.00  0.00    +0.000 S 
INPUT-LIGAND-PDBQT: ATOM      9  O   UNL     1      -1.349  -3.078  -2.316  0.00  0.00    +0.000 OA
INPUT-LIGAND-PDBQT: BRANCH   8  10
INPUT-LIGAND-PDBQT: ATOM     10  N   UNL     1      -2.334  -0.753  -1.532  0.00  0.00    +0.000 N 
INPUT-LIGAND-PDBQT: ATOM     11  H   UNL     1      -2.494  -0.580  -2.488  0.00  0.00    +0.000 HD
INPUT-LIGAND-PDBQT: BRANCH  10  12
INPUT-LIGAND-PDBQT: ATOM     12  C   UNL     1      -2.624   0.300  -0.596  0.00  0.00    +0.000 A 
INPUT-LIGAND-PDBQT: ATOM     13  C   UNL     1      -2.665   0.072   0.794  0.00  0.00    +0.000 A 
INPUT-LIGAND-PDBQT: ATOM     14  C   UNL     1      -2.940   1.123   1.674  0.00  0.00    +0.000 A 
INPUT-LIGAND-PDBQT: ATOM     15  C   UNL     1      -3.182   2.407   1.181  0.00  0.00    +0.000 A 
INPUT-LIGAND-PDBQT: ATOM     16  C   UNL     1      -3.151   2.642  -0.195  0.00  0.00    +0.000 A 
INPUT-LIGAND-PDBQT: ATOM     17  C   UNL     1      -2.876   1.595  -1.079  0.00  0.00    +0.000 A 
INPUT-LIGAND-PDBQT: ENDBRANCH  10  12
INPUT-LIGAND-PDBQT: ENDBRANCH   8  10
INPUT-LIGAND-PDBQT: ENDBRANCH   1   8
INPUT-LIGAND-PDBQT: BRANCH   3  18
INPUT-LIGAND-PDBQT: ATOM     18  C   UNL     1       2.695   0.230   0.323  0.00  0.00    +0.000 C 
INPUT-LIGAND-PDBQT: ATOM     19  C   UNL     1       2.832   0.910  -0.825  0.00  0.00    +0.000 C 
INPUT-LIGAND-PDBQT: BRANCH  19  20
INPUT-LIGAND-PDBQT: ATOM     20  C   UNL     1       3.779   2.031  -0.998  0.00  0.00    +0.000 C 
INPUT-LIGAND-PDBQT: ATOM     21  N   UNL     1       4.879   2.251  -0.106  0.00  0.00    +0.000 N 
INPUT-LIGAND-PDBQT: ATOM     22  O   UNL     1       5.654   3.351  -0.245  0.00  0.00    +0.000 OA
INPUT-LIGAND-PDBQT: ATOM     23  O   UNL     1       3.621   2.804  -1.981  0.00  0.00    +0.000 OA
INPUT-LIGAND-PDBQT: ATOM     24  H   UNL     1       5.070   1.601   0.608  0.00  0.00    +0.000 HD
INPUT-LIGAND-PDBQT: ENDBRANCH  19  20
INPUT-LIGAND-PDBQT: ENDBRANCH   3  18
INPUT-LIGAND-PDBQT: TORSDOF 5
________________________________________________________________________________

Total charge on ligand                               =	+0.000 e
REMARK  Name = 
REMARK  5 active torsions:
REMARK  status: ('A' for Active; 'I' for Inactive)
REMARK    1  A    between atoms: S_2  and  N_3
REMARK    2  A    between atoms: S_2  and  C_10
REMARK    3  A    between atoms: N_3  and  C_4
REMARK    4  A    between atoms: C_12  and  C_13
REMARK    5  A    between atoms: C_14  and  C_15
REMARK                            x       y       z     vdW  Elec       q    Type
REMARK                         _______ _______ _______ _____ _____    ______ ____


Number of Rotatable Bonds in Small Molecule =	5 torsions
Number of atoms in ligand:  24

Number of non-hydrogen atoms in ligand:  22

Number of vibrational degrees of freedom of ligand:  66


Number of torsional degrees of freedom = 5
Estimated loss of torsional free energy upon binding = +1.4915 kcal/mol


DPF> about 0.230 -0.012 -0.200            # small molecule center

Small molecule center of rotation =	(+0.230, -0.012, -0.200)

DPF> tran0 random                         # initial coordinates/A or random

Initial translation =			(35.069, -26.459, 10.184) Angstroms
DPF> quaternion0 random                   # initial orientation

Each run will begin with a new, random initial orientation.
Initial quaternion,  (x,y,z,w) =	( 0.308, -0.181, -0.804, 0.476 ),
DPF> dihe0 random                         # initial dihedrals (relative) or random

DPF> torsdof 5                            # torsional degrees of freedom

Number of torsional degrees of freedom = 5
Free energy coefficient for torsional degrees of freedom = 0.2983, the factory default value.

Estimated loss of torsional free energy upon binding = +1.4915 kcal/mol

DPF> rmstol 2.0                           # cluster_tolerance/A

Maximum RMS tolerance for conformational cluster analysis = 2.00 Angstroms
DPF> extnrg 1000.0                        # external grid energy

External grid energy (beyond grid map walls) = 1000.00

DPF> e0max 0.0 10000                      # max initial energy; max number of retries

Using user-specified maximum number of retries for simanneal initialization, 10000 retries.
If the simanneal initial energy is greater than e0max, 0.000,
then a new, random initial state will be created.

DPF> ga_pop_size 150                      # number of individuals in population

A population of 150 individuals will be used
DPF> ga_num_evals 2500000                 # maximum number of energy evaluations

There will be at most 2500000 function evaluations used.
DPF> ga_num_generations 27000             # maximum number of generations

The GA will run for at most 27000 generations.
DPF> ga_elitism 1                         # number of top individuals to survive to next generation

The 1 best will be preserved each GA generation.
DPF> ga_mutation_rate 0.02                # rate of gene mutation

The mutation rate is 0.020000.
DPF> ga_crossover_rate 0.8                # rate of crossover

The crossover rate is 0.800000.
DPF> ga_window_size 10                    # 

The GA's selection window is 10 generations.
DPF> ga_cauchy_alpha 0.0                  # Alpha parameter of Cauchy distribution

The alpha parameter (for the Cauchy distribution) is being set to 0.000000.
DPF> ga_cauchy_beta 1.0                   # Beta parameter Cauchy distribution

The beta parameter (for the Cauchy distribution) is being set to 1.000000.
DPF> set_ga                               # set the above parameters for GA or LGA

DPF> sw_max_its 300                       # iterations of Solis & Wets local search

Solis & Wets algorithms will perform at most 300 iterations.
DPF> sw_max_succ 4                        # consecutive successes before changing rho

Solis & Wets algorithms expand rho every 4 in a row successes.
DPF> sw_max_fail 4                        # consecutive failures before changing rho

Solis & Wets algorithms contract rho every 4 in a row failures.
DPF> sw_rho 1.0                           # size of local search space to sample

rho is set to 1.000000.
DPF> sw_lb_rho 0.01                       # lower bound on rho

rho will never get smaller than 0.010000.
DPF> ls_search_freq 0.06                  # probability of performing local search on individual

Local search will be performed with frequency 0.060000.
DPF> set_psw1                             # set the above pseudo-Solis & Wets parameters

Creating a new Local Search object using the pseudo-Solis-Wets algorithm (pSW1) with the current settings.

DPF> unbound_model bound                  # state of unbound ligand

DPF> ga_run 100

centering ligand on specified point: 0.230 -0.012 -0.200
Furthest true ligand atom from "about" center is 6.382 Angstroms (maxrad).
Number of requested GA dockings = 100 runs
Unbound model to be used is 'same as bound' [AutoDock 4.2 default].

	BEGINNING GENETIC ALGORITHM DOCKING 1 of 100
Run: 1 Seed: 307756317 427997338 [ Run 1 of 100 GA/GALS ]
Beginning LAMARCKIAN GENETIC ALGORITHM (LGA), with a maximum of 2500000 energy evaluations.

Final-Value: -15.263


	FINAL GENETIC ALGORITHM DOCKED STATE
	_______________________________________________


Detailed state:  trans 25.133 -15.136 -0.986 quatxyzw -0.508769 0.816743 -0.242679 -0.123257 center 0.230 -0.012 -0.200 ntor 5 61.8737 -179.8386 -52.6850 -107.9742 149.3124
State:	 25.133 -15.136  -0.986  -0.513  0.823 -0.245 -165.840     61.87 -179.84  -52.69 -107.97  149.31

DOCKED: MODEL        1
DOCKED: USER    Run = 1
DOCKED: USER    DPF = ligand_dock.biased.dpf
DOCKED: USER  
DOCKED: USER    Estimated Free Energy of Binding    =  -12.87 kcal/mol  [=(1)+(2)+(3)-(4)]
DOCKED: USER    Estimated Inhibition Constant, Ki   =  367.80 pM (picomolar)  [Temperature = 298.15 K]
DOCKED: USER    
DOCKED: USER    (1) Final Intermolecular Energy     =  -14.36 kcal/mol
DOCKED: USER        vdW + Hbond + desolv Energy     =  -14.36 kcal/mol
DOCKED: USER        Electrostatic Energy            =   +0.00 kcal/mol
DOCKED: USER    (2) Final Total Internal Energy     =   -0.90 kcal/mol
DOCKED: USER    (3) Torsional Free Energy           =   +1.49 kcal/mol
DOCKED: USER    (4) Unbound System's Energy  [=(2)] =   -0.90 kcal/mol
DOCKED: USER    
DOCKED: USER    
DOCKED: USER    NEWDPF move ligand.pdbqt
DOCKED: USER    NEWDPF about 0.230000 -0.012000 -0.200000
DOCKED: USER    NEWDPF tran0 25.133228 -15.136251 -0.985939
DOCKED: USER    NEWDPF quaternion0 -0.508769 0.816743 -0.242679 -0.123257
DOCKED: USER    NEWDPF axisangle0 -0.512678 0.823019 -0.244543 -165.839822
DOCKED: USER    NEWDPF quat0 -0.512678 0.823019 -0.244543 -165.839822
DOCKED: USER    NEWDPF dihe0 61.87 -179.84 -52.69 -107.97 149.31 
DOCKED: USER  keepresnum = 1 
DOCKED: USER  
DOCKED: REMARK  Name = 
DOCKED: REMARK  5 active torsions:
DOCKED: REMARK  status: ('A' for Active; 'I' for Inactive)
DOCKED: REMARK    1  A    between atoms: S_2  and  N_3
DOCKED: REMARK    2  A    between atoms: S_2  and  C_10
DOCKED: REMARK    3  A    between atoms: N_3  and  C_4
DOCKED: REMARK    4  A    between atoms: C_12  and  C_13
DOCKED: REMARK    5  A    between atoms: C_14  and  C_15
DOCKED: REMARK                            x       y       z     vdW  Elec       q    Type
DOCKED: REMARK                         _______ _______ _______ _____ _____    ______ ____
DOCKED: USER                              x       y       z     vdW  Elec       q    Type
DOCKED: USER                           _______ _______ _______ _____ _____    ______ ____
DOCKED: ROOT
DOCKED: ATOM      1  C   UNL     1      27.052 -15.486  -0.010 -0.30 -0.00    +0.000 A 
DOCKED: ATOM      2  C   UNL     1      25.730 -15.821  -0.334 -0.12 -0.00    +0.000 A 
DOCKED: ATOM      3  C   UNL     1      25.446 -16.999  -1.056 -0.55 -0.00    +0.000 A 
DOCKED: ATOM      4  C   UNL     1      26.512 -17.821  -1.458 -0.12 -0.00    +0.000 A 
DOCKED: ATOM      5  C   UNL     1      27.829 -17.491  -1.126 -0.31 -0.00    +0.000 A 
DOCKED: ATOM      6  C   UNL     1      28.100 -16.329  -0.401 -0.29 -0.00    +0.000 A 
DOCKED: ENDROOT
DOCKED: BRANCH   1   8
DOCKED: ATOM      7  O   UNL     1      26.139 -13.195   1.061 -0.41 -0.00    +0.000 OA
DOCKED: ATOM      8  S   UNL     1      27.394 -14.000   0.873 -0.36 -0.00    +0.000 S 
DOCKED: ATOM      9  O   UNL     1      28.384 -13.189   0.087 -0.12 -0.00    +0.000 OA
DOCKED: BRANCH   8  10
DOCKED: ATOM     10  N   UNL     1      28.067 -14.372   2.430 -0.31 -0.00    +0.000 N 
DOCKED: ATOM     11  H   UNL     1      28.461 -15.264   2.562 -1.60 -0.00    +0.000 HD
DOCKED: BRANCH  10  12
DOCKED: ATOM     12  C   UNL     1      28.085 -13.454   3.538 -0.34 -0.00    +0.000 A 
DOCKED: ATOM     13  C   UNL     1      28.414 -13.867   4.844 -0.46 -0.00    +0.000 A 
DOCKED: ATOM     14  C   UNL     1      28.431 -12.944   5.893 -0.40 -0.00    +0.000 A 
DOCKED: ATOM     15  C   UNL     1      28.115 -11.604   5.656 -0.37 +0.00    +0.000 A 
DOCKED: ATOM     16  C   UNL     1      27.780 -11.186   4.367 -0.31 +0.00    +0.000 A 
DOCKED: ATOM     17  C   UNL     1      27.762 -12.105   3.314 -0.26 +0.00    +0.000 A 
DOCKED: ENDBRANCH  10  12
DOCKED: ENDBRANCH   8  10
DOCKED: ENDBRANCH   1   8
DOCKED: BRANCH   3  18
DOCKED: ATOM     18  C   UNL     1      24.067 -17.386  -1.445 -0.71 -0.00    +0.000 C 
DOCKED: ATOM     19  C   UNL     1      23.167 -17.892  -0.590 -0.80 -0.00    +0.000 C 
DOCKED: BRANCH  19  20
DOCKED: ATOM     20  C   UNL     1      21.795 -18.273  -0.985 -0.77 -0.00    +0.000 C 
DOCKED: ATOM     21  N   UNL     1      21.502 -19.511  -1.645 -0.59 -0.00    +0.000 N 
DOCKED: ATOM     22  O   UNL     1      20.247 -19.766  -2.080 -2.33 -0.00    +0.000 OA
DOCKED: ATOM     23  O   UNL     1      20.850 -17.486  -0.707 -2.08 +0.00    +0.000 OA
DOCKED: ATOM     24  H   UNL     1      22.215 -20.175  -1.781 -0.44 -0.00    +0.000 HD
DOCKED: ENDBRANCH  19  20
DOCKED: ENDBRANCH   3  18
DOCKED: TORSDOF 5
DOCKED: TER
DOCKED: ENDMDL
________________________________________________________________________________


	BEGINNING GENETIC ALGORITHM DOCKING 2 of 100
Run: 2 Seed: 1917366487 278192114 [ Run 2 of 100 GA/GALS ]
Beginning LAMARCKIAN GENETIC ALGORITHM (LGA), with a maximum of 2500000 energy evaluations.

Final-Value: -14.982


	FINAL GENETIC ALGORITHM DOCKED STATE
	_______________________________________________


Detailed state:  trans 24.263 -17.637 -3.036 quatxyzw 0.520979 -0.396012 0.737663 -0.166158 center 0.230 -0.012 -0.200 ntor 5 -10.1087 122.1624 -15.6048 173.3669 -156.4249
State:	 24.263 -17.637  -3.036   0.528 -0.402  0.748 -160.871    -10.11  122.16  -15.60  173.37 -156.42

DOCKED: MODEL        2
DOCKED: USER    Run = 2
DOCKED: USER    DPF = ligand_dock.biased.dpf
DOCKED: USER  
DOCKED: USER    Estimated Free Energy of Binding    =  -12.48 kcal/mol  [=(1)+(2)+(3)-(4)]
DOCKED: USER    Estimated Inhibition Constant, Ki   =  707.19 pM (picomolar)  [Temperature = 298.15 K]
DOCKED: USER    
DOCKED: USER    (1) Final Intermolecular Energy     =  -13.97 kcal/mol
DOCKED: USER        vdW + Hbond + desolv Energy     =  -13.97 kcal/mol
DOCKED: USER        Electrostatic Energy            =   +0.00 kcal/mol
DOCKED: USER    (2) Final Total Internal Energy     =   -1.01 kcal/mol
DOCKED: USER    (3) Torsional Free Energy           =   +1.49 kcal/mol
DOCKED: USER    (4) Unbound System's Energy  [=(2)] =   -1.01 kcal/mol
DOCKED: USER    
DOCKED: USER    
DOCKED: USER    NEWDPF move ligand.pdbqt
DOCKED: USER    NEWDPF about 0.230000 -0.012000 -0.200000
DOCKED: USER    NEWDPF tran0 24.262643 -17.636622 -3.035948
DOCKED: USER    NEWDPF quaternion0 0.520979 -0.396012 0.737663 -0.166158
DOCKED: USER    NEWDPF axisangle0 0.528324 -0.401595 0.748061 -160.870989
DOCKED: USER    NEWDPF quat0 0.528324 -0.401595 0.748061 -160.870989
DOCKED: USER    NEWDPF dihe0 -10.11 122.16 -15.60 173.37 -156.42 
DOCKED: USER  keepresnum = 1 
DOCKED: USER  
DOCKED: REMARK  Name = 
DOCKED: REMARK  5 active torsions:
DOCKED: REMARK  status: ('A' for Active; 'I' for Inactive)
DOCKED: REMARK    1  A    between atoms: S_2  and  N_3
DOCKED: REMARK    2  A    between atoms: S_2  and  C_10
DOCKED: REMARK    3  A    between atoms: N_3  and  C_4
DOCKED: REMARK    4  A    between atoms: C_12  and  C_13
DOCKED: REMARK    5  A    between atoms: C_14  and  C_15
DOCKED: REMARK                            x       y       z     vdW  Elec       q    Type
DOCKED: REMARK                         _______ _______ _______ _____ _____    ______ ____
DOCKED: USER                              x       y       z     vdW  Elec       q    Type
DOCKED: USER                           _______ _______ _______ _____ _____    ______ ____
DOCKED: ROOT
DOCKED: ATOM      1  C   UNL     1      25.940 -16.309  -2.608 -0.44 -0.00    +0.000 A 
DOCKED: ATOM      2  C   UNL     1      24.740 -16.959  -2.286 -0.39 -0.00    +0.000 A 
DOCKED: ATOM      3  C   UNL     1      24.684 -17.866  -1.208 -0.64 -0.00    +0.000 A 
DOCKED: ATOM      4  C   UNL     1      25.855 -18.120  -0.474 -0.59 -0.00    +0.000 A 
DOCKED: ATOM      5  C   UNL     1      27.048 -17.464  -0.790 -0.46 -0.00    +0.000 A 
DOCKED: ATOM      6  C   UNL     1      27.091 -16.558  -1.851 -0.36 -0.00    +0.000 A 
DOCKED: ENDROOT
DOCKED: BRANCH   1   8
DOCKED: ATOM      7  O   UNL     1      24.864 -14.211  -3.902 -1.00 -0.00    +0.000 OA
DOCKED: ATOM      8  S   UNL     1      26.000 -15.194  -3.971 -0.72 -0.00    +0.000 S 
DOCKED: ATOM      9  O   UNL     1      25.889 -15.983  -5.244 -1.13 +0.00    +0.000 OA
DOCKED: BRANCH   8  10
DOCKED: ATOM     10  N   UNL     1      27.502 -14.323  -3.966 -0.26 -0.00    +0.000 N 
DOCKED: ATOM     11  H   UNL     1      27.718 -13.778  -3.175 +0.00 -0.00    +0.000 HD
DOCKED: BRANCH  10  12
DOCKED: ATOM     12  C   UNL     1      28.450 -14.351  -5.047 -0.26 -0.00    +0.000 A 
DOCKED: ATOM     13  C   UNL     1      28.680 -13.228  -5.867 -0.20 -0.00    +0.000 A 
DOCKED: ATOM     14  C   UNL     1      29.618 -13.289  -6.902 -0.20 -0.00    +0.000 A 
DOCKED: ATOM     15  C   UNL     1      30.330 -14.467  -7.136 -0.23 -0.00    +0.000 A 
DOCKED: ATOM     16  C   UNL     1      30.105 -15.588  -6.334 -0.29 -0.00    +0.000 A 
DOCKED: ATOM     17  C   UNL     1      29.169 -15.532  -5.297 -0.30 -0.00    +0.000 A 
DOCKED: ENDBRANCH  10  12
DOCKED: ENDBRANCH   8  10
DOCKED: ENDBRANCH   1   8
DOCKED: BRANCH   3  18
DOCKED: ATOM     18  C   UNL     1      23.446 -18.598  -0.841 -0.82 -0.00    +0.000 C 
DOCKED: ATOM     19  C   UNL     1      22.220 -18.056  -0.886 -0.78 -0.00    +0.000 C 
DOCKED: BRANCH  19  20
DOCKED: ATOM     20  C   UNL     1      20.991 -18.792  -0.522 -0.82 -0.00    +0.000 C 
DOCKED: ATOM     21  N   UNL     1      21.025 -20.098   0.066 -0.62 -0.00    +0.000 N 
DOCKED: ATOM     22  O   UNL     1      19.873 -20.773   0.284 -0.99 -0.00    +0.000 OA
DOCKED: ATOM     23  O   UNL     1      19.878 -18.234  -0.716 -1.89 -0.00    +0.000 OA
DOCKED: ATOM     24  H   UNL     1      21.888 -20.505   0.311 -0.59 -0.00    +0.000 HD
DOCKED: ENDBRANCH  19  20
DOCKED: ENDBRANCH   3  18
DOCKED: TORSDOF 5
DOCKED: TER
DOCKED: ENDMDL
________________________________________________________________________________


	BEGINNING GENETIC ALGORITHM DOCKING 3 of 100
Run: 3 Seed: 1841953679 718327670 [ Run 3 of 100 GA/GALS ]
Beginning LAMARCKIAN GENETIC ALGORITHM (LGA), with a maximum of 2500000 energy evaluations.

Final-Value: -14.465


	FINAL GENETIC ALGORITHM DOCKED STATE
	_______________________________________________


Detailed state:  trans 24.638 -17.072 -3.203 quatxyzw 0.381872 -0.465339 0.746980 -0.282232 center 0.230 -0.012 -0.200 ntor 5 161.6948 -125.0012 164.7198 -60.4138 126.1170
State:	 24.638 -17.072  -3.203   0.398 -0.485  0.779 -147.213    161.69 -125.00  164.72  -60.41  126.12

DOCKED: MODEL        3
DOCKED: USER    Run = 3
DOCKED: USER    DPF = ligand_dock.biased.dpf
DOCKED: USER  
DOCKED: USER    Estimated Free Energy of Binding    =  -12.00 kcal/mol  [=(1)+(2)+(3)-(4)]
DOCKED: USER    Estimated Inhibition Constant, Ki   =    1.60 nM (nanomolar)  [Temperature = 298.15 K]
DOCKED: USER    
DOCKED: USER    (1) Final Intermolecular Energy     =  -13.49 kcal/mol
DOCKED: USER        vdW + Hbond + desolv Energy     =  -13.49 kcal/mol
DOCKED: USER        Electrostatic Energy            =   +0.00 kcal/mol
DOCKED: USER    (2) Final Total Internal Energy     =   -0.98 kcal/mol
DOCKED: USER    (3) Torsional Free Energy           =   +1.49 kcal/mol
DOCKED: USER    (4) Unbound System's Energy  [=(2)] =   -0.98 kcal/mol
DOCKED: USER    
DOCKED: USER    
DOCKED: USER    NEWDPF move ligand.pdbqt
DOCKED: USER    NEWDPF about 0.230000 -0.012000 -0.200000
DOCKED: USER    NEWDPF tran0 24.638027 -17.071935 -3.202665
DOCKED: USER    NEWDPF quaternion0 0.381872 -0.465339 0.746980 -0.282232
DOCKED: USER    NEWDPF axisangle0 0.398055 -0.485058 0.778634 -147.213100
DOCKED: USER    NEWDPF quat0 0.398055 -0.485058 0.778634 -147.213100
DOCKED: USER    NEWDPF dihe0 161.69 -125.00 164.72 -60.41 126.12 
DOCKED: USER  keepresnum = 1 
DOCKED: USER  
DOCKED: REMARK  Name = 
DOCKED: REMARK  5 active torsions:
DOCKED: REMARK  status: ('A' for Active; 'I' for Inactive)
DOCKED: REMARK    1  A    between atoms: S_2  and  N_3
DOCKED: REMARK    2  A    between atoms: S_2  and  C_10
DOCKED: REMARK    3  A    between atoms: N_3  and  C_4
DOCKED: REMARK    4  A    between atoms: C_12  and  C_13
DOCKED: REMARK    5  A    between atoms: C_14  and  C_15
DOCKED: REMARK                            x       y       z     vdW  Elec       q    Type
DOCKED: REMARK                         _______ _______ _______ _____ _____    ______ ____
DOCKED: USER                              x       y       z     vdW  Elec       q    Type
DOCKED: USER                           _______ _______ _______ _____ _____    ______ ____
DOCKED: ROOT
DOCKED: ATOM      1  C   UNL     1      26.602 -16.356  -2.579 -0.33 -0.00    +0.000 A 
DOCKED: ATOM      2  C   UNL     1      25.219 -16.527  -2.419 -0.49 -0.00    +0.000 A 
DOCKED: ATOM      3  C   UNL     1      24.710 -17.253  -1.322 -0.61 -0.00    +0.000 A 
DOCKED: ATOM      4  C   UNL     1      25.613 -17.816  -0.405 -0.60 -0.00    +0.000 A 
DOCKED: ATOM      5  C   UNL     1      26.989 -17.637  -0.560 -0.47 -0.00    +0.000 A 
DOCKED: ATOM      6  C   UNL     1      27.484 -16.906  -1.641 -0.33 -0.00    +0.000 A 
DOCKED: ENDROOT
DOCKED: BRANCH   1   8
DOCKED: ATOM      7  O   UNL     1      26.285 -15.575  -5.133 -1.14 +0.00    +0.000 OA
DOCKED: ATOM      8  S   UNL     1      27.225 -15.464  -3.965 -0.49 -0.00    +0.000 S 
DOCKED: ATOM      9  O   UNL     1      28.557 -16.042  -4.351 -0.37 -0.00    +0.000 OA
DOCKED: BRANCH   8  10
DOCKED: ATOM     10  N   UNL     1      27.425 -13.788  -3.557 -0.21 -0.00    +0.000 N 
DOCKED: ATOM     11  H   UNL     1      28.115 -13.553  -2.894 +0.01 -0.00    +0.000 HD
DOCKED: BRANCH  10  12
DOCKED: ATOM     12  C   UNL     1      26.646 -12.723  -4.129 -0.26 -0.00    +0.000 A 
DOCKED: ATOM     13  C   UNL     1      27.231 -11.510  -4.543 -0.15 -0.00    +0.000 A 
DOCKED: ATOM     14  C   UNL     1      26.442 -10.501  -5.104 -0.18 -0.00    +0.000 A 
DOCKED: ATOM     15  C   UNL     1      25.066 -10.687  -5.254 -0.36 -0.00    +0.000 A 
DOCKED: ATOM     16  C   UNL     1      24.475 -11.882  -4.840 -0.23 -0.00    +0.000 A 
DOCKED: ATOM     17  C   UNL     1      25.259 -12.894  -4.279 -0.23 -0.00    +0.000 A 
DOCKED: ENDBRANCH  10  12
DOCKED: ENDBRANCH   8  10
DOCKED: ENDBRANCH   1   8
DOCKED: BRANCH   3  18
DOCKED: ATOM     18  C   UNL     1      23.258 -17.484  -1.121 -0.71 -0.00    +0.000 C 
DOCKED: ATOM     19  C   UNL     1      22.744 -18.631  -0.653 -0.83 -0.00    +0.000 C 
DOCKED: BRANCH  19  20
DOCKED: ATOM     20  C   UNL     1      21.296 -18.852  -0.454 -0.84 -0.00    +0.000 C 
DOCKED: ATOM     21  N   UNL     1      20.770 -20.090   0.040 -0.69 -0.00    +0.000 N 
DOCKED: ATOM     22  O   UNL     1      19.432 -20.280   0.104 -1.12 -0.00    +0.000 OA
DOCKED: ATOM     23  O   UNL     1      20.504 -17.905  -0.707 -2.29 -0.00    +0.000 OA
DOCKED: ATOM     24  H   UNL     1      21.383 -20.803   0.331 -0.57 -0.00    +0.000 HD
DOCKED: ENDBRANCH  19  20
DOCKED: ENDBRANCH   3  18
DOCKED: TORSDOF 5
DOCKED: TER
DOCKED: ENDMDL
________________________________________________________________________________


	BEGINNING GENETIC ALGORITHM DOCKING 4 of 100
Run: 4 Seed: 1873875289 1793495309 [ Run 4 of 100 GA/GALS ]
Beginning LAMARCKIAN GENETIC ALGORITHM (LGA), with a maximum of 2500000 energy evaluations.

Final-Value: -14.456


	FINAL GENETIC ALGORITHM DOCKED STATE
	_______________________________________________


Detailed state:  trans 24.677 -16.981 -3.090 quatxyzw 0.375171 -0.522891 0.720424 -0.258495 center 0.230 -0.012 -0.200 ntor 5 163.6066 -95.0517 177.7028 173.8348 -128.9419
State:	 24.677 -16.981  -3.090   0.388 -0.541  0.746 -150.038    163.61  -95.05  177.70  173.83 -128.94

DOCKED: MODEL        4
DOCKED: USER    Run = 4
DOCKED: USER    DPF = ligand_dock.biased.dpf
DOCKED: USER  
DOCKED: USER    Estimated Free Energy of Binding    =  -12.01 kcal/mol  [=(1)+(2)+(3)-(4)]
DOCKED: USER    Estimated Inhibition Constant, Ki   =    1.58 nM (nanomolar)  [Temperature = 298.15 K]
DOCKED: USER    
DOCKED: USER    (1) Final Intermolecular Energy     =  -13.50 kcal/mol
DOCKED: USER        vdW + Hbond + desolv Energy     =  -13.50 kcal/mol
DOCKED: USER        Electrostatic Energy            =   +0.00 kcal/mol
DOCKED: USER    (2) Final Total Internal Energy     =   -0.96 kcal/mol
DOCKED: USER    (3) Torsional Free Energy           =   +1.49 kcal/mol
DOCKED: USER    (4) Unbound System's Energy  [=(2)] =   -0.96 kcal/mol
DOCKED: USER    
DOCKED: USER    
DOCKED: USER    NEWDPF move ligand.pdbqt
DOCKED: USER    NEWDPF about 0.230000 -0.012000 -0.200000
DOCKED: USER    NEWDPF tran0 24.677409 -16.980508 -3.090319
DOCKED: USER    NEWDPF quaternion0 0.375171 -0.522891 0.720424 -0.258495
DOCKED: USER    NEWDPF axisangle0 0.388371 -0.541288 0.745771 -150.038399
DOCKED: USER    NEWDPF quat0 0.388371 -0.541288 0.745771 -150.038399
DOCKED: USER    NEWDPF dihe0 163.61 -95.05 177.70 173.83 -128.94 
DOCKED: USER  keepresnum = 1 
DOCKED: USER  
DOCKED: REMARK  Name = 
DOCKED: REMARK  5 active torsions:
DOCKED: REMARK  status: ('A' for Active; 'I' for Inactive)
DOCKED: REMARK    1  A    between atoms: S_2  and  N_3
DOCKED: REMARK    2  A    between atoms: S_2  and  C_10
DOCKED: REMARK    3  A    between atoms: N_3  and  C_4
DOCKED: REMARK    4  A    between atoms: C_12  and  C_13
DOCKED: REMARK    5  A    between atoms: C_14  and  C_15
DOCKED: REMARK                            x       y       z     vdW  Elec       q    Type
DOCKED: REMARK                         _______ _______ _______ _____ _____    ______ ____
DOCKED: USER                              x       y       z     vdW  Elec       q    Type
DOCKED: USER                           _______ _______ _______ _____ _____    ______ ____
DOCKED: ROOT
DOCKED: ATOM      1  C   UNL     1      26.629 -16.411  -2.299 -0.36 -0.00    +0.000 A 
DOCKED: ATOM      2  C   UNL     1      25.236 -16.556  -2.220 -0.52 -0.00    +0.000 A 
DOCKED: ATOM      3  C   UNL     1      24.658 -17.396  -1.246 -0.62 -0.00    +0.000 A 
DOCKED: ATOM      4  C   UNL     1      25.502 -18.097  -0.369 -0.62 -0.00    +0.000 A 
DOCKED: ATOM      5  C   UNL     1      26.889 -17.945  -0.443 -0.47 -0.00    +0.000 A 
DOCKED: ATOM      6  C   UNL     1      27.452 -17.102  -1.402 -0.37 -0.00    +0.000 A 
DOCKED: ENDROOT
DOCKED: BRANCH   1   8
DOCKED: ATOM      7  O   UNL     1      27.193 -13.927  -3.160 -0.24 -0.00    +0.000 OA
DOCKED: ATOM      8  S   UNL     1      27.339 -15.375  -3.535 -0.46 -0.00    +0.000 S 
DOCKED: ATOM      9  O   UNL     1      26.628 -15.619  -4.835 -0.96 -0.00    +0.000 OA
DOCKED: BRANCH   8  10
DOCKED: ATOM     10  N   UNL     1      29.025 -15.742  -3.727 -0.22 -0.00    +0.000 N 
DOCKED: ATOM     11  H   UNL     1      29.610 -15.655  -2.939 +0.00 -0.00    +0.000 HD
DOCKED: BRANCH  10  12
DOCKED: ATOM     12  C   UNL     1      29.619 -16.167  -4.966 -0.27 -0.00    +0.000 A 
DOCKED: ATOM     13  C   UNL     1      30.033 -17.497  -5.178 -0.29 -0.00    +0.000 A 
DOCKED: ATOM     14  C   UNL     1      30.596 -17.874  -6.401 -0.32 -0.00    +0.000 A 
DOCKED: ATOM     15  C   UNL     1      30.759 -16.934  -7.420 -0.29 -0.00    +0.000 A 
DOCKED: ATOM     16  C   UNL     1      30.360 -15.611  -7.217 -0.26 -0.00    +0.000 A 
DOCKED: ATOM     17  C   UNL     1      29.795 -15.229  -5.997 -0.27 -0.00    +0.000 A 
DOCKED: ENDBRANCH  10  12
DOCKED: ENDBRANCH   8  10
DOCKED: ENDBRANCH   1   8
DOCKED: BRANCH   3  18
DOCKED: ATOM     18  C   UNL     1      23.192 -17.602  -1.137 -0.71 -0.00    +0.000 C 
DOCKED: ATOM     19  C   UNL     1      22.632 -18.697  -0.601 -0.83 -0.00    +0.000 C 
DOCKED: BRANCH  19  20
DOCKED: ATOM     20  C   UNL     1      21.172 -18.895  -0.494 -0.85 -0.00    +0.000 C 
DOCKED: ATOM     21  N   UNL     1      20.597 -20.060   0.111 -0.71 -0.00    +0.000 N 
DOCKED: ATOM     22  O   UNL     1      19.257 -20.243   0.089 -1.10 -0.00    +0.000 OA
DOCKED: ATOM     23  O   UNL     1      20.410 -17.991  -0.933 -2.20 -0.00    +0.000 OA
DOCKED: ATOM     24  H   UNL     1      21.178 -20.727   0.542 -0.55 -0.00    +0.000 HD
DOCKED: ENDBRANCH  19  20
DOCKED: ENDBRANCH   3  18
DOCKED: TORSDOF 5
DOCKED: TER
DOCKED: ENDMDL
________________________________________________________________________________


	BEGINNING GENETIC ALGORITHM DOCKING 5 of 100
Run: 5 Seed: 1804493971 755911211 [ Run 5 of 100 GA/GALS ]
Beginning LAMARCKIAN GENETIC ALGORITHM (LGA), with a maximum of 2500000 energy evaluations.

Final-Value: -15.450


	FINAL GENETIC ALGORITHM DOCKED STATE
	_______________________________________________


Detailed state:  trans 24.098 -17.709 -2.912 quatxyzw 0.529579 -0.388386 0.735288 -0.167491 center 0.230 -0.012 -0.200 ntor 5 0.3653 115.4696 34.1536 160.6190 -150.6565
State:	 24.098 -17.709  -2.912   0.537 -0.394  0.746 -160.716      0.37  115.47   34.15  160.62 -150.66

DOCKED: MODEL        5
DOCKED: USER    Run = 5
DOCKED: USER    DPF = ligand_dock.biased.dpf
DOCKED: USER  
DOCKED: USER    Estimated Free Energy of Binding    =  -12.92 kcal/mol  [=(1)+(2)+(3)-(4)]
DOCKED: USER    Estimated Inhibition Constant, Ki   =  337.26 pM (picomolar)  [Temperature = 298.15 K]
DOCKED: USER    
DOCKED: USER    (1) Final Intermolecular Energy     =  -14.41 kcal/mol
DOCKED: USER        vdW + Hbond + desolv Energy     =  -14.41 kcal/mol
DOCKED: USER        Electrostatic Energy            =   +0.00 kcal/mol
DOCKED: USER    (2) Final Total Internal Energy     =   -1.04 kcal/mol
DOCKED: USER    (3) Torsional Free Energy           =   +1.49 kcal/mol
DOCKED: USER    (4) Unbound System's Energy  [=(2)] =   -1.04 kcal/mol
DOCKED: USER    
DOCKED: USER    
DOCKED: USER    NEWDPF move ligand.pdbqt
DOCKED: USER    NEWDPF about 0.230000 -0.012000 -0.200000
DOCKED: USER    NEWDPF tran0 24.097540 -17.709241 -2.911891
DOCKED: USER    NEWDPF quaternion0 0.529579 -0.388386 0.735288 -0.167491
DOCKED: USER    NEWDPF axisangle0 0.537168 -0.393951 0.745824 -160.716038
DOCKED: USER    NEWDPF quat0 0.537168 -0.393951 0.745824 -160.716038
DOCKED: USER    NEWDPF dihe0 0.37 115.47 34.15 160.62 -150.66 
DOCKED: USER  keepresnum = 1 
DOCKED: USER  
DOCKED: REMARK  Name = 
DOCKED: REMARK  5 active torsions:
DOCKED: REMARK  status: ('A' for Active; 'I' for Inactive)
DOCKED: REMARK    1  A    between atoms: S_2  and  N_3
DOCKED: REMARK    2  A    between atoms: S_2  and  C_10
DOCKED: REMARK    3  A    between atoms: N_3  and  C_4
DOCKED: REMARK    4  A    between atoms: C_12  and  C_13
DOCKED: REMARK    5  A    between atoms: C_14  and  C_15
DOCKED: REMARK                            x       y       z     vdW  Elec       q    Type
DOCKED: REMARK                         _______ _______ _______ _____ _____    ______ ____
DOCKED: USER                              x       y       z     vdW  Elec       q    Type
DOCKED: USER                           _______ _______ _______ _____ _____    ______ ____
DOCKED: ROOT
DOCKED: ATOM      1  C   UNL     1      25.766 -16.358  -2.526 -0.47 -0.00    +0.000 A 
DOCKED: ATOM      2  C   UNL     1      24.580 -17.020  -2.176 -0.39 -0.00    +0.000 A 
DOCKED: ATOM      3  C   UNL     1      24.556 -17.919  -1.090 -0.66 -0.00    +0.000 A 
DOCKED: ATOM      4  C   UNL     1      25.744 -18.153  -0.377 -0.60 -0.00    +0.000 A 
DOCKED: ATOM      5  C   UNL     1      26.922 -17.486  -0.721 -0.48 -0.00    +0.000 A 
DOCKED: ATOM      6  C   UNL     1      26.934 -16.588  -1.789 -0.38 -0.00    +0.000 A 
DOCKED: ENDROOT
DOCKED: BRANCH   1   8
DOCKED: ATOM      7  O   UNL     1      24.728 -14.197  -3.745 -1.01 -0.00    +0.000 OA
DOCKED: ATOM      8  S   UNL     1      25.787 -15.253  -3.898 -0.72 -0.00    +0.000 S 
DOCKED: ATOM      9  O   UNL     1      25.520 -16.037  -5.152 -1.00 -0.00    +0.000 OA
DOCKED: BRANCH   8  10
DOCKED: ATOM     10  N   UNL     1      27.339 -14.484  -4.023 -0.29 -0.00    +0.000 N 
DOCKED: ATOM     11  H   UNL     1      27.573 -13.805  -3.351 +0.00 -0.00    +0.000 HD
DOCKED: BRANCH  10  12
DOCKED: ATOM     12  C   UNL     1      28.302 -14.781  -5.050 -0.31 -0.00    +0.000 A 
DOCKED: ATOM     13  C   UNL     1      28.513 -13.921  -6.146 -0.29 -0.00    +0.000 A 
DOCKED: ATOM     14  C   UNL     1      29.466 -14.238  -7.118 -0.29 -0.00    +0.000 A 
DOCKED: ATOM     15  C   UNL     1      30.213 -15.413  -7.014 -0.28 -0.00    +0.000 A 
DOCKED: ATOM     16  C   UNL     1      30.006 -16.276  -5.936 -0.30 -0.00    +0.000 A 
DOCKED: ATOM     17  C   UNL     1      29.055 -15.964  -4.960 -0.29 -0.00    +0.000 A 
DOCKED: ENDBRANCH  10  12
DOCKED: ENDBRANCH   8  10
DOCKED: ENDBRANCH   1   8
DOCKED: BRANCH   3  18
DOCKED: ATOM     18  C   UNL     1      23.334 -18.663  -0.695 -0.82 -0.00    +0.000 C 
DOCKED: ATOM     19  C   UNL     1      22.223 -18.721  -1.445 -0.64 -0.00    +0.000 C 
DOCKED: BRANCH  19  20
DOCKED: ATOM     20  C   UNL     1      21.010 -19.465  -1.045 -0.84 -0.00    +0.000 C 
DOCKED: ATOM     21  N   UNL     1      20.766 -19.863   0.310 -0.67 -0.00    +0.000 N 
DOCKED: ATOM     22  O   UNL     1      19.694 -20.634   0.606 -0.87 -0.00    +0.000 OA
DOCKED: ATOM     23  O   UNL     1      20.154 -19.736  -1.929 -2.37 -0.00    +0.000 OA
DOCKED: ATOM     24  H   UNL     1      21.378 -19.576   1.024 -0.45 -0.00    +0.000 HD
DOCKED: ENDBRANCH  19  20
DOCKED: ENDBRANCH   3  18
DOCKED: TORSDOF 5
DOCKED: TER
DOCKED: ENDMDL
________________________________________________________________________________


	BEGINNING GENETIC ALGORITHM DOCKING 6 of 100
Run: 6 Seed: 1859264742 1897826865 [ Run 6 of 100 GA/GALS ]
Beginning LAMARCKIAN GENETIC ALGORITHM (LGA), with a maximum of 2500000 energy evaluations.

Final-Value: -14.945


	FINAL GENETIC ALGORITHM DOCKED STATE
	_______________________________________________


Detailed state:  trans 24.461 -16.789 -2.970 quatxyzw -0.448100 0.449899 -0.717749 0.285716 center 0.230 -0.012 -0.200 ntor 5 -156.6828 108.4306 123.2404 142.0408 -142.6135
State:	 24.461 -16.789  -2.970  -0.468  0.469 -0.749 146.797   -156.68  108.43  123.24  142.04 -142.61

DOCKED: MODEL        6
DOCKED: USER    Run = 6
DOCKED: USER    DPF = ligand_dock.biased.dpf
DOCKED: USER  
DOCKED: USER    Estimated Free Energy of Binding    =  -12.41 kcal/mol  [=(1)+(2)+(3)-(4)]
DOCKED: USER    Estimated Inhibition Constant, Ki   =  800.02 pM (picomolar)  [Temperature = 298.15 K]
DOCKED: USER    
DOCKED: USER    (1) Final Intermolecular Energy     =  -13.90 kcal/mol
DOCKED: USER        vdW + Hbond + desolv Energy     =  -13.90 kcal/mol
DOCKED: USER        Electrostatic Energy            =   +0.00 kcal/mol
DOCKED: USER    (2) Final Total Internal Energy     =   -1.04 kcal/mol
DOCKED: USER    (3) Torsional Free Energy           =   +1.49 kcal/mol
DOCKED: USER    (4) Unbound System's Energy  [=(2)] =   -1.04 kcal/mol
DOCKED: USER    
DOCKED: USER    
DOCKED: USER    NEWDPF move ligand.pdbqt
DOCKED: USER    NEWDPF about 0.230000 -0.012000 -0.200000
DOCKED: USER    NEWDPF tran0 24.461398 -16.789237 -2.970110
DOCKED: USER    NEWDPF quaternion0 -0.448100 0.449899 -0.717749 0.285716
DOCKED: USER    NEWDPF axisangle0 -0.467592 0.469470 -0.748970 146.796717
DOCKED: USER    NEWDPF quat0 -0.467592 0.469470 -0.748970 146.796717
DOCKED: USER    NEWDPF dihe0 -156.68 108.43 123.24 142.04 -142.61 
DOCKED: USER  keepresnum = 1 
DOCKED: USER  
DOCKED: REMARK  Name = 
DOCKED: REMARK  5 active torsions:
DOCKED: REMARK  status: ('A' for Active; 'I' for Inactive)
DOCKED: REMARK    1  A    between atoms: S_2  and  N_3
DOCKED: REMARK    2  A    between atoms: S_2  and  C_10
DOCKED: REMARK    3  A    between atoms: N_3  and  C_4
DOCKED: REMARK    4  A    between atoms: C_12  and  C_13
DOCKED: REMARK    5  A    between atoms: C_14  and  C_15
DOCKED: REMARK                            x       y       z     vdW  Elec       q    Type
DOCKED: REMARK                         _______ _______ _______ _____ _____    ______ ____
DOCKED: USER                              x       y       z     vdW  Elec       q    Type
DOCKED: USER                           _______ _______ _______ _____ _____    ______ ____
DOCKED: ROOT
DOCKED: ATOM      1  C   UNL     1      26.453 -15.990  -2.581 -0.40 -0.00    +0.000 A 
DOCKED: ATOM      2  C   UNL     1      25.115 -16.241  -2.247 -0.50 -0.00    +0.000 A 
DOCKED: ATOM      3  C   UNL     1      24.793 -17.033  -1.125 -0.59 -0.00    +0.000 A 
DOCKED: ATOM      4  C   UNL     1      25.837 -17.578  -0.359 -0.57 -0.00    +0.000 A 
DOCKED: ATOM      5  C   UNL     1      27.170 -17.319  -0.687 -0.44 -0.00    +0.000 A 
DOCKED: ATOM      6  C   UNL     1      27.479 -16.525  -1.792 -0.33 -0.00    +0.000 A 
DOCKED: ENDROOT
DOCKED: BRANCH   1   8
DOCKED: ATOM      7  O   UNL     1      26.315 -13.618  -3.841 -0.37 -0.00    +0.000 OA
DOCKED: ATOM      8  S   UNL     1      26.841 -15.018  -3.998 -0.57 -0.00    +0.000 S 
DOCKED: ATOM      9  O   UNL     1      26.204 -15.648  -5.204 -1.18 +0.00    +0.000 OA
DOCKED: BRANCH   8  10
DOCKED: ATOM     10  N   UNL     1      28.561 -14.953  -4.227 -0.23 -0.00    +0.000 N 
DOCKED: ATOM     11  H   UNL     1      29.058 -14.221  -3.795 +0.01 -0.00    +0.000 HD
DOCKED: BRANCH  10  12
DOCKED: ATOM     12  C   UNL     1      29.304 -15.904  -5.010 -0.28 -0.00    +0.000 A 
DOCKED: ATOM     13  C   UNL     1      29.649 -15.657  -6.353 -0.32 -0.00    +0.000 A 
DOCKED: ATOM     14  C   UNL     1      30.381 -16.602  -7.079 -0.28 -0.00    +0.000 A 
DOCKED: ATOM     15  C   UNL     1      30.771 -17.801  -6.479 -0.31 -0.00    +0.000 A 
DOCKED: ATOM     16  C   UNL     1      30.427 -18.059  -5.151 -0.29 -0.00    +0.000 A 
DOCKED: ATOM     17  C   UNL     1      29.696 -17.118  -4.420 -0.22 -0.00    +0.000 A 
DOCKED: ENDBRANCH  10  12
DOCKED: ENDBRANCH   8  10
DOCKED: ENDBRANCH   1   8
DOCKED: BRANCH   3  18
DOCKED: ATOM     18  C   UNL     1      23.394 -17.348  -0.744 -0.74 -0.00    +0.000 C 
DOCKED: ATOM     19  C   UNL     1      22.792 -18.514  -1.022 -0.82 -0.00    +0.000 C 
DOCKED: BRANCH  19  20
DOCKED: ATOM     20  C   UNL     1      21.398 -18.822  -0.638 -0.86 -0.00    +0.000 C 
DOCKED: ATOM     21  N   UNL     1      21.008 -20.102  -0.127 -0.64 -0.00    +0.000 N 
DOCKED: ATOM     22  O   UNL     1      19.703 -20.368   0.110 -1.13 -0.00    +0.000 OA
DOCKED: ATOM     23  O   UNL     1      20.532 -17.912  -0.744 -2.29 -0.00    +0.000 OA
DOCKED: ATOM     24  H   UNL     1      21.690 -20.789   0.051 -0.54 -0.00    +0.000 HD
DOCKED: ENDBRANCH  19  20
DOCKED: ENDBRANCH   3  18
DOCKED: TORSDOF 5
DOCKED: TER
DOCKED: ENDMDL
________________________________________________________________________________


	BEGINNING GENETIC ALGORITHM DOCKING 7 of 100
Run: 7 Seed: 2027242541 913206353 [ Run 7 of 100 GA/GALS ]
Beginning LAMARCKIAN GENETIC ALGORITHM (LGA), with a maximum of 2500000 energy evaluations.

Final-Value: -14.401


	FINAL GENETIC ALGORITHM DOCKED STATE
	_______________________________________________


Detailed state:  trans 24.682 -17.521 -3.011 quatxyzw 0.521798 -0.311104 0.778727 -0.156606 center 0.230 -0.012 -0.200 ntor 5 -141.8342 -47.5635 -1.6547 142.3243 -140.1218
State:	 24.682 -17.521  -3.011   0.528 -0.315  0.788 -161.980   -141.83  -47.56   -1.65  142.32 -140.12

DOCKED: MODEL        7
DOCKED: USER    Run = 7
DOCKED: USER    DPF = ligand_dock.biased.dpf
DOCKED: USER  
DOCKED: USER    Estimated Free Energy of Binding    =  -11.85 kcal/mol  [=(1)+(2)+(3)-(4)]
DOCKED: USER    Estimated Inhibition Constant, Ki   =    2.06 nM (nanomolar)  [Temperature = 298.15 K]
DOCKED: USER    
DOCKED: USER    (1) Final Intermolecular Energy     =  -13.34 kcal/mol
DOCKED: USER        vdW + Hbond + desolv Energy     =  -13.34 kcal/mol
DOCKED: USER        Electrostatic Energy            =   +0.00 kcal/mol
DOCKED: USER    (2) Final Total Internal Energy     =   -1.06 kcal/mol
DOCKED: USER    (3) Torsional Free Energy           =   +1.49 kcal/mol
DOCKED: USER    (4) Unbound System's Energy  [=(2)] =   -1.06 kcal/mol
DOCKED: USER    
DOCKED: USER    
DOCKED: USER    NEWDPF move ligand.pdbqt
DOCKED: USER    NEWDPF about 0.230000 -0.012000 -0.200000
DOCKED: USER    NEWDPF tran0 24.682256 -17.521069 -3.011368
DOCKED: USER    NEWDPF quaternion0 0.521798 -0.311104 0.778727 -0.156606
DOCKED: USER    NEWDPF axisangle0 0.528316 -0.314991 0.788456 -161.980110
DOCKED: USER    NEWDPF quat0 0.528316 -0.314991 0.788456 -161.980110
DOCKED: USER    NEWDPF dihe0 -141.83 -47.56 -1.65 142.32 -140.12 
DOCKED: USER  keepresnum = 1 
DOCKED: USER  
DOCKED: REMARK  Name = 
DOCKED: REMARK  5 active torsions:
DOCKED: REMARK  status: ('A' for Active; 'I' for Inactive)
DOCKED: REMARK    1  A    between atoms: S_2  and  N_3
DOCKED: REMARK    2  A    between atoms: S_2  and  C_10
DOCKED: REMARK    3  A    between atoms: N_3  and  C_4
DOCKED: REMARK    4  A    between atoms: C_12  and  C_13
DOCKED: REMARK    5  A    between atoms: C_14  and  C_15
DOCKED: REMARK                            x       y       z     vdW  Elec       q    Type
DOCKED: REMARK                         _______ _______ _______ _____ _____    ______ ____
DOCKED: USER                              x       y       z     vdW  Elec       q    Type
DOCKED: USER                           _______ _______ _______ _____ _____    ______ ____
DOCKED: ROOT
DOCKED: ATOM      1  C   UNL     1      26.182 -15.957  -2.764 -0.44 -0.00    +0.000 A 
DOCKED: ATOM      2  C   UNL     1      25.056 -16.690  -2.364 -0.46 -0.00    +0.000 A 
DOCKED: ATOM      3  C   UNL     1      25.073 -17.431  -1.164 -0.61 -0.00    +0.000 A 
DOCKED: ATOM      4  C   UNL     1      26.244 -17.435  -0.387 -0.54 -0.00    +0.000 A 
DOCKED: ATOM      5  C   UNL     1      27.362 -16.696  -0.782 -0.39 -0.00    +0.000 A 
DOCKED: ATOM      6  C   UNL     1      27.332 -15.956  -1.965 -0.31 -0.00    +0.000 A 
DOCKED: ENDROOT
DOCKED: BRANCH   1   8
DOCKED: ATOM      7  O   UNL     1      25.151 -13.936  -4.208 -0.84 -0.00    +0.000 OA
DOCKED: ATOM      8  S   UNL     1      26.154 -15.053  -4.277 -0.70 -0.00    +0.000 S 
DOCKED: ATOM      9  O   UNL     1      25.772 -15.987  -5.389 -1.10 +0.00    +0.000 OA
DOCKED: BRANCH   8  10
DOCKED: ATOM     10  N   UNL     1      27.723 -14.385  -4.604 -0.29 -0.00    +0.000 N 
DOCKED: ATOM     11  H   UNL     1      27.924 -13.485  -4.258 +0.00 -0.00    +0.000 HD
DOCKED: BRANCH  10  12
DOCKED: ATOM     12  C   UNL     1      28.747 -15.067  -5.349 -0.32 -0.00    +0.000 A 
DOCKED: ATOM     13  C   UNL     1      29.266 -16.311  -4.937 -0.28 -0.00    +0.000 A 
DOCKED: ATOM     14  C   UNL     1      30.254 -16.949  -5.693 -0.29 -0.00    +0.000 A 
DOCKED: ATOM     15  C   UNL     1      30.738 -16.355  -6.860 -0.28 -0.00    +0.000 A 
DOCKED: ATOM     16  C   UNL     1      30.236 -15.120  -7.273 -0.25 -0.00    +0.000 A 
DOCKED: ATOM     17  C   UNL     1      29.248 -14.478  -6.522 -0.31 -0.00    +0.000 A 
DOCKED: ENDBRANCH  10  12
DOCKED: ENDBRANCH   8  10
DOCKED: ENDBRANCH   1   8
DOCKED: BRANCH   3  18
DOCKED: ATOM     18  C   UNL     1      23.917 -18.242  -0.709 -0.80 -0.00    +0.000 C 
DOCKED: ATOM     19  C   UNL     1      22.650 -18.005  -1.078 -0.76 -0.00    +0.000 C 
DOCKED: BRANCH  19  20
DOCKED: ATOM     20  C   UNL     1      21.504 -18.818  -0.621 -0.86 -0.00    +0.000 C 
DOCKED: ATOM     21  N   UNL     1      20.605 -19.460  -1.536 -0.82 -0.00    +0.000 N 
DOCKED: ATOM     22  O   UNL     1      19.511 -20.105  -1.070 -1.69 -0.00    +0.000 OA
DOCKED: ATOM     23  O   UNL     1      21.330 -18.968   0.618 -0.91 -0.00    +0.000 OA
DOCKED: ATOM     24  H   UNL     1      20.785 -19.430  -2.503 -0.11 -0.00    +0.000 HD
DOCKED: ENDBRANCH  19  20
DOCKED: ENDBRANCH   3  18
DOCKED: TORSDOF 5
DOCKED: TER
DOCKED: ENDMDL
________________________________________________________________________________


	BEGINNING GENETIC ALGORITHM DOCKING 8 of 100
Run: 8 Seed: 1949807725 421278436 [ Run 8 of 100 GA/GALS ]
Beginning LAMARCKIAN GENETIC ALGORITHM (LGA), with a maximum of 2500000 energy evaluations.

Final-Value: -14.943


	FINAL GENETIC ALGORITHM DOCKED STATE
	_______________________________________________


Detailed state:  trans 24.179 -17.556 -2.889 quatxyzw 0.536025 -0.400644 0.717798 -0.192168 center 0.230 -0.012 -0.200 ntor 5 -33.5886 141.6272 8.3607 -179.9858 -165.0808
State:	 24.179 -17.556  -2.889   0.546 -0.408  0.731 -157.841    -33.59  141.63    8.36 -179.99 -165.08

DOCKED: MODEL        8
DOCKED: USER    Run = 8
DOCKED: USER    DPF = ligand_dock.biased.dpf
DOCKED: USER  
DOCKED: USER    Estimated Free Energy of Binding    =  -12.48 kcal/mol  [=(1)+(2)+(3)-(4)]
DOCKED: USER    Estimated Inhibition Constant, Ki   =  714.62 pM (picomolar)  [Temperature = 298.15 K]
DOCKED: USER    
DOCKED: USER    (1) Final Intermolecular Energy     =  -13.97 kcal/mol
DOCKED: USER        vdW + Hbond + desolv Energy     =  -13.97 kcal/mol
DOCKED: USER        Electrostatic Energy            =   +0.00 kcal/mol
DOCKED: USER    (2) Final Total Internal Energy     =   -0.97 kcal/mol
DOCKED: USER    (3) Torsional Free Energy           =   +1.49 kcal/mol
DOCKED: USER    (4) Unbound System's Energy  [=(2)] =   -0.97 kcal/mol
DOCKED: USER    
DOCKED: USER    
DOCKED: USER    NEWDPF move ligand.pdbqt
DOCKED: USER    NEWDPF about 0.230000 -0.012000 -0.200000
DOCKED: USER    NEWDPF tran0 24.178685 -17.555839 -2.888850
DOCKED: USER    NEWDPF quaternion0 0.536025 -0.400644 0.717798 -0.192168
DOCKED: USER    NEWDPF axisangle0 0.546205 -0.408253 0.731430 -157.841350
DOCKED: USER    NEWDPF quat0 0.546205 -0.408253 0.731430 -157.841350
DOCKED: USER    NEWDPF dihe0 -33.59 141.63 8.36 -179.99 -165.08 
DOCKED: USER  keepresnum = 1 
DOCKED: USER  
DOCKED: REMARK  Name = 
DOCKED: REMARK  5 active torsions:
DOCKED: REMARK  status: ('A' for Active; 'I' for Inactive)
DOCKED: REMARK    1  A    between atoms: S_2  and  N_3
DOCKED: REMARK    2  A    between atoms: S_2  and  C_10
DOCKED: REMARK    3  A    between atoms: N_3  and  C_4
DOCKED: REMARK    4  A    between atoms: C_12  and  C_13
DOCKED: REMARK    5  A    between atoms: C_14  and  C_15
DOCKED: REMARK                            x       y       z     vdW  Elec       q    Type
DOCKED: REMARK                         _______ _______ _______ _____ _____    ______ ____
DOCKED: USER                              x       y       z     vdW  Elec       q    Type
DOCKED: USER                           _______ _______ _______ _____ _____    ______ ____
DOCKED: ROOT
DOCKED: ATOM      1  C   UNL     1      25.928 -16.293  -2.566 -0.45 -0.00    +0.000 A 
DOCKED: ATOM      2  C   UNL     1      24.727 -16.898  -2.170 -0.47 -0.00    +0.000 A 
DOCKED: ATOM      3  C   UNL     1      24.704 -17.804  -1.090 -0.65 -0.00    +0.000 A 
DOCKED: ATOM      4  C   UNL     1      25.907 -18.103  -0.430 -0.59 -0.00    +0.000 A 
DOCKED: ATOM      5  C   UNL     1      27.102 -17.493  -0.820 -0.45 -0.00    +0.000 A 
DOCKED: ATOM      6  C   UNL     1      27.114 -16.587  -1.882 -0.35 -0.00    +0.000 A 
DOCKED: ENDROOT
DOCKED: BRANCH   1   8
DOCKED: ATOM      7  O   UNL     1      24.734 -14.289  -3.905 -1.03 -0.00    +0.000 OA
DOCKED: ATOM      8  S   UNL     1      25.946 -15.179  -3.931 -0.72 -0.00    +0.000 S 
DOCKED: ATOM      9  O   UNL     1      25.941 -15.976  -5.204 -1.12 +0.00    +0.000 OA
DOCKED: BRANCH   8  10
DOCKED: ATOM     10  N   UNL     1      27.374 -14.192  -3.880 -0.26 -0.00    +0.000 N 
DOCKED: ATOM     11  H   UNL     1      27.571 -13.708  -3.045 +0.00 -0.00    +0.000 HD
DOCKED: BRANCH  10  12
DOCKED: ATOM     12  C   UNL     1      28.286 -14.041  -4.982 -0.24 -0.00    +0.000 A 
DOCKED: ATOM     13  C   UNL     1      28.704 -12.774  -5.435 -0.14 -0.00    +0.000 A 
DOCKED: ATOM     14  C   UNL     1      29.600 -12.666  -6.503 -0.13 -0.00    +0.000 A 
DOCKED: ATOM     15  C   UNL     1      30.083 -13.815  -7.132 -0.21 -0.00    +0.000 A 
DOCKED: ATOM     16  C   UNL     1      29.670 -15.075  -6.696 -0.31 -0.00    +0.000 A 
DOCKED: ATOM     17  C   UNL     1      28.775 -15.188  -5.628 -0.34 -0.00    +0.000 A 
DOCKED: ENDBRANCH  10  12
DOCKED: ENDBRANCH   8  10
DOCKED: ENDBRANCH   1   8
DOCKED: BRANCH   3  18
DOCKED: ATOM     18  C   UNL     1      23.463 -18.490  -0.647 -0.82 -0.00    +0.000 C 
DOCKED: ATOM     19  C   UNL     1      22.232 -18.117  -1.026 -0.75 -0.00    +0.000 C 
DOCKED: BRANCH  19  20
DOCKED: ATOM     20  C   UNL     1      21.002 -18.805  -0.582 -0.84 -0.00    +0.000 C 
DOCKED: ATOM     21  N   UNL     1      21.024 -20.108   0.014 -0.63 -0.00    +0.000 N 
DOCKED: ATOM     22  O   UNL     1      19.864 -20.739   0.306 -0.99 -0.00    +0.000 OA
DOCKED: ATOM     23  O   UNL     1      19.899 -18.209  -0.715 -1.90 -0.00    +0.000 OA
DOCKED: ATOM     24  H   UNL     1      21.884 -20.544   0.211 -0.59 -0.00    +0.000 HD
DOCKED: ENDBRANCH  19  20
DOCKED: ENDBRANCH   3  18
DOCKED: TORSDOF 5
DOCKED: TER
DOCKED: ENDMDL
________________________________________________________________________________


	BEGINNING GENETIC ALGORITHM DOCKING 9 of 100
Run: 9 Seed: 1403382716 232130086 [ Run 9 of 100 GA/GALS ]
Beginning LAMARCKIAN GENETIC ALGORITHM (LGA), with a maximum of 2500000 energy evaluations.

Final-Value: -15.318


	FINAL GENETIC ALGORITHM DOCKED STATE
	_______________________________________________


Detailed state:  trans 24.172 -17.521 -2.871 quatxyzw -0.527544 0.377211 -0.736365 0.192810 center 0.230 -0.012 -0.200 ntor 5 -44.0645 122.0715 12.5784 157.0004 -151.7324
State:	 24.172 -17.521  -2.871  -0.538  0.384 -0.750 157.766    -44.06  122.07   12.58  157.00 -151.73

DOCKED: MODEL        9
DOCKED: USER    Run = 9
DOCKED: USER    DPF = ligand_dock.biased.dpf
DOCKED: USER  
DOCKED: USER    Estimated Free Energy of Binding    =  -12.78 kcal/mol  [=(1)+(2)+(3)-(4)]
DOCKED: USER    Estimated Inhibition Constant, Ki   =  427.64 pM (picomolar)  [Temperature = 298.15 K]
DOCKED: USER    
DOCKED: USER    (1) Final Intermolecular Energy     =  -14.27 kcal/mol
DOCKED: USER        vdW + Hbond + desolv Energy     =  -14.27 kcal/mol
DOCKED: USER        Electrostatic Energy            =   +0.00 kcal/mol
DOCKED: USER    (2) Final Total Internal Energy     =   -1.04 kcal/mol
DOCKED: USER    (3) Torsional Free Energy           =   +1.49 kcal/mol
DOCKED: USER    (4) Unbound System's Energy  [=(2)] =   -1.04 kcal/mol
DOCKED: USER    
DOCKED: USER    
DOCKED: USER    NEWDPF move ligand.pdbqt
DOCKED: USER    NEWDPF about 0.230000 -0.012000 -0.200000
DOCKED: USER    NEWDPF tran0 24.171618 -17.521254 -2.870539
DOCKED: USER    NEWDPF quaternion0 -0.527544 0.377211 -0.736365 0.192810
DOCKED: USER    NEWDPF axisangle0 -0.537632 0.384424 -0.750446 157.766417
DOCKED: USER    NEWDPF quat0 -0.537632 0.384424 -0.750446 157.766417
DOCKED: USER    NEWDPF dihe0 -44.06 122.07 12.58 157.00 -151.73 
DOCKED: USER  keepresnum = 1 
DOCKED: USER  
DOCKED: REMARK  Name = 
DOCKED: REMARK  5 active torsions:
DOCKED: REMARK  status: ('A' for Active; 'I' for Inactive)
DOCKED: REMARK    1  A    between atoms: S_2  and  N_3
DOCKED: REMARK    2  A    between atoms: S_2  and  C_10
DOCKED: REMARK    3  A    between atoms: N_3  and  C_4
DOCKED: REMARK    4  A    between atoms: C_12  and  C_13
DOCKED: REMARK    5  A    between atoms: C_14  and  C_15
DOCKED: REMARK                            x       y       z     vdW  Elec       q    Type
DOCKED: REMARK                         _______ _______ _______ _____ _____    ______ ____
DOCKED: USER                              x       y       z     vdW  Elec       q    Type
DOCKED: USER                           _______ _______ _______ _____ _____    ______ ____
DOCKED: ROOT
DOCKED: ATOM      1  C   UNL     1      25.882 -16.200  -2.577 -0.46 -0.00    +0.000 A 
DOCKED: ATOM      2  C   UNL     1      24.687 -16.813  -2.176 -0.43 -0.00    +0.000 A 
DOCKED: ATOM      3  C   UNL     1      24.661 -17.662  -1.050 -0.65 -0.00    +0.000 A 
DOCKED: ATOM      4  C   UNL     1      25.855 -17.896  -0.349 -0.60 -0.00    +0.000 A 
DOCKED: ATOM      5  C   UNL     1      27.044 -17.277  -0.745 -0.45 -0.00    +0.000 A 
DOCKED: ATOM      6  C   UNL     1      27.059 -16.428  -1.852 -0.36 -0.00    +0.000 A 
DOCKED: ENDROOT
DOCKED: BRANCH   1   8
DOCKED: ATOM      7  O   UNL     1      24.860 -14.084  -3.884 -1.00 -0.00    +0.000 OA
DOCKED: ATOM      8  S   UNL     1      25.905 -15.158  -3.998 -0.73 -0.00    +0.000 S 
DOCKED: ATOM      9  O   UNL     1      25.619 -15.994  -5.213 -1.07 +0.00    +0.000 OA
DOCKED: BRANCH   8  10
DOCKED: ATOM     10  N   UNL     1      27.464 -14.414  -4.169 -0.28 -0.00    +0.000 N 
DOCKED: ATOM     11  H   UNL     1      27.691 -13.671  -3.564 +0.00 -0.00    +0.000 HD
DOCKED: BRANCH  10  12
DOCKED: ATOM     12  C   UNL     1      28.445 -14.819  -5.141 -0.31 -0.00    +0.000 A 
DOCKED: ATOM     13  C   UNL     1      28.781 -14.008  -6.243 -0.29 -0.00    +0.000 A 
DOCKED: ATOM     14  C   UNL     1      29.747 -14.430  -7.161 -0.27 -0.00    +0.000 A 
DOCKED: ATOM     15  C   UNL     1      30.383 -15.662  -6.996 -0.28 -0.00    +0.000 A 
DOCKED: ATOM     16  C   UNL     1      30.052 -16.476  -5.911 -0.30 -0.00    +0.000 A 
DOCKED: ATOM     17  C   UNL     1      29.088 -16.059  -4.989 -0.28 -0.00    +0.000 A 
DOCKED: ENDBRANCH  10  12
DOCKED: ENDBRANCH   8  10
DOCKED: ENDBRANCH   1   8
DOCKED: BRANCH   3  18
DOCKED: ATOM     18  C   UNL     1      23.427 -18.354  -0.599 -0.81 -0.00    +0.000 C 
DOCKED: ATOM     19  C   UNL     1      22.205 -18.089  -1.084 -0.72 -0.00    +0.000 C 
DOCKED: BRANCH  19  20
DOCKED: ATOM     20  C   UNL     1      20.982 -18.783  -0.631 -0.85 -0.00    +0.000 C 
DOCKED: ATOM     21  N   UNL     1      21.009 -20.108  -0.085 -0.64 -0.00    +0.000 N 
DOCKED: ATOM     22  O   UNL     1      19.852 -20.740   0.216 -1.02 -0.00    +0.000 OA
DOCKED: ATOM     23  O   UNL     1      19.882 -18.173  -0.709 -1.89 -0.00    +0.000 OA
DOCKED: ATOM     24  H   UNL     1      21.871 -20.558   0.070 -0.58 -0.00    +0.000 HD
DOCKED: ENDBRANCH  19  20
DOCKED: ENDBRANCH   3  18
DOCKED: TORSDOF 5
DOCKED: TER
DOCKED: ENDMDL
________________________________________________________________________________


	BEGINNING GENETIC ALGORITHM DOCKING 10 of 100
Run: 10 Seed: 1537860655 811158850 [ Run 10 of 100 GA/GALS ]
Beginning LAMARCKIAN GENETIC ALGORITHM (LGA), with a maximum of 2500000 energy evaluations.

Final-Value: -15.173


	FINAL GENETIC ALGORITHM DOCKED STATE
	_______________________________________________


Detailed state:  trans 24.198 -17.372 -2.819 quatxyzw -0.524384 0.340816 -0.753400 0.203113 center 0.230 -0.012 -0.200 ntor 5 -63.4039 128.8090 28.0045 154.9100 -151.9709
State:	 24.198 -17.372  -2.819  -0.536  0.348 -0.769 156.562    -63.40  128.81   28.00  154.91 -151.97

DOCKED: MODEL       10
DOCKED: USER    Run = 10
DOCKED: USER    DPF = ligand_dock.biased.dpf
DOCKED: USER  
DOCKED: USER    Estimated Free Energy of Binding    =  -12.63 kcal/mol  [=(1)+(2)+(3)-(4)]
DOCKED: USER    Estimated Inhibition Constant, Ki   =  550.42 pM (picomolar)  [Temperature = 298.15 K]
DOCKED: USER    
DOCKED: USER    (1) Final Intermolecular Energy     =  -14.12 kcal/mol
DOCKED: USER        vdW + Hbond + desolv Energy     =  -14.12 kcal/mol
DOCKED: USER        Electrostatic Energy            =   +0.00 kcal/mol
DOCKED: USER    (2) Final Total Internal Energy     =   -1.05 kcal/mol
DOCKED: USER    (3) Torsional Free Energy           =   +1.49 kcal/mol
DOCKED: USER    (4) Unbound System's Energy  [=(2)] =   -1.05 kcal/mol
DOCKED: USER    
DOCKED: USER    
DOCKED: USER    NEWDPF move ligand.pdbqt
DOCKED: USER    NEWDPF about 0.230000 -0.012000 -0.200000
DOCKED: USER    NEWDPF tran0 24.197901 -17.371630 -2.818681
DOCKED: USER    NEWDPF quaternion0 -0.524384 0.340816 -0.753400 0.203113
DOCKED: USER    NEWDPF axisangle0 -0.535547 0.348072 -0.769438 156.561917
DOCKED: USER    NEWDPF quat0 -0.535547 0.348072 -0.769438 156.561917
DOCKED: USER    NEWDPF dihe0 -63.40 128.81 28.00 154.91 -151.97 
DOCKED: USER  keepresnum = 1 
DOCKED: USER  
DOCKED: REMARK  Name = 
DOCKED: REMARK  5 active torsions:
DOCKED: REMARK  status: ('A' for Active; 'I' for Inactive)
DOCKED: REMARK    1  A    between atoms: S_2  and  N_3
DOCKED: REMARK    2  A    between atoms: S_2  and  C_10
DOCKED: REMARK    3  A    between atoms: N_3  and  C_4
DOCKED: REMARK    4  A    between atoms: C_12  and  C_13
DOCKED: REMARK    5  A    between atoms: C_14  and  C_15
DOCKED: REMARK                            x       y       z     vdW  Elec       q    Type
DOCKED: REMARK                         _______ _______ _______ _____ _____    ______ ____
DOCKED: USER                              x       y       z     vdW  Elec       q    Type
DOCKED: USER                           _______ _______ _______ _____ _____    ______ ____
DOCKED: ROOT
DOCKED: ATOM      1  C   UNL     1      25.871 -15.985  -2.630 -0.47 -0.00    +0.000 A 
DOCKED: ATOM      2  C   UNL     1      24.692 -16.597  -2.182 -0.41 -0.00    +0.000 A 
DOCKED: ATOM      3  C   UNL     1      24.687 -17.356  -0.993 -0.62 -0.00    +0.000 A 
DOCKED: ATOM      4  C   UNL     1      25.887 -17.501  -0.276 -0.54 -0.00    +0.000 A 
DOCKED: ATOM      5  C   UNL     1      27.058 -16.883  -0.719 -0.43 -0.00    +0.000 A 
DOCKED: ATOM      6  C   UNL     1      27.052 -16.123  -1.890 -0.34 -0.00    +0.000 A 
DOCKED: ENDROOT
DOCKED: BRANCH   1   8
DOCKED: ATOM      7  O   UNL     1      24.790 -14.011  -4.102 -1.07 -0.00    +0.000 OA
DOCKED: ATOM      8  S   UNL     1      25.868 -15.058  -4.128 -0.73 -0.00    +0.000 S 
DOCKED: ATOM      9  O   UNL     1      25.613 -15.995  -5.274 -1.06 +0.00    +0.000 OA
DOCKED: BRANCH   8  10
DOCKED: ATOM     10  N   UNL     1      27.405 -14.282  -4.355 -0.29 -0.00    +0.000 N 
DOCKED: ATOM     11  H   UNL     1      27.593 -13.468  -3.833 +0.00 -0.00    +0.000 HD
DOCKED: BRANCH  10  12
DOCKED: ATOM     12  C   UNL     1      28.419 -14.755  -5.258 -0.32 -0.00    +0.000 A 
DOCKED: ATOM     13  C   UNL     1      28.848 -13.993  -6.363 -0.29 -0.00    +0.000 A 
DOCKED: ATOM     14  C   UNL     1      29.844 -14.482  -7.214 -0.26 -0.00    +0.000 A 
DOCKED: ATOM     15  C   UNL     1      30.417 -15.734  -6.978 -0.28 -0.00    +0.000 A 
DOCKED: ATOM     16  C   UNL     1      29.994 -16.500  -5.890 -0.30 -0.00    +0.000 A 
DOCKED: ATOM     17  C   UNL     1      28.999 -16.016  -5.036 -0.29 -0.00    +0.000 A 
DOCKED: ENDBRANCH  10  12
DOCKED: ENDBRANCH   8  10
DOCKED: ENDBRANCH   1   8
DOCKED: BRANCH   3  18
DOCKED: ATOM     18  C   UNL     1      23.472 -18.044  -0.489 -0.79 -0.00    +0.000 C 
DOCKED: ATOM     19  C   UNL     1      22.311 -18.091  -1.159 -0.64 -0.00    +0.000 C 
DOCKED: BRANCH  19  20
DOCKED: ATOM     20  C   UNL     1      21.106 -18.779  -0.651 -0.86 -0.00    +0.000 C 
DOCKED: ATOM     21  N   UNL     1      21.157 -20.091  -0.076 -0.57 -0.00    +0.000 N 
DOCKED: ATOM     22  O   UNL     1      20.013 -20.720   0.277 -0.99 -0.00    +0.000 OA
DOCKED: ATOM     23  O   UNL     1      20.001 -18.175  -0.708 -1.98 -0.00    +0.000 OA
DOCKED: ATOM     24  H   UNL     1      22.025 -20.533   0.062 -0.58 -0.00    +0.000 HD
DOCKED: ENDBRANCH  19  20
DOCKED: ENDBRANCH   3  18
DOCKED: TORSDOF 5
DOCKED: TER
DOCKED: ENDMDL
________________________________________________________________________________


	BEGINNING GENETIC ALGORITHM DOCKING 11 of 100
Run: 11 Seed: 935447693 1952160359 [ Run 11 of 100 GA/GALS ]
Beginning LAMARCKIAN GENETIC ALGORITHM (LGA), with a maximum of 2500000 energy evaluations.

Final-Value: -15.355


	FINAL GENETIC ALGORITHM DOCKED STATE
	_______________________________________________


Detailed state:  trans 24.027 -17.912 -2.878 quatxyzw -0.515143 0.372725 -0.760781 0.130059 center 0.230 -0.012 -0.200 ntor 5 21.2442 123.8327 7.1977 175.2698 -151.3702
State:	 24.027 -17.912  -2.878  -0.520  0.376 -0.767 165.054     21.24  123.83    7.20  175.27 -151.37

DOCKED: MODEL       11
DOCKED: USER    Run = 11
DOCKED: USER    DPF = ligand_dock.biased.dpf
DOCKED: USER  
DOCKED: USER    Estimated Free Energy of Binding    =  -12.86 kcal/mol  [=(1)+(2)+(3)-(4)]
DOCKED: USER    Estimated Inhibition Constant, Ki   =  374.91 pM (picomolar)  [Temperature = 298.15 K]
DOCKED: USER    
DOCKED: USER    (1) Final Intermolecular Energy     =  -14.35 kcal/mol
DOCKED: USER        vdW + Hbond + desolv Energy     =  -14.35 kcal/mol
DOCKED: USER        Electrostatic Energy            =   +0.00 kcal/mol
DOCKED: USER    (2) Final Total Internal Energy     =   -1.00 kcal/mol
DOCKED: USER    (3) Torsional Free Energy           =   +1.49 kcal/mol
DOCKED: USER    (4) Unbound System's Energy  [=(2)] =   -1.00 kcal/mol
DOCKED: USER    
DOCKED: USER    
DOCKED: USER    NEWDPF move ligand.pdbqt
DOCKED: USER    NEWDPF about 0.230000 -0.012000 -0.200000
DOCKED: USER    NEWDPF tran0 24.026936 -17.911879 -2.877608
DOCKED: USER    NEWDPF quaternion0 -0.515143 0.372725 -0.760781 0.130059
DOCKED: USER    NEWDPF axisangle0 -0.519556 0.375918 -0.767299 165.053951
DOCKED: USER    NEWDPF quat0 -0.519556 0.375918 -0.767299 165.053951
DOCKED: USER    NEWDPF dihe0 21.24 123.83 7.20 175.27 -151.37 
DOCKED: USER  keepresnum = 1 
DOCKED: USER  
DOCKED: REMARK  Name = 
DOCKED: REMARK  5 active torsions:
DOCKED: REMARK  status: ('A' for Active; 'I' for Inactive)
DOCKED: REMARK    1  A    between atoms: S_2  and  N_3
DOCKED: REMARK    2  A    between atoms: S_2  and  C_10
DOCKED: REMARK    3  A    between atoms: N_3  and  C_4
DOCKED: REMARK    4  A    between atoms: C_12  and  C_13
DOCKED: REMARK    5  A    between atoms: C_14  and  C_15
DOCKED: REMARK                            x       y       z     vdW  Elec       q    Type
DOCKED: REMARK                         _______ _______ _______ _____ _____    ______ ____
DOCKED: USER                              x       y       z     vdW  Elec       q    Type
DOCKED: USER                           _______ _______ _______ _____ _____    ______ ____
DOCKED: ROOT
DOCKED: ATOM      1  C   UNL     1      25.567 -16.447  -2.387 -0.49 -0.00    +0.000 A 
DOCKED: ATOM      2  C   UNL     1      24.407 -17.186  -2.116 -0.36 -0.00    +0.000 A 
DOCKED: ATOM      3  C   UNL     1      24.366 -18.080  -1.025 -0.68 -0.00    +0.000 A 
DOCKED: ATOM      4  C   UNL     1      25.512 -18.226  -0.226 -0.61 -0.00    +0.000 A 
DOCKED: ATOM      5  C   UNL     1      26.664 -17.481  -0.492 -0.51 -0.00    +0.000 A 
DOCKED: ATOM      6  C   UNL     1      26.692 -16.591  -1.566 -0.41 -0.00    +0.000 A 
DOCKED: ENDROOT
DOCKED: BRANCH   1   8
DOCKED: ATOM      7  O   UNL     1      24.464 -14.381  -3.709 -0.91 -0.00    +0.000 OA
DOCKED: ATOM      8  S   UNL     1      25.611 -15.350  -3.766 -0.70 -0.00    +0.000 S 
DOCKED: ATOM      9  O   UNL     1      25.507 -16.159  -5.028 -0.87 -0.00    +0.000 OA
DOCKED: BRANCH   8  10
DOCKED: ATOM     10  N   UNL     1      27.103 -14.462  -3.776 -0.30 -0.00    +0.000 N 
DOCKED: ATOM     11  H   UNL     1      27.327 -13.926  -2.982 +0.00 -0.00    +0.000 HD
DOCKED: BRANCH  10  12
DOCKED: ATOM     12  C   UNL     1      28.031 -14.463  -4.875 -0.30 -0.00    +0.000 A 
DOCKED: ATOM     13  C   UNL     1      28.257 -13.316  -5.661 -0.22 -0.00    +0.000 A 
DOCKED: ATOM     14  C   UNL     1      29.175 -13.352  -6.715 -0.23 -0.00    +0.000 A 
DOCKED: ATOM     15  C   UNL     1      29.871 -14.528  -7.001 -0.28 -0.00    +0.000 A 
DOCKED: ATOM     16  C   UNL     1      29.649 -15.673  -6.233 -0.32 -0.00    +0.000 A 
DOCKED: ATOM     17  C   UNL     1      28.732 -15.642  -5.178 -0.32 -0.00    +0.000 A 
DOCKED: ENDBRANCH  10  12
DOCKED: ENDBRANCH   8  10
DOCKED: ENDBRANCH   1   8
DOCKED: BRANCH   3  18
DOCKED: ATOM     18  C   UNL     1      23.172 -18.904  -0.711 -0.82 -0.00    +0.000 C 
DOCKED: ATOM     19  C   UNL     1      21.952 -18.671  -1.218 -0.71 -0.00    +0.000 C 
DOCKED: BRANCH  19  20
DOCKED: ATOM     20  C   UNL     1      20.769 -19.497  -0.902 -0.86 -0.00    +0.000 C 
DOCKED: ATOM     21  N   UNL     1      20.522 -20.012   0.412 -0.69 -0.00    +0.000 N 
DOCKED: ATOM     22  O   UNL     1      19.482 -20.851   0.627 -0.86 -0.00    +0.000 OA
DOCKED: ATOM     23  O   UNL     1      19.939 -19.734  -1.821 -2.40 -0.00    +0.000 OA
DOCKED: ATOM     24  H   UNL     1      21.110 -19.756   1.159 -0.49 -0.00    +0.000 HD
DOCKED: ENDBRANCH  19  20
DOCKED: ENDBRANCH   3  18
DOCKED: TORSDOF 5
DOCKED: TER
DOCKED: ENDMDL
________________________________________________________________________________


	BEGINNING GENETIC ALGORITHM DOCKING 12 of 100
Run: 12 Seed: 380489009 952345540 [ Run 12 of 100 GA/GALS ]
Beginning LAMARCKIAN GENETIC ALGORITHM (LGA), with a maximum of 2500000 energy evaluations.

Final-Value: -15.484


	FINAL GENETIC ALGORITHM DOCKED STATE
	_______________________________________________


Detailed state:  trans 24.250 -17.972 -2.887 quatxyzw -0.491372 0.348241 -0.790327 0.112539 center 0.230 -0.012 -0.200 ntor 5 29.0664 106.2526 -4.3045 151.0801 -138.8327
State:	 24.250 -17.972  -2.887  -0.495  0.350 -0.795 167.077     29.07  106.25   -4.30  151.08 -138.83

DOCKED: MODEL       12
DOCKED: USER    Run = 12
DOCKED: USER    DPF = ligand_dock.biased.dpf
DOCKED: USER  
DOCKED: USER    Estimated Free Energy of Binding    =  -12.94 kcal/mol  [=(1)+(2)+(3)-(4)]
DOCKED: USER    Estimated Inhibition Constant, Ki   =  325.18 pM (picomolar)  [Temperature = 298.15 K]
DOCKED: USER    
DOCKED: USER    (1) Final Intermolecular Energy     =  -14.44 kcal/mol
DOCKED: USER        vdW + Hbond + desolv Energy     =  -14.44 kcal/mol
DOCKED: USER        Electrostatic Energy            =   +0.00 kcal/mol
DOCKED: USER    (2) Final Total Internal Energy     =   -1.05 kcal/mol
DOCKED: USER    (3) Torsional Free Energy           =   +1.49 kcal/mol
DOCKED: USER    (4) Unbound System's Energy  [=(2)] =   -1.05 kcal/mol
DOCKED: USER    
DOCKED: USER    
DOCKED: USER    NEWDPF move ligand.pdbqt
DOCKED: USER    NEWDPF about 0.230000 -0.012000 -0.200000
DOCKED: USER    NEWDPF tran0 24.250192 -17.972043 -2.886664
DOCKED: USER    NEWDPF quaternion0 -0.491372 0.348241 -0.790327 0.112539
DOCKED: USER    NEWDPF axisangle0 -0.494514 0.350467 -0.795380 167.076660
DOCKED: USER    NEWDPF quat0 -0.494514 0.350467 -0.795380 167.076660
DOCKED: USER    NEWDPF dihe0 29.07 106.25 -4.30 151.08 -138.83 
DOCKED: USER  keepresnum = 1 
DOCKED: USER  
DOCKED: REMARK  Name = 
DOCKED: REMARK  5 active torsions:
DOCKED: REMARK  status: ('A' for Active; 'I' for Inactive)
DOCKED: REMARK    1  A    between atoms: S_2  and  N_3
DOCKED: REMARK    2  A    between atoms: S_2  and  C_10
DOCKED: REMARK    3  A    between atoms: N_3  and  C_4
DOCKED: REMARK    4  A    between atoms: C_12  and  C_13
DOCKED: REMARK    5  A    between atoms: C_14  and  C_15
DOCKED: REMARK                            x       y       z     vdW  Elec       q    Type
DOCKED: REMARK                         _______ _______ _______ _____ _____    ______ ____
DOCKED: USER                              x       y       z     vdW  Elec       q    Type
DOCKED: USER                           _______ _______ _______ _____ _____    ______ ____
DOCKED: ROOT
DOCKED: ATOM      1  C   UNL     1      25.689 -16.420  -2.358 -0.48 -0.00    +0.000 A 
DOCKED: ATOM      2  C   UNL     1      24.543 -17.197  -2.136 -0.41 -0.00    +0.000 A 
DOCKED: ATOM      3  C   UNL     1      24.457 -18.040  -1.009 -0.67 -0.00    +0.000 A 
DOCKED: ATOM      4  C   UNL     1      25.546 -18.100  -0.123 -0.59 -0.00    +0.000 A 
DOCKED: ATOM      5  C   UNL     1      26.683 -17.318  -0.341 -0.50 -0.00    +0.000 A 
DOCKED: ATOM      6  C   UNL     1      26.755 -16.477  -1.452 -0.40 -0.00    +0.000 A 
DOCKED: ENDROOT
DOCKED: BRANCH   1   8
DOCKED: ATOM      7  O   UNL     1      24.787 -14.273  -3.702 -0.97 -0.00    +0.000 OA
DOCKED: ATOM      8  S   UNL     1      25.792 -15.387  -3.783 -0.71 -0.00    +0.000 S 
DOCKED: ATOM      9  O   UNL     1      25.507 -16.218  -5.001 -0.83 -0.00    +0.000 OA
DOCKED: BRANCH   8  10
DOCKED: ATOM     10  N   UNL     1      27.384 -14.706  -3.914 -0.30 -0.00    +0.000 N 
DOCKED: ATOM     11  H   UNL     1      27.593 -13.913  -3.370 +0.00 -0.00    +0.000 HD
DOCKED: BRANCH  10  12
DOCKED: ATOM     12  C   UNL     1      28.414 -15.231  -4.769 -0.31 -0.00    +0.000 A 
DOCKED: ATOM     13  C   UNL     1      28.629 -14.733  -6.070 -0.35 -0.00    +0.000 A 
DOCKED: ATOM     14  C   UNL     1      29.648 -15.262  -6.868 -0.27 -0.00    +0.000 A 
DOCKED: ATOM     15  C   UNL     1      30.457 -16.292  -6.385 -0.29 -0.00    +0.000 A 
DOCKED: ATOM     16  C   UNL     1      30.247 -16.798  -5.100 -0.25 -0.00    +0.000 A 
DOCKED: ATOM     17  C   UNL     1      29.231 -16.273  -4.297 -0.25 -0.00    +0.000 A 
DOCKED: ENDBRANCH  10  12
DOCKED: ENDBRANCH   8  10
DOCKED: ENDBRANCH   1   8
DOCKED: BRANCH   3  18
DOCKED: ATOM     18  C   UNL     1      23.277 -18.900  -0.742 -0.81 -0.00    +0.000 C 
DOCKED: ATOM     19  C   UNL     1      22.038 -18.617  -1.170 -0.75 -0.00    +0.000 C 
DOCKED: BRANCH  19  20
DOCKED: ATOM     20  C   UNL     1      20.868 -19.479  -0.901 -0.86 -0.00    +0.000 C 
DOCKED: ATOM     21  N   UNL     1      20.588 -20.008   0.401 -0.69 -0.00    +0.000 N 
DOCKED: ATOM     22  O   UNL     1      19.566 -20.878   0.573 -0.88 -0.00    +0.000 OA
DOCKED: ATOM     23  O   UNL     1      20.081 -19.736  -1.851 -2.38 -0.00    +0.000 OA
DOCKED: ATOM     24  H   UNL     1      21.140 -19.739   1.170 -0.49 -0.00    +0.000 HD
DOCKED: ENDBRANCH  19  20
DOCKED: ENDBRANCH   3  18
DOCKED: TORSDOF 5
DOCKED: TER
DOCKED: ENDMDL
________________________________________________________________________________


	BEGINNING GENETIC ALGORITHM DOCKING 13 of 100
Run: 13 Seed: 530616065 503026760 [ Run 13 of 100 GA/GALS ]
Beginning LAMARCKIAN GENETIC ALGORITHM (LGA), with a maximum of 2500000 energy evaluations.

Final-Value: -15.120


	FINAL GENETIC ALGORITHM DOCKED STATE
	_______________________________________________


Detailed state:  trans 23.851 -17.658 -2.733 quatxyzw -0.547992 0.401415 -0.706707 0.197829 center 0.230 -0.012 -0.200 ntor 5 -0.5069 119.4149 41.8948 175.1560 -163.8350
State:	 23.851 -17.658  -2.733  -0.559  0.410 -0.721 157.180     -0.51  119.41   41.89  175.16 -163.84

DOCKED: MODEL       13
DOCKED: USER    Run = 13
DOCKED: USER    DPF = ligand_dock.biased.dpf
DOCKED: USER  
DOCKED: USER    Estimated Free Energy of Binding    =  -12.62 kcal/mol  [=(1)+(2)+(3)-(4)]
DOCKED: USER    Estimated Inhibition Constant, Ki   =  563.04 pM (picomolar)  [Temperature = 298.15 K]
DOCKED: USER    
DOCKED: USER    (1) Final Intermolecular Energy     =  -14.11 kcal/mol
DOCKED: USER        vdW + Hbond + desolv Energy     =  -14.11 kcal/mol
DOCKED: USER        Electrostatic Energy            =   +0.00 kcal/mol
DOCKED: USER    (2) Final Total Internal Energy     =   -1.01 kcal/mol
DOCKED: USER    (3) Torsional Free Energy           =   +1.49 kcal/mol
DOCKED: USER    (4) Unbound System's Energy  [=(2)] =   -1.01 kcal/mol
DOCKED: USER    
DOCKED: USER    
DOCKED: USER    NEWDPF move ligand.pdbqt
DOCKED: USER    NEWDPF about 0.230000 -0.012000 -0.200000
DOCKED: USER    NEWDPF tran0 23.851357 -17.658421 -2.733196
DOCKED: USER    NEWDPF quaternion0 -0.547992 0.401415 -0.706707 0.197829
DOCKED: USER    NEWDPF axisangle0 -0.559041 0.409508 -0.720955 157.179951
DOCKED: USER    NEWDPF quat0 -0.559041 0.409508 -0.720955 157.179951
DOCKED: USER    NEWDPF dihe0 -0.51 119.41 41.89 175.16 -163.84 
DOCKED: USER  keepresnum = 1 
DOCKED: USER  
DOCKED: REMARK  Name = 
DOCKED: REMARK  5 active torsions:
DOCKED: REMARK  status: ('A' for Active; 'I' for Inactive)
DOCKED: REMARK    1  A    between atoms: S_2  and  N_3
DOCKED: REMARK    2  A    between atoms: S_2  and  C_10
DOCKED: REMARK    3  A    between atoms: N_3  and  C_4
DOCKED: REMARK    4  A    between atoms: C_12  and  C_13
DOCKED: REMARK    5  A    between atoms: C_14  and  C_15
DOCKED: REMARK                            x       y       z     vdW  Elec       q    Type
DOCKED: REMARK                         _______ _______ _______ _____ _____    ______ ____
DOCKED: USER                              x       y       z     vdW  Elec       q    Type
DOCKED: USER                           _______ _______ _______ _____ _____    ______ ____
DOCKED: ROOT
DOCKED: ATOM      1  C   UNL     1      25.615 -16.405  -2.458 -0.48 -0.00    +0.000 A 
DOCKED: ATOM      2  C   UNL     1      24.425 -17.008  -2.028 -0.39 -0.00    +0.000 A 
DOCKED: ATOM      3  C   UNL     1      24.435 -17.924  -0.955 -0.67 -0.00    +0.000 A 
DOCKED: ATOM      4  C   UNL     1      25.659 -18.233  -0.338 -0.61 -0.00    +0.000 A 
DOCKED: ATOM      5  C   UNL     1      26.842 -17.623  -0.763 -0.47 -0.00    +0.000 A 
DOCKED: ATOM      6  C   UNL     1      26.822 -16.709  -1.817 -0.39 -0.00    +0.000 A 
DOCKED: ENDROOT
DOCKED: BRANCH   1   8
DOCKED: ATOM      7  O   UNL     1      24.402 -14.365  -3.723 -0.91 -0.00    +0.000 OA
DOCKED: ATOM      8  S   UNL     1      25.592 -15.279  -3.814 -0.71 -0.00    +0.000 S 
DOCKED: ATOM      9  O   UNL     1      25.510 -16.064  -5.091 -0.95 -0.00    +0.000 OA
DOCKED: BRANCH   8  10
DOCKED: ATOM     10  N   UNL     1      27.041 -14.322  -3.822 -0.30 -0.00    +0.000 N 
DOCKED: ATOM     11  H   UNL     1      27.248 -13.791  -3.019 +0.00 -0.00    +0.000 HD
DOCKED: BRANCH  10  12
DOCKED: ATOM     12  C   UNL     1      27.955 -14.258  -4.930 -0.29 -0.00    +0.000 A 
DOCKED: ATOM     13  C   UNL     1      28.054 -13.117  -5.751 -0.22 -0.00    +0.000 A 
DOCKED: ATOM     14  C   UNL     1      28.962 -13.088  -6.813 -0.23 -0.00    +0.000 A 
DOCKED: ATOM     15  C   UNL     1      29.776 -14.193  -7.072 -0.27 -0.00    +0.000 A 
DOCKED: ATOM     16  C   UNL     1      29.681 -15.331  -6.269 -0.31 -0.00    +0.000 A 
DOCKED: ATOM     17  C   UNL     1      28.775 -15.365  -5.206 -0.32 -0.00    +0.000 A 
DOCKED: ENDBRANCH  10  12
DOCKED: ENDBRANCH   8  10
DOCKED: ENDBRANCH   1   8
DOCKED: BRANCH   3  18
DOCKED: ATOM     18  C   UNL     1      23.208 -18.609  -0.477 -0.82 -0.00    +0.000 C 
DOCKED: ATOM     19  C   UNL     1      22.087 -18.723  -1.206 -0.75 -0.00    +0.000 C 
DOCKED: BRANCH  19  20
DOCKED: ATOM     20  C   UNL     1      20.870 -19.407  -0.723 -0.88 -0.00    +0.000 C 
DOCKED: ATOM     21  N   UNL     1      20.645 -19.686   0.664 -0.67 -0.00    +0.000 N 
DOCKED: ATOM     22  O   UNL     1      19.566 -20.408   1.043 -0.77 -0.00    +0.000 OA
DOCKED: ATOM     23  O   UNL     1      19.991 -19.734  -1.566 -2.30 -0.00    +0.000 OA
DOCKED: ATOM     24  H   UNL     1      21.276 -19.352   1.341 -0.40 -0.00    +0.000 HD
DOCKED: ENDBRANCH  19  20
DOCKED: ENDBRANCH   3  18
DOCKED: TORSDOF 5
DOCKED: TER
DOCKED: ENDMDL
________________________________________________________________________________


	BEGINNING GENETIC ALGORITHM DOCKING 14 of 100
Run: 14 Seed: 1499923562 248709618 [ Run 14 of 100 GA/GALS ]
Beginning LAMARCKIAN GENETIC ALGORITHM (LGA), with a maximum of 2500000 energy evaluations.

Final-Value: -14.593


	FINAL GENETIC ALGORITHM DOCKED STATE
	_______________________________________________


Detailed state:  trans 24.174 -17.078 -2.802 quatxyzw 0.477143 -0.415680 0.718222 -0.289312 center 0.230 -0.012 -0.200 ntor 5 -127.1588 -5.5259 95.5321 -148.0405 90.0728
State:	 24.174 -17.078  -2.802   0.498 -0.434  0.750 -146.366   -127.16   -5.53   95.53 -148.04   90.07

DOCKED: MODEL       14
DOCKED: USER    Run = 14
DOCKED: USER    DPF = ligand_dock.biased.dpf
DOCKED: USER  
DOCKED: USER    Estimated Free Energy of Binding    =  -12.22 kcal/mol  [=(1)+(2)+(3)-(4)]
DOCKED: USER    Estimated Inhibition Constant, Ki   =    1.10 nM (nanomolar)  [Temperature = 298.15 K]
DOCKED: USER    
DOCKED: USER    (1) Final Intermolecular Energy     =  -13.71 kcal/mol
DOCKED: USER        vdW + Hbond + desolv Energy     =  -13.71 kcal/mol
DOCKED: USER        Electrostatic Energy            =   +0.00 kcal/mol
DOCKED: USER    (2) Final Total Internal Energy     =   -0.88 kcal/mol
DOCKED: USER    (3) Torsional Free Energy           =   +1.49 kcal/mol
DOCKED: USER    (4) Unbound System's Energy  [=(2)] =   -0.88 kcal/mol
DOCKED: USER    
DOCKED: USER    
DOCKED: USER    NEWDPF move ligand.pdbqt
DOCKED: USER    NEWDPF about 0.230000 -0.012000 -0.200000
DOCKED: USER    NEWDPF tran0 24.173925 -17.078148 -2.801622
DOCKED: USER    NEWDPF quaternion0 0.477143 -0.415680 0.718222 -0.289312
DOCKED: USER    NEWDPF axisangle0 0.498460 -0.434251 0.750309 -146.366424
DOCKED: USER    NEWDPF quat0 0.498460 -0.434251 0.750309 -146.366424
DOCKED: USER    NEWDPF dihe0 -127.16 -5.53 95.53 -148.04 90.07 
DOCKED: USER  keepresnum = 1 
DOCKED: USER  
DOCKED: REMARK  Name = 
DOCKED: REMARK  5 active torsions:
DOCKED: REMARK  status: ('A' for Active; 'I' for Inactive)
DOCKED: REMARK    1  A    between atoms: S_2  and  N_3
DOCKED: REMARK    2  A    between atoms: S_2  and  C_10
DOCKED: REMARK    3  A    between atoms: N_3  and  C_4
DOCKED: REMARK    4  A    between atoms: C_12  and  C_13
DOCKED: REMARK    5  A    between atoms: C_14  and  C_15
DOCKED: REMARK                            x       y       z     vdW  Elec       q    Type
DOCKED: REMARK                         _______ _______ _______ _____ _____    ______ ____
DOCKED: USER                              x       y       z     vdW  Elec       q    Type
DOCKED: USER                           _______ _______ _______ _____ _____    ______ ____
DOCKED: ROOT
DOCKED: ATOM      1  C   UNL     1      26.141 -16.165  -2.570 -0.43 -0.00    +0.000 A 
DOCKED: ATOM      2  C   UNL     1      24.842 -16.471  -2.142 -0.48 -0.00    +0.000 A 
DOCKED: ATOM      3  C   UNL     1      24.634 -17.235  -0.975 -0.61 -0.00    +0.000 A 
DOCKED: ATOM      4  C   UNL     1      25.751 -17.697  -0.260 -0.56 -0.00    +0.000 A 
DOCKED: ATOM      5  C   UNL     1      27.045 -17.384  -0.683 -0.46 -0.00    +0.000 A 
DOCKED: ATOM      6  C   UNL     1      27.242 -16.617  -1.832 -0.35 -0.00    +0.000 A 
DOCKED: ENDROOT
DOCKED: BRANCH   1   8
DOCKED: ATOM      7  O   UNL     1      25.888 -15.985  -5.242 -1.13 +0.00    +0.000 OA
DOCKED: ATOM      8  S   UNL     1      26.387 -15.228  -4.043 -0.67 -0.00    +0.000 S 
DOCKED: ATOM      9  O   UNL     1      27.856 -14.964  -4.206 -0.33 -0.00    +0.000 OA
DOCKED: BRANCH   8  10
DOCKED: ATOM     10  N   UNL     1      25.542 -13.715  -3.936 -0.47 -0.00    +0.000 N 
DOCKED: ATOM     11  H   UNL     1      24.804 -13.642  -3.289 -0.04 -0.00    +0.000 HD
DOCKED: BRANCH  10  12
DOCKED: ATOM     12  C   UNL     1      25.856 -12.562  -4.737 -0.24 -0.00    +0.000 A 
DOCKED: ATOM     13  C   UNL     1      27.086 -12.435  -5.413 -0.20 -0.00    +0.000 A 
DOCKED: ATOM     14  C   UNL     1      27.351 -11.304  -6.190 -0.15 -0.00    +0.000 A 
DOCKED: ATOM     15  C   UNL     1      26.400 -10.287  -6.299 -0.16 -0.00    +0.000 A 
DOCKED: ATOM     16  C   UNL     1      25.181 -10.400  -5.627 -0.32 -0.00    +0.000 A 
DOCKED: ATOM     17  C   UNL     1      24.910 -11.529  -4.849 -0.35 -0.00    +0.000 A 
DOCKED: ENDBRANCH  10  12
DOCKED: ENDBRANCH   8  10
DOCKED: ENDBRANCH   1   8
DOCKED: BRANCH   3  18
DOCKED: ATOM     18  C   UNL     1      23.280 -17.606  -0.493 -0.75 -0.00    +0.000 C 
DOCKED: ATOM     19  C   UNL     1      22.505 -18.526  -1.086 -0.82 -0.00    +0.000 C 
DOCKED: BRANCH  19  20
DOCKED: ATOM     20  C   UNL     1      21.159 -18.892  -0.600 -0.86 -0.00    +0.000 C 
DOCKED: ATOM     21  N   UNL     1      20.882 -20.157   0.014 -0.64 -0.00    +0.000 N 
DOCKED: ATOM     22  O   UNL     1      19.612 -20.485   0.346 -0.99 -0.00    +0.000 OA
DOCKED: ATOM     23  O   UNL     1      20.230 -18.046  -0.711 -2.17 -0.00    +0.000 OA
DOCKED: ATOM     24  H   UNL     1      21.616 -20.787   0.193 -0.55 -0.00    +0.000 HD
DOCKED: ENDBRANCH  19  20
DOCKED: ENDBRANCH   3  18
DOCKED: TORSDOF 5
DOCKED: TER
DOCKED: ENDMDL
________________________________________________________________________________


	BEGINNING GENETIC ALGORITHM DOCKING 15 of 100
Run: 15 Seed: 1569782465 1751178623 [ Run 15 of 100 GA/GALS ]
Beginning LAMARCKIAN GENETIC ALGORITHM (LGA), with a maximum of 2500000 energy evaluations.

Final-Value: -15.495


	FINAL GENETIC ALGORITHM DOCKED STATE
	_______________________________________________


Detailed state:  trans 23.870 -17.551 -2.836 quatxyzw 0.521090 -0.407741 0.719358 -0.211508 center 0.230 -0.012 -0.200 ntor 5 -30.2391 111.6943 65.5933 160.5962 -156.1485
State:	 23.870 -17.551  -2.836   0.533 -0.417  0.736 -155.578    -30.24  111.69   65.59  160.60 -156.15

DOCKED: MODEL       15
DOCKED: USER    Run = 15
DOCKED: USER    DPF = ligand_dock.biased.dpf
DOCKED: USER  
DOCKED: USER    Estimated Free Energy of Binding    =  -12.97 kcal/mol  [=(1)+(2)+(3)-(4)]
DOCKED: USER    Estimated Inhibition Constant, Ki   =  310.17 pM (picomolar)  [Temperature = 298.15 K]
DOCKED: USER    
DOCKED: USER    (1) Final Intermolecular Energy     =  -14.46 kcal/mol
DOCKED: USER        vdW + Hbond + desolv Energy     =  -14.46 kcal/mol
DOCKED: USER        Electrostatic Energy            =   +0.00 kcal/mol
DOCKED: USER    (2) Final Total Internal Energy     =   -1.03 kcal/mol
DOCKED: USER    (3) Torsional Free Energy           =   +1.49 kcal/mol
DOCKED: USER    (4) Unbound System's Energy  [=(2)] =   -1.03 kcal/mol
DOCKED: USER    
DOCKED: USER    
DOCKED: USER    NEWDPF move ligand.pdbqt
DOCKED: USER    NEWDPF about 0.230000 -0.012000 -0.200000
DOCKED: USER    NEWDPF tran0 23.870259 -17.551117 -2.835987
DOCKED: USER    NEWDPF quaternion0 0.521090 -0.407741 0.719358 -0.211508
DOCKED: USER    NEWDPF axisangle0 0.533152 -0.417180 0.736010 -155.578468
DOCKED: USER    NEWDPF quat0 0.533152 -0.417180 0.736010 -155.578468
DOCKED: USER    NEWDPF dihe0 -30.24 111.69 65.59 160.60 -156.15 
DOCKED: USER  keepresnum = 1 
DOCKED: USER  
DOCKED: REMARK  Name = 
DOCKED: REMARK  5 active torsions:
DOCKED: REMARK  status: ('A' for Active; 'I' for Inactive)
DOCKED: REMARK    1  A    between atoms: S_2  and  N_3
DOCKED: REMARK    2  A    between atoms: S_2  and  C_10
DOCKED: REMARK    3  A    between atoms: N_3  and  C_4
DOCKED: REMARK    4  A    between atoms: C_12  and  C_13
DOCKED: REMARK    5  A    between atoms: C_14  and  C_15
DOCKED: REMARK                            x       y       z     vdW  Elec       q    Type
DOCKED: REMARK                         _______ _______ _______ _____ _____    ______ ____
DOCKED: USER                              x       y       z     vdW  Elec       q    Type
DOCKED: USER                           _______ _______ _______ _____ _____    ______ ____
DOCKED: ROOT
DOCKED: ATOM      1  C   UNL     1      25.673 -16.366  -2.517 -0.48 -0.00    +0.000 A 
DOCKED: ATOM      2  C   UNL     1      24.441 -16.907  -2.123 -0.31 -0.00    +0.000 A 
DOCKED: ATOM      3  C   UNL     1      24.365 -17.792  -1.027 -0.67 -0.00    +0.000 A 
DOCKED: ATOM      4  C   UNL     1      25.547 -18.134  -0.350 -0.62 -0.00    +0.000 A 
DOCKED: ATOM      5  C   UNL     1      26.773 -17.588  -0.738 -0.49 -0.00    +0.000 A 
DOCKED: ATOM      6  C   UNL     1      26.837 -16.703  -1.815 -0.39 -0.00    +0.000 A 
DOCKED: ENDROOT
DOCKED: BRANCH   1   8
DOCKED: ATOM      7  O   UNL     1      24.718 -14.197  -3.788 -1.02 -0.00    +0.000 OA
DOCKED: ATOM      8  S   UNL     1      25.757 -15.278  -3.900 -0.72 -0.00    +0.000 S 
DOCKED: ATOM      9  O   UNL     1      25.507 -16.070  -5.152 -0.99 -0.00    +0.000 OA
DOCKED: BRANCH   8  10
DOCKED: ATOM     10  N   UNL     1      27.328 -14.545  -3.991 -0.30 -0.00    +0.000 N 
DOCKED: ATOM     11  H   UNL     1      27.559 -13.863  -3.320 +0.00 -0.00    +0.000 HD
DOCKED: BRANCH  10  12
DOCKED: ATOM     12  C   UNL     1      28.313 -14.875  -4.987 -0.32 -0.00    +0.000 A 
DOCKED: ATOM     13  C   UNL     1      28.519 -14.073  -6.127 -0.31 -0.00    +0.000 A 
DOCKED: ATOM     14  C   UNL     1      29.492 -14.421  -7.068 -0.30 -0.00    +0.000 A 
DOCKED: ATOM     15  C   UNL     1      30.265 -15.570  -6.888 -0.28 -0.00    +0.000 A 
DOCKED: ATOM     16  C   UNL     1      30.064 -16.376  -5.765 -0.29 -0.00    +0.000 A 
DOCKED: ATOM     17  C   UNL     1      29.092 -16.032  -4.821 -0.28 -0.00    +0.000 A 
DOCKED: ENDBRANCH  10  12
DOCKED: ENDBRANCH   8  10
DOCKED: ENDBRANCH   1   8
DOCKED: BRANCH   3  18
DOCKED: ATOM     18  C   UNL     1      23.090 -18.410  -0.586 -0.83 -0.00    +0.000 C 
DOCKED: ATOM     19  C   UNL     1      22.176 -18.914  -1.429 -0.70 -0.00    +0.000 C 
DOCKED: BRANCH  19  20
DOCKED: ATOM     20  C   UNL     1      20.909 -19.529  -0.983 -0.83 -0.00    +0.000 C 
DOCKED: ATOM     21  N   UNL     1      20.665 -19.874   0.387 -0.69 -0.00    +0.000 N 
DOCKED: ATOM     22  O   UNL     1      19.533 -20.532   0.728 -0.83 -0.00    +0.000 OA
DOCKED: ATOM     23  O   UNL     1      20.007 -19.735  -1.838 -2.39 -0.00    +0.000 OA
DOCKED: ATOM     24  H   UNL     1      21.321 -19.631   1.079 -0.45 -0.00    +0.000 HD
DOCKED: ENDBRANCH  19  20
DOCKED: ENDBRANCH   3  18
DOCKED: TORSDOF 5
DOCKED: TER
DOCKED: ENDMDL
________________________________________________________________________________


	BEGINNING GENETIC ALGORITHM DOCKING 16 of 100
Run: 16 Seed: 1789744103 1147699538 [ Run 16 of 100 GA/GALS ]
Beginning LAMARCKIAN GENETIC ALGORITHM (LGA), with a maximum of 2500000 energy evaluations.

Final-Value: -14.617


	FINAL GENETIC ALGORITHM DOCKED STATE
	_______________________________________________


Detailed state:  trans 24.235 -16.822 -3.043 quatxyzw 0.435880 -0.479017 0.709462 -0.277875 center 0.230 -0.012 -0.200 ntor 5 -162.5238 -22.7653 140.8778 -118.8375 92.8876
State:	 24.235 -16.822  -3.043   0.454 -0.499  0.739 -147.733   -162.52  -22.77  140.88 -118.84   92.89

DOCKED: MODEL       16
DOCKED: USER    Run = 16
DOCKED: USER    DPF = ligand_dock.biased.dpf
DOCKED: USER  
DOCKED: USER    Estimated Free Energy of Binding    =  -12.22 kcal/mol  [=(1)+(2)+(3)-(4)]
DOCKED: USER    Estimated Inhibition Constant, Ki   =    1.10 nM (nanomolar)  [Temperature = 298.15 K]
DOCKED: USER    
DOCKED: USER    (1) Final Intermolecular Energy     =  -13.71 kcal/mol
DOCKED: USER        vdW + Hbond + desolv Energy     =  -13.71 kcal/mol
DOCKED: USER        Electrostatic Energy            =   +0.00 kcal/mol
DOCKED: USER    (2) Final Total Internal Energy     =   -0.90 kcal/mol
DOCKED: USER    (3) Torsional Free Energy           =   +1.49 kcal/mol
DOCKED: USER    (4) Unbound System's Energy  [=(2)] =   -0.90 kcal/mol
DOCKED: USER    
DOCKED: USER    
DOCKED: USER    NEWDPF move ligand.pdbqt
DOCKED: USER    NEWDPF about 0.230000 -0.012000 -0.200000
DOCKED: USER    NEWDPF tran0 24.235370 -16.821525 -3.042834
DOCKED: USER    NEWDPF quaternion0 0.435880 -0.479017 0.709462 -0.277875
DOCKED: USER    NEWDPF axisangle0 0.453750 -0.498656 0.738548 -147.733127
DOCKED: USER    NEWDPF quat0 0.453750 -0.498656 0.738548 -147.733127
DOCKED: USER    NEWDPF dihe0 -162.52 -22.77 140.88 -118.84 92.89 
DOCKED: USER  keepresnum = 1 
DOCKED: USER  
DOCKED: REMARK  Name = 
DOCKED: REMARK  5 active torsions:
DOCKED: REMARK  status: ('A' for Active; 'I' for Inactive)
DOCKED: REMARK    1  A    between atoms: S_2  and  N_3
DOCKED: REMARK    2  A    between atoms: S_2  and  C_10
DOCKED: REMARK    3  A    between atoms: N_3  and  C_4
DOCKED: REMARK    4  A    between atoms: C_12  and  C_13
DOCKED: REMARK    5  A    between atoms: C_14  and  C_15
DOCKED: REMARK                            x       y       z     vdW  Elec       q    Type
DOCKED: REMARK                         _______ _______ _______ _____ _____    ______ ____
DOCKED: USER                              x       y       z     vdW  Elec       q    Type
DOCKED: USER                           _______ _______ _______ _____ _____    ______ ____
DOCKED: ROOT
DOCKED: ATOM      1  C   UNL     1      26.236 -16.105  -2.549 -0.42 -0.00    +0.000 A 
DOCKED: ATOM      2  C   UNL     1      24.880 -16.330  -2.273 -0.42 -0.00    +0.000 A 
DOCKED: ATOM      3  C   UNL     1      24.496 -17.165  -1.202 -0.61 -0.00    +0.000 A 
DOCKED: ATOM      4  C   UNL     1      25.496 -17.779  -0.430 -0.60 -0.00    +0.000 A 
DOCKED: ATOM      5  C   UNL     1      26.847 -17.547  -0.701 -0.48 -0.00    +0.000 A 
DOCKED: ATOM      6  C   UNL     1      27.217 -16.710  -1.754 -0.36 -0.00    +0.000 A 
DOCKED: ENDROOT
DOCKED: BRANCH   1   8
DOCKED: ATOM      7  O   UNL     1      26.207 -15.654  -5.200 -1.18 +0.00    +0.000 OA
DOCKED: ATOM      8  S   UNL     1      26.701 -15.077  -3.902 -0.59 -0.00    +0.000 S 
DOCKED: ATOM      9  O   UNL     1      28.200 -14.987  -3.945 -0.27 -0.00    +0.000 OA
DOCKED: BRANCH   8  10
DOCKED: ATOM     10  N   UNL     1      26.037 -13.486  -3.701 -0.36 -0.00    +0.000 N 
DOCKED: ATOM     11  H   UNL     1      25.606 -13.271  -2.842 -0.01 -0.00    +0.000 HD
DOCKED: BRANCH  10  12
DOCKED: ATOM     12  C   UNL     1      26.079 -12.463  -4.711 -0.27 -0.00    +0.000 A 
DOCKED: ATOM     13  C   UNL     1      27.170 -12.331  -5.593 -0.19 -0.00    +0.000 A 
DOCKED: ATOM     14  C   UNL     1      27.171 -11.331  -6.570 -0.16 -0.00    +0.000 A 
DOCKED: ATOM     15  C   UNL     1      26.092 -10.451  -6.676 -0.19 -0.00    +0.000 A 
DOCKED: ATOM     16  C   UNL     1      25.009 -10.569  -5.802 -0.35 -0.00    +0.000 A 
DOCKED: ATOM     17  C   UNL     1      25.003 -11.567  -4.824 -0.35 -0.00    +0.000 A 
DOCKED: ENDBRANCH  10  12
DOCKED: ENDBRANCH   8  10
DOCKED: ENDBRANCH   1   8
DOCKED: BRANCH   3  18
DOCKED: ATOM     18  C   UNL     1      23.075 -17.455  -0.884 -0.74 -0.00    +0.000 C 
DOCKED: ATOM     19  C   UNL     1      22.539 -18.684  -0.924 -0.83 -0.00    +0.000 C 
DOCKED: BRANCH  19  20
DOCKED: ATOM     20  C   UNL     1      21.124 -18.964  -0.604 -0.87 -0.00    +0.000 C 
DOCKED: ATOM     21  N   UNL     1      20.711 -20.166   0.058 -0.68 -0.00    +0.000 N 
DOCKED: ATOM     22  O   UNL     1      19.395 -20.425   0.234 -1.04 -0.00    +0.000 OA
DOCKED: ATOM     23  O   UNL     1      20.258 -18.100  -0.906 -2.15 -0.00    +0.000 OA
DOCKED: ATOM     24  H   UNL     1      21.386 -20.804   0.385 -0.60 -0.00    +0.000 HD
DOCKED: ENDBRANCH  19  20
DOCKED: ENDBRANCH   3  18
DOCKED: TORSDOF 5
DOCKED: TER
DOCKED: ENDMDL
________________________________________________________________________________


	BEGINNING GENETIC ALGORITHM DOCKING 17 of 100
Run: 17 Seed: 2100905112 1234874721 [ Run 17 of 100 GA/GALS ]
Beginning LAMARCKIAN GENETIC ALGORITHM (LGA), with a maximum of 2500000 energy evaluations.

Final-Value: -14.512


	FINAL GENETIC ALGORITHM DOCKED STATE
	_______________________________________________


Detailed state:  trans 24.854 -17.270 -3.512 quatxyzw 0.462987 -0.411730 0.772288 -0.140332 center 0.230 -0.012 -0.200 ntor 5 27.0693 -12.0270 -55.1619 180.0000 75.8788
State:	 24.854 -17.270  -3.512   0.468 -0.416  0.780 -163.866     27.07  -12.03  -55.16  180.00   75.88

DOCKED: MODEL       17
DOCKED: USER    Run = 17
DOCKED: USER    DPF = ligand_dock.biased.dpf
DOCKED: USER  
DOCKED: USER    Estimated Free Energy of Binding    =  -12.15 kcal/mol  [=(1)+(2)+(3)-(4)]
DOCKED: USER    Estimated Inhibition Constant, Ki   =    1.23 nM (nanomolar)  [Temperature = 298.15 K]
DOCKED: USER    
DOCKED: USER    (1) Final Intermolecular Energy     =  -13.65 kcal/mol
DOCKED: USER        vdW + Hbond + desolv Energy     =  -13.65 kcal/mol
DOCKED: USER        Electrostatic Energy            =   +0.00 kcal/mol
DOCKED: USER    (2) Final Total Internal Energy     =   -0.87 kcal/mol
DOCKED: USER    (3) Torsional Free Energy           =   +1.49 kcal/mol
DOCKED: USER    (4) Unbound System's Energy  [=(2)] =   -0.87 kcal/mol
DOCKED: USER    
DOCKED: USER    
DOCKED: USER    NEWDPF move ligand.pdbqt
DOCKED: USER    NEWDPF about 0.230000 -0.012000 -0.200000
DOCKED: USER    NEWDPF tran0 24.854255 -17.270079 -3.512051
DOCKED: USER    NEWDPF quaternion0 0.462987 -0.411730 0.772288 -0.140332
DOCKED: USER    NEWDPF axisangle0 0.467614 -0.415845 0.780006 -163.865857
DOCKED: USER    NEWDPF quat0 0.467614 -0.415845 0.780006 -163.865857
DOCKED: USER    NEWDPF dihe0 27.07 -12.03 -55.16 180.00 75.88 
DOCKED: USER  keepresnum = 1 
DOCKED: USER  
DOCKED: REMARK  Name = 
DOCKED: REMARK  5 active torsions:
DOCKED: REMARK  status: ('A' for Active; 'I' for Inactive)
DOCKED: REMARK    1  A    between atoms: S_2  and  N_3
DOCKED: REMARK    2  A    between atoms: S_2  and  C_10
DOCKED: REMARK    3  A    between atoms: N_3  and  C_4
DOCKED: REMARK    4  A    between atoms: C_12  and  C_13
DOCKED: REMARK    5  A    between atoms: C_14  and  C_15
DOCKED: REMARK                            x       y       z     vdW  Elec       q    Type
DOCKED: REMARK                         _______ _______ _______ _____ _____    ______ ____
DOCKED: USER                              x       y       z     vdW  Elec       q    Type
DOCKED: USER                           _______ _______ _______ _____ _____    ______ ____
DOCKED: ROOT
DOCKED: ATOM      1  C   UNL     1      26.466 -15.965  -2.837 -0.39 -0.00    +0.000 A 
DOCKED: ATOM      2  C   UNL     1      25.224 -16.600  -2.697 -0.39 -0.00    +0.000 A 
DOCKED: ATOM      3  C   UNL     1      25.000 -17.510  -1.643 -0.58 -0.00    +0.000 A 
DOCKED: ATOM      4  C   UNL     1      26.047 -17.780  -0.746 -0.55 -0.00    +0.000 A 
DOCKED: ATOM      5  C   UNL     1      27.281 -17.139  -0.881 -0.42 -0.00    +0.000 A 
DOCKED: ATOM      6  C   UNL     1      27.491 -16.231  -1.920 -0.31 -0.00    +0.000 A 
DOCKED: ENDROOT
DOCKED: BRANCH   1   8
DOCKED: ATOM      7  O   UNL     1      27.008 -15.599  -5.445 -1.13 +0.00    +0.000 OA
DOCKED: ATOM      8  S   UNL     1      26.740 -14.847  -4.171 -0.59 -0.00    +0.000 S 
DOCKED: ATOM      9  O   UNL     1      27.931 -13.992  -3.846 -0.20 -0.00    +0.000 OA
DOCKED: BRANCH   8  10
DOCKED: ATOM     10  N   UNL     1      25.350 -13.832  -4.395 -0.46 -0.00    +0.000 N 
DOCKED: ATOM     11  H   UNL     1      24.471 -14.266  -4.492 -0.27 -0.00    +0.000 HD
DOCKED: BRANCH  10  12
DOCKED: ATOM     12  C   UNL     1      25.404 -12.395  -4.446 -0.29 -0.00    +0.000 A 
DOCKED: ATOM     13  C   UNL     1      26.452 -11.667  -3.848 -0.17 -0.00    +0.000 A 
DOCKED: ATOM     14  C   UNL     1      26.476 -10.271  -3.928 -0.16 -0.00    +0.000 A 
DOCKED: ATOM     15  C   UNL     1      25.459  -9.587  -4.597 -0.24 -0.00    +0.000 A 
DOCKED: ATOM     16  C   UNL     1      24.412 -10.299  -5.187 -0.37 -0.00    +0.000 A 
DOCKED: ATOM     17  C   UNL     1      24.383 -11.695  -5.110 -0.16 -0.00    +0.000 A 
DOCKED: ENDBRANCH  10  12
DOCKED: ENDBRANCH   8  10
DOCKED: ENDBRANCH   1   8
DOCKED: BRANCH   3  18
DOCKED: ATOM     18  C   UNL     1      23.712 -18.227  -1.465 -0.76 -0.00    +0.000 C 
DOCKED: ATOM     19  C   UNL     1      22.614 -17.664  -0.939 -0.72 -0.00    +0.000 C 
DOCKED: BRANCH  19  20
DOCKED: ATOM     20  C   UNL     1      21.335 -18.384  -0.768 -0.81 -0.00    +0.000 C 
DOCKED: ATOM     21  N   UNL     1      21.267 -19.713  -0.235 -0.70 -0.00    +0.000 N 
DOCKED: ATOM     22  O   UNL     1      20.084 -20.368  -0.197 -1.28 -0.00    +0.000 OA
DOCKED: ATOM     23  O   UNL     1      20.266 -17.793  -1.081 -2.15 -0.00    +0.000 OA
DOCKED: ATOM     24  H   UNL     1      22.083 -20.149   0.102 -0.54 -0.00    +0.000 HD
DOCKED: ENDBRANCH  19  20
DOCKED: ENDBRANCH   3  18
DOCKED: TORSDOF 5
DOCKED: TER
DOCKED: ENDMDL
________________________________________________________________________________


	BEGINNING GENETIC ALGORITHM DOCKING 18 of 100
Run: 18 Seed: 106956015 1281575646 [ Run 18 of 100 GA/GALS ]
Beginning LAMARCKIAN GENETIC ALGORITHM (LGA), with a maximum of 2500000 energy evaluations.

Final-Value: -15.005


	FINAL GENETIC ALGORITHM DOCKED STATE
	_______________________________________________


Detailed state:  trans 23.919 -17.027 -2.839 quatxyzw -0.476194 0.442299 -0.702311 0.290464 center 0.230 -0.012 -0.200 ntor 5 -137.2087 104.1758 112.9560 154.0268 -157.0893
State:	 23.919 -17.027  -2.839  -0.498  0.462 -0.734 146.229   -137.21  104.18  112.96  154.03 -157.09

DOCKED: MODEL       18
DOCKED: USER    Run = 18
DOCKED: USER    DPF = ligand_dock.biased.dpf
DOCKED: USER  
DOCKED: USER    Estimated Free Energy of Binding    =  -12.50 kcal/mol  [=(1)+(2)+(3)-(4)]
DOCKED: USER    Estimated Inhibition Constant, Ki   =  691.90 pM (picomolar)  [Temperature = 298.15 K]
DOCKED: USER    
DOCKED: USER    (1) Final Intermolecular Energy     =  -13.99 kcal/mol
DOCKED: USER        vdW + Hbond + desolv Energy     =  -13.99 kcal/mol
DOCKED: USER        Electrostatic Energy            =   +0.00 kcal/mol
DOCKED: USER    (2) Final Total Internal Energy     =   -1.02 kcal/mol
DOCKED: USER    (3) Torsional Free Energy           =   +1.49 kcal/mol
DOCKED: USER    (4) Unbound System's Energy  [=(2)] =   -1.02 kcal/mol
DOCKED: USER    
DOCKED: USER    
DOCKED: USER    NEWDPF move ligand.pdbqt
DOCKED: USER    NEWDPF about 0.230000 -0.012000 -0.200000
DOCKED: USER    NEWDPF tran0 23.919484 -17.026905 -2.838738
DOCKED: USER    NEWDPF quaternion0 -0.476194 0.442299 -0.702311 0.290464
DOCKED: USER    NEWDPF axisangle0 -0.497650 0.462228 -0.733955 146.228561
DOCKED: USER    NEWDPF quat0 -0.497650 0.462228 -0.733955 146.228561
DOCKED: USER    NEWDPF dihe0 -137.21 104.18 112.96 154.03 -157.09 
DOCKED: USER  keepresnum = 1 
DOCKED: USER  
DOCKED: REMARK  Name = 
DOCKED: REMARK  5 active torsions:
DOCKED: REMARK  status: ('A' for Active; 'I' for Inactive)
DOCKED: REMARK    1  A    between atoms: S_2  and  N_3
DOCKED: REMARK    2  A    between atoms: S_2  and  C_10
DOCKED: REMARK    3  A    between atoms: N_3  and  C_4
DOCKED: REMARK    4  A    between atoms: C_12  and  C_13
DOCKED: REMARK    5  A    between atoms: C_14  and  C_15
DOCKED: REMARK                            x       y       z     vdW  Elec       q    Type
DOCKED: REMARK                         _______ _______ _______ _____ _____    ______ ____
DOCKED: USER                              x       y       z     vdW  Elec       q    Type
DOCKED: USER                           _______ _______ _______ _____ _____    ______ ____
DOCKED: ROOT
DOCKED: ATOM      1  C   UNL     1      25.919 -16.200  -2.563 -0.46 -0.00    +0.000 A 
DOCKED: ATOM      2  C   UNL     1      24.608 -16.478  -2.150 -0.34 -0.00    +0.000 A 
DOCKED: ATOM      3  C   UNL     1      24.371 -17.291  -1.022 -0.63 -0.00    +0.000 A 
DOCKED: ATOM      4  C   UNL     1      25.469 -17.829  -0.331 -0.61 -0.00    +0.000 A 
DOCKED: ATOM      5  C   UNL     1      26.774 -17.544  -0.738 -0.49 -0.00    +0.000 A 
DOCKED: ATOM      6  C   UNL     1      27.001 -16.728  -1.848 -0.37 -0.00    +0.000 A 
DOCKED: ENDROOT
DOCKED: BRANCH   1   8
DOCKED: ATOM      7  O   UNL     1      25.373 -13.948  -3.927 -0.68 -0.00    +0.000 OA
DOCKED: ATOM      8  S   UNL     1      26.201 -15.201  -3.987 -0.69 -0.00    +0.000 S 
DOCKED: ATOM      9  O   UNL     1      25.817 -15.985  -5.209 -1.11 +0.00    +0.000 OA
DOCKED: BRANCH   8  10
DOCKED: ATOM     10  N   UNL     1      27.879 -14.766  -4.089 -0.26 -0.00    +0.000 N 
DOCKED: ATOM     11  H   UNL     1      28.204 -14.040  -3.510 +0.01 -0.00    +0.000 HD
DOCKED: BRANCH  10  12
DOCKED: ATOM     12  C   UNL     1      28.822 -15.403  -4.969 -0.30 -0.00    +0.000 A 
DOCKED: ATOM     13  C   UNL     1      29.086 -14.910  -6.263 -0.34 -0.00    +0.000 A 
DOCKED: ATOM     14  C   UNL     1      30.017 -15.551  -7.086 -0.26 -0.00    +0.000 A 
DOCKED: ATOM     15  C   UNL     1      30.689 -16.689  -6.634 -0.29 -0.00    +0.000 A 
DOCKED: ATOM     16  C   UNL     1      30.429 -17.190  -5.356 -0.27 -0.00    +0.000 A 
DOCKED: ATOM     17  C   UNL     1      29.500 -16.553  -4.529 -0.24 -0.00    +0.000 A 
DOCKED: ENDBRANCH  10  12
DOCKED: ENDBRANCH   8  10
DOCKED: ENDBRANCH   1   8
DOCKED: BRANCH   3  18
DOCKED: ATOM     18  C   UNL     1      23.003 -17.636  -0.559 -0.77 -0.00    +0.000 C 
DOCKED: ATOM     19  C   UNL     1      22.326 -18.716  -0.976 -0.83 -0.00    +0.000 C 
DOCKED: BRANCH  19  20
DOCKED: ATOM     20  C   UNL     1      20.965 -19.053  -0.509 -0.87 -0.00    +0.000 C 
DOCKED: ATOM     21  N   UNL     1      20.671 -20.274   0.180 -0.64 -0.00    +0.000 N 
DOCKED: ATOM     22  O   UNL     1      19.392 -20.585   0.493 -0.92 -0.00    +0.000 OA
DOCKED: ATOM     23  O   UNL     1      20.039 -18.221  -0.707 -2.01 -0.00    +0.000 OA
DOCKED: ATOM     24  H   UNL     1      21.401 -20.888   0.426 -0.61 -0.00    +0.000 HD
DOCKED: ENDBRANCH  19  20
DOCKED: ENDBRANCH   3  18
DOCKED: TORSDOF 5
DOCKED: TER
DOCKED: ENDMDL
________________________________________________________________________________


	BEGINNING GENETIC ALGORITHM DOCKING 19 of 100
Run: 19 Seed: 790421413 99130238 [ Run 19 of 100 GA/GALS ]
Beginning LAMARCKIAN GENETIC ALGORITHM (LGA), with a maximum of 2500000 energy evaluations.

Final-Value: -14.633


	FINAL GENETIC ALGORITHM DOCKED STATE
	_______________________________________________


Detailed state:  trans 24.007 -16.802 -2.524 quatxyzw 0.538305 -0.482344 0.643776 -0.251249 center 0.230 -0.012 -0.200 ntor 5 -99.2292 65.9735 82.9336 -41.1737 -78.7938
State:	 24.007 -16.802  -2.524   0.556 -0.498  0.665 -150.897    -99.23   65.97   82.93  -41.17  -78.79

DOCKED: MODEL       19
DOCKED: USER    Run = 19
DOCKED: USER    DPF = ligand_dock.biased.dpf
DOCKED: USER  
DOCKED: USER    Estimated Free Energy of Binding    =  -12.10 kcal/mol  [=(1)+(2)+(3)-(4)]
DOCKED: USER    Estimated Inhibition Constant, Ki   =    1.35 nM (nanomolar)  [Temperature = 298.15 K]
DOCKED: USER    
DOCKED: USER    (1) Final Intermolecular Energy     =  -13.59 kcal/mol
DOCKED: USER        vdW + Hbond + desolv Energy     =  -13.59 kcal/mol
DOCKED: USER        Electrostatic Energy            =   +0.00 kcal/mol
DOCKED: USER    (2) Final Total Internal Energy     =   -1.04 kcal/mol
DOCKED: USER    (3) Torsional Free Energy           =   +1.49 kcal/mol
DOCKED: USER    (4) Unbound System's Energy  [=(2)] =   -1.04 kcal/mol
DOCKED: USER    
DOCKED: USER    
DOCKED: USER    NEWDPF move ligand.pdbqt
DOCKED: USER    NEWDPF about 0.230000 -0.012000 -0.200000
DOCKED: USER    NEWDPF tran0 24.006656 -16.801992 -2.523970
DOCKED: USER    NEWDPF quaternion0 0.538305 -0.482344 0.643776 -0.251249
DOCKED: USER    NEWDPF axisangle0 0.556144 -0.498329 0.665111 -150.897162
DOCKED: USER    NEWDPF quat0 0.556144 -0.498329 0.665111 -150.897162
DOCKED: USER    NEWDPF dihe0 -99.23 65.97 82.93 -41.17 -78.79 
DOCKED: USER  keepresnum = 1 
DOCKED: USER  
DOCKED: REMARK  Name = 
DOCKED: REMARK  5 active torsions:
DOCKED: REMARK  status: ('A' for Active; 'I' for Inactive)
DOCKED: REMARK    1  A    between atoms: S_2  and  N_3
DOCKED: REMARK    2  A    between atoms: S_2  and  C_10
DOCKED: REMARK    3  A    between atoms: N_3  and  C_4
DOCKED: REMARK    4  A    between atoms: C_12  and  C_13
DOCKED: REMARK    5  A    between atoms: C_14  and  C_15
DOCKED: REMARK                            x       y       z     vdW  Elec       q    Type
DOCKED: REMARK                         _______ _______ _______ _____ _____    ______ ____
DOCKED: USER                              x       y       z     vdW  Elec       q    Type
DOCKED: USER                           _______ _______ _______ _____ _____    ______ ____
DOCKED: ROOT
DOCKED: ATOM      1  C   UNL     1      25.997 -15.948  -2.265 -0.45 -0.00    +0.000 A 
DOCKED: ATOM      2  C   UNL     1      24.737 -16.355  -1.805 -0.50 -0.00    +0.000 A 
DOCKED: ATOM      3  C   UNL     1      24.624 -17.366  -0.828 -0.62 -0.00    +0.000 A 
DOCKED: ATOM      4  C   UNL     1      25.794 -17.969  -0.339 -0.60 -0.00    +0.000 A 
DOCKED: ATOM      5  C   UNL     1      27.050 -17.556  -0.792 -0.45 -0.00    +0.000 A 
DOCKED: ATOM      6  C   UNL     1      27.153 -16.546  -1.749 -0.36 -0.00    +0.000 A 
DOCKED: ENDROOT
DOCKED: BRANCH   1   8
DOCKED: ATOM      7  O   UNL     1      27.038 -13.595  -3.049 -0.24 -0.00    +0.000 OA
DOCKED: ATOM      8  S   UNL     1      26.123 -14.698  -3.502 -0.60 -0.00    +0.000 S 
DOCKED: ATOM      9  O   UNL     1      24.755 -14.130  -3.752 -1.02 -0.00    +0.000 OA
DOCKED: BRANCH   8  10
DOCKED: ATOM     10  N   UNL     1      26.740 -15.376  -4.976 -0.52 -0.00    +0.000 N 
DOCKED: ATOM     11  H   UNL     1      26.098 -15.780  -5.603 -0.09 +0.00    +0.000 HD
DOCKED: BRANCH  10  12
DOCKED: ATOM     12  C   UNL     1      28.133 -15.381  -5.337 -0.34 -0.00    +0.000 A 
DOCKED: ATOM     13  C   UNL     1      29.122 -15.910  -4.484 -0.26 -0.00    +0.000 A 
DOCKED: ATOM     14  C   UNL     1      30.465 -15.907  -4.874 -0.17 -0.00    +0.000 A 
DOCKED: ATOM     15  C   UNL     1      30.836 -15.374  -6.110 -0.18 -0.00    +0.000 A 
DOCKED: ATOM     16  C   UNL     1      29.865 -14.840  -6.959 -0.29 -0.00    +0.000 A 
DOCKED: ATOM     17  C   UNL     1      28.521 -14.841  -6.575 -0.29 -0.00    +0.000 A 
DOCKED: ENDBRANCH  10  12
DOCKED: ENDBRANCH   8  10
DOCKED: ENDBRANCH   1   8
DOCKED: BRANCH   3  18
DOCKED: ATOM     18  C   UNL     1      23.313 -17.850  -0.326 -0.78 -0.00    +0.000 C 
DOCKED: ATOM     19  C   UNL     1      22.376 -18.405  -1.108 -0.78 -0.00    +0.000 C 
DOCKED: BRANCH  19  20
DOCKED: ATOM     20  C   UNL     1      21.074 -18.886  -0.601 -0.86 -0.00    +0.000 C 
DOCKED: ATOM     21  N   UNL     1      20.920 -20.164   0.028 -0.63 -0.00    +0.000 N 
DOCKED: ATOM     22  O   UNL     1      19.689 -20.602   0.380 -0.96 -0.00    +0.000 OA
DOCKED: ATOM     23  O   UNL     1      20.071 -18.129  -0.707 -2.03 -0.00    +0.000 OA
DOCKED: ATOM     24  H   UNL     1      21.710 -20.724   0.204 -0.57 -0.00    +0.000 HD
DOCKED: ENDBRANCH  19  20
DOCKED: ENDBRANCH   3  18
DOCKED: TORSDOF 5
DOCKED: TER
DOCKED: ENDMDL
________________________________________________________________________________


	BEGINNING GENETIC ALGORITHM DOCKING 20 of 100
Run: 20 Seed: 1784066476 273207369 [ Run 20 of 100 GA/GALS ]
Beginning LAMARCKIAN GENETIC ALGORITHM (LGA), with a maximum of 2500000 energy evaluations.

Final-Value: -15.342


	FINAL GENETIC ALGORITHM DOCKED STATE
	_______________________________________________


Detailed state:  trans 23.863 -17.691 -2.621 quatxyzw 0.481686 -0.400262 0.753981 -0.198197 center 0.230 -0.012 -0.200 ntor 5 -43.7427 91.0108 68.5024 180.0000 -148.1034
State:	 23.863 -17.691  -2.621   0.491 -0.408  0.769 -157.137    -43.74   91.01   68.50  180.00 -148.10

DOCKED: MODEL       20
DOCKED: USER    Run = 20
DOCKED: USER    DPF = ligand_dock.biased.dpf
DOCKED: USER  
DOCKED: USER    Estimated Free Energy of Binding    =  -12.86 kcal/mol  [=(1)+(2)+(3)-(4)]
DOCKED: USER    Estimated Inhibition Constant, Ki   =  373.98 pM (picomolar)  [Temperature = 298.15 K]
DOCKED: USER    
DOCKED: USER    (1) Final Intermolecular Energy     =  -14.35 kcal/mol
DOCKED: USER        vdW + Hbond + desolv Energy     =  -14.35 kcal/mol
DOCKED: USER        Electrostatic Energy            =   +0.00 kcal/mol
DOCKED: USER    (2) Final Total Internal Energy     =   -0.99 kcal/mol
DOCKED: USER    (3) Torsional Free Energy           =   +1.49 kcal/mol
DOCKED: USER    (4) Unbound System's Energy  [=(2)] =   -0.99 kcal/mol
DOCKED: USER    
DOCKED: USER    
DOCKED: USER    NEWDPF move ligand.pdbqt
DOCKED: USER    NEWDPF about 0.230000 -0.012000 -0.200000
DOCKED: USER    NEWDPF tran0 23.862759 -17.691470 -2.621179
DOCKED: USER    NEWDPF quaternion0 0.481686 -0.400262 0.753981 -0.198197
DOCKED: USER    NEWDPF axisangle0 0.491435 -0.408363 0.769241 -157.136969
DOCKED: USER    NEWDPF quat0 0.491435 -0.408363 0.769241 -157.136969
DOCKED: USER    NEWDPF dihe0 -43.74 91.01 68.50 180.00 -148.10 
DOCKED: USER  keepresnum = 1 
DOCKED: USER  
DOCKED: REMARK  Name = 
DOCKED: REMARK  5 active torsions:
DOCKED: REMARK  status: ('A' for Active; 'I' for Inactive)
DOCKED: REMARK    1  A    between atoms: S_2  and  N_3
DOCKED: REMARK    2  A    between atoms: S_2  and  C_10
DOCKED: REMARK    3  A    between atoms: N_3  and  C_4
DOCKED: REMARK    4  A    between atoms: C_12  and  C_13
DOCKED: REMARK    5  A    between atoms: C_14  and  C_15
DOCKED: REMARK                            x       y       z     vdW  Elec       q    Type
DOCKED: REMARK                         _______ _______ _______ _____ _____    ______ ____
DOCKED: USER                              x       y       z     vdW  Elec       q    Type
DOCKED: USER                           _______ _______ _______ _____ _____    ______ ____
DOCKED: ROOT
DOCKED: ATOM      1  C   UNL     1      25.616 -16.473  -2.173 -0.50 -0.00    +0.000 A 
DOCKED: ATOM      2  C   UNL     1      24.354 -17.011  -1.882 -0.47 -0.00    +0.000 A 
DOCKED: ATOM      3  C   UNL     1      24.175 -17.852  -0.764 -0.69 -0.00    +0.000 A 
DOCKED: ATOM      4  C   UNL     1      25.285 -18.152   0.043 -0.58 -0.00    +0.000 A 
DOCKED: ATOM      5  C   UNL     1      26.540 -17.608  -0.243 -0.52 -0.00    +0.000 A 
DOCKED: ATOM      6  C   UNL     1      26.706 -16.767  -1.345 -0.43 -0.00    +0.000 A 
DOCKED: ENDROOT
DOCKED: BRANCH   1   8
DOCKED: ATOM      7  O   UNL     1      24.906 -14.259  -3.524 -0.84 -0.00    +0.000 OA
DOCKED: ATOM      8  S   UNL     1      25.830 -15.443  -3.586 -0.70 -0.00    +0.000 S 
DOCKED: ATOM      9  O   UNL     1      25.519 -16.244  -4.818 -0.72 -0.00    +0.000 OA
DOCKED: BRANCH   8  10
DOCKED: ATOM     10  N   UNL     1      27.469 -14.876  -3.671 -0.28 -0.00    +0.000 N 
DOCKED: ATOM     11  H   UNL     1      27.849 -14.440  -2.874 +0.01 -0.00    +0.000 HD
DOCKED: BRANCH  10  12
DOCKED: ATOM     12  C   UNL     1      28.305 -15.006  -4.834 -0.31 -0.00    +0.000 A 
DOCKED: ATOM     13  C   UNL     1      28.190 -14.136  -5.936 -0.31 -0.00    +0.000 A 
DOCKED: ATOM     14  C   UNL     1      29.028 -14.287  -7.045 -0.30 -0.00    +0.000 A 
DOCKED: ATOM     15  C   UNL     1      29.982 -15.306  -7.072 -0.27 -0.00    +0.000 A 
DOCKED: ATOM     16  C   UNL     1      30.099 -16.178  -5.988 -0.29 -0.00    +0.000 A 
DOCKED: ATOM     17  C   UNL     1      29.265 -16.031  -4.876 -0.28 -0.00    +0.000 A 
DOCKED: ENDBRANCH  10  12
DOCKED: ENDBRANCH   8  10
DOCKED: ENDBRANCH   1   8
DOCKED: BRANCH   3  18
DOCKED: ATOM     18  C   UNL     1      22.867 -18.466  -0.427 -0.83 -0.00    +0.000 C 
DOCKED: ATOM     19  C   UNL     1      22.071 -19.064  -1.326 -0.73 -0.00    +0.000 C 
DOCKED: BRANCH  19  20
DOCKED: ATOM     20  C   UNL     1      20.771 -19.675  -0.983 -0.82 -0.00    +0.000 C 
DOCKED: ATOM     21  N   UNL     1      20.477 -20.168   0.330 -0.69 -0.00    +0.000 N 
DOCKED: ATOM     22  O   UNL     1      19.312 -20.814   0.566 -0.88 -0.00    +0.000 OA
DOCKED: ATOM     23  O   UNL     1      19.884 -19.740  -1.876 -2.39 -0.00    +0.000 OA
DOCKED: ATOM     24  H   UNL     1      21.124 -20.037   1.060 -0.52 -0.00    +0.000 HD
DOCKED: ENDBRANCH  19  20
DOCKED: ENDBRANCH   3  18
DOCKED: TORSDOF 5
DOCKED: TER
DOCKED: ENDMDL
________________________________________________________________________________


	BEGINNING GENETIC ALGORITHM DOCKING 21 of 100
Run: 21 Seed: 340041621 1117245807 [ Run 21 of 100 GA/GALS ]
Beginning LAMARCKIAN GENETIC ALGORITHM (LGA), with a maximum of 2500000 energy evaluations.

Final-Value: -15.093


	FINAL GENETIC ALGORITHM DOCKED STATE
	_______________________________________________


Detailed state:  trans 23.799 -17.315 -2.922 quatxyzw 0.498857 -0.418533 0.724641 -0.225536 center 0.230 -0.012 -0.200 ntor 5 -61.4448 133.3484 94.8748 -180.0000 -167.2921
State:	 23.799 -17.315  -2.922   0.512 -0.430  0.744 -153.931    -61.44  133.35   94.87 -180.00 -167.29

DOCKED: MODEL       21
DOCKED: USER    Run = 21
DOCKED: USER    DPF = ligand_dock.biased.dpf
DOCKED: USER  
DOCKED: USER    Estimated Free Energy of Binding    =  -12.63 kcal/mol  [=(1)+(2)+(3)-(4)]
DOCKED: USER    Estimated Inhibition Constant, Ki   =  555.96 pM (picomolar)  [Temperature = 298.15 K]
DOCKED: USER    
DOCKED: USER    (1) Final Intermolecular Energy     =  -14.12 kcal/mol
DOCKED: USER        vdW + Hbond + desolv Energy     =  -14.12 kcal/mol
DOCKED: USER        Electrostatic Energy            =   +0.00 kcal/mol
DOCKED: USER    (2) Final Total Internal Energy     =   -0.98 kcal/mol
DOCKED: USER    (3) Torsional Free Energy           =   +1.49 kcal/mol
DOCKED: USER    (4) Unbound System's Energy  [=(2)] =   -0.98 kcal/mol
DOCKED: USER    
DOCKED: USER    
DOCKED: USER    NEWDPF move ligand.pdbqt
DOCKED: USER    NEWDPF about 0.230000 -0.012000 -0.200000
DOCKED: USER    NEWDPF tran0 23.799416 -17.315434 -2.921688
DOCKED: USER    NEWDPF quaternion0 0.498857 -0.418533 0.724641 -0.225536
DOCKED: USER    NEWDPF axisangle0 0.512051 -0.429601 0.743806 -153.931196
DOCKED: USER    NEWDPF quat0 0.512051 -0.429601 0.743806 -153.931196
DOCKED: USER    NEWDPF dihe0 -61.44 133.35 94.87 -180.00 -167.29 
DOCKED: USER  keepresnum = 1 
DOCKED: USER  
DOCKED: REMARK  Name = 
DOCKED: REMARK  5 active torsions:
DOCKED: REMARK  status: ('A' for Active; 'I' for Inactive)
DOCKED: REMARK    1  A    between atoms: S_2  and  N_3
DOCKED: REMARK    2  A    between atoms: S_2  and  C_10
DOCKED: REMARK    3  A    between atoms: N_3  and  C_4
DOCKED: REMARK    4  A    between atoms: C_12  and  C_13
DOCKED: REMARK    5  A    between atoms: C_14  and  C_15
DOCKED: REMARK                            x       y       z     vdW  Elec       q    Type
DOCKED: REMARK                         _______ _______ _______ _____ _____    ______ ____
DOCKED: USER                              x       y       z     vdW  Elec       q    Type
DOCKED: USER                           _______ _______ _______ _____ _____    ______ ____
DOCKED: ROOT
DOCKED: ATOM      1  C   UNL     1      25.646 -16.212  -2.561 -0.48 -0.00    +0.000 A 
DOCKED: ATOM      2  C   UNL     1      24.378 -16.689  -2.199 -0.15 -0.00    +0.000 A 
DOCKED: ATOM      3  C   UNL     1      24.227 -17.555  -1.096 -0.66 -0.00    +0.000 A 
DOCKED: ATOM      4  C   UNL     1      25.370 -17.943  -0.378 -0.62 -0.00    +0.000 A 
DOCKED: ATOM      5  C   UNL     1      26.632 -17.460  -0.734 -0.50 -0.00    +0.000 A 
DOCKED: ATOM      6  C   UNL     1      26.771 -16.594  -1.820 -0.39 -0.00    +0.000 A 
DOCKED: ENDROOT
DOCKED: BRANCH   1   8
DOCKED: ATOM      7  O   UNL     1      24.673 -14.184  -4.034 -1.08 -0.00    +0.000 OA
DOCKED: ATOM      8  S   UNL     1      25.823 -15.148  -3.955 -0.72 -0.00    +0.000 S 
DOCKED: ATOM      9  O   UNL     1      25.847 -15.987  -5.201 -1.12 +0.00    +0.000 OA
DOCKED: BRANCH   8  10
DOCKED: ATOM     10  N   UNL     1      27.306 -14.253  -3.839 -0.27 -0.00    +0.000 N 
DOCKED: ATOM     11  H   UNL     1      27.481 -13.753  -3.008 +0.00 -0.00    +0.000 HD
DOCKED: BRANCH  10  12
DOCKED: ATOM     12  C   UNL     1      28.295 -14.196  -4.882 -0.25 -0.00    +0.000 A 
DOCKED: ATOM     13  C   UNL     1      28.697 -12.977  -5.464 -0.15 -0.00    +0.000 A 
DOCKED: ATOM     14  C   UNL     1      29.668 -12.961  -6.469 -0.14 -0.00    +0.000 A 
DOCKED: ATOM     15  C   UNL     1      30.244 -14.155  -6.909 -0.21 -0.00    +0.000 A 
DOCKED: ATOM     16  C   UNL     1      29.847 -15.369  -6.344 -0.30 -0.00    +0.000 A 
DOCKED: ATOM     17  C   UNL     1      28.877 -15.391  -5.339 -0.32 -0.00    +0.000 A 
DOCKED: ENDBRANCH  10  12
DOCKED: ENDBRANCH   8  10
DOCKED: ENDBRANCH   1   8
DOCKED: BRANCH   3  18
DOCKED: ATOM     18  C   UNL     1      22.911 -18.107  -0.687 -0.82 -0.00    +0.000 C 
DOCKED: ATOM     19  C   UNL     1      22.253 -19.050  -1.376 -0.72 -0.00    +0.000 C 
DOCKED: BRANCH  19  20
DOCKED: ATOM     20  C   UNL     1      20.944 -19.596  -0.962 -0.81 -0.00    +0.000 C 
DOCKED: ATOM     21  N   UNL     1      20.654 -19.946   0.397 -0.68 -0.00    +0.000 N 
DOCKED: ATOM     22  O   UNL     1      19.479 -20.540   0.707 -0.84 -0.00    +0.000 OA
DOCKED: ATOM     23  O   UNL     1      20.047 -19.734  -1.837 -2.39 -0.00    +0.000 OA
DOCKED: ATOM     24  H   UNL     1      21.311 -19.754   1.105 -0.48 -0.00    +0.000 HD
DOCKED: ENDBRANCH  19  20
DOCKED: ENDBRANCH   3  18
DOCKED: TORSDOF 5
DOCKED: TER
DOCKED: ENDMDL
________________________________________________________________________________


	BEGINNING GENETIC ALGORITHM DOCKING 22 of 100
Run: 22 Seed: 817733260 918253693 [ Run 22 of 100 GA/GALS ]
Beginning LAMARCKIAN GENETIC ALGORITHM (LGA), with a maximum of 2500000 energy evaluations.

Final-Value: -14.624


	FINAL GENETIC ALGORITHM DOCKED STATE
	_______________________________________________


Detailed state:  trans 24.526 -16.959 -3.173 quatxyzw -0.402357 0.469622 -0.732571 0.284437 center 0.230 -0.012 -0.200 ntor 5 174.2958 -63.7299 155.6542 -87.1295 114.8925
State:	 24.526 -16.959  -3.173  -0.420  0.490 -0.764 146.950    174.30  -63.73  155.65  -87.13  114.89

DOCKED: MODEL       22
DOCKED: USER    Run = 22
DOCKED: USER    DPF = ligand_dock.biased.dpf
DOCKED: USER  
DOCKED: USER    Estimated Free Energy of Binding    =  -12.19 kcal/mol  [=(1)+(2)+(3)-(4)]
DOCKED: USER    Estimated Inhibition Constant, Ki   =    1.15 nM (nanomolar)  [Temperature = 298.15 K]
DOCKED: USER    
DOCKED: USER    (1) Final Intermolecular Energy     =  -13.69 kcal/mol
DOCKED: USER        vdW + Hbond + desolv Energy     =  -13.69 kcal/mol
DOCKED: USER        Electrostatic Energy            =   +0.00 kcal/mol
DOCKED: USER    (2) Final Total Internal Energy     =   -0.94 kcal/mol
DOCKED: USER    (3) Torsional Free Energy           =   +1.49 kcal/mol
DOCKED: USER    (4) Unbound System's Energy  [=(2)] =   -0.94 kcal/mol
DOCKED: USER    
DOCKED: USER    
DOCKED: USER    NEWDPF move ligand.pdbqt
DOCKED: USER    NEWDPF about 0.230000 -0.012000 -0.200000
DOCKED: USER    NEWDPF tran0 24.526263 -16.958814 -3.172958
DOCKED: USER    NEWDPF quaternion0 -0.402357 0.469622 -0.732571 0.284437
DOCKED: USER    NEWDPF axisangle0 -0.419693 0.489855 -0.764134 146.949657
DOCKED: USER    NEWDPF quat0 -0.419693 0.489855 -0.764134 146.949657
DOCKED: USER    NEWDPF dihe0 174.30 -63.73 155.65 -87.13 114.89 
DOCKED: USER  keepresnum = 1 
DOCKED: USER  
DOCKED: REMARK  Name = 
DOCKED: REMARK  5 active torsions:
DOCKED: REMARK  status: ('A' for Active; 'I' for Inactive)
DOCKED: REMARK    1  A    between atoms: S_2  and  N_3
DOCKED: REMARK    2  A    between atoms: S_2  and  C_10
DOCKED: REMARK    3  A    between atoms: N_3  and  C_4
DOCKED: REMARK    4  A    between atoms: C_12  and  C_13
DOCKED: REMARK    5  A    between atoms: C_14  and  C_15
DOCKED: REMARK                            x       y       z     vdW  Elec       q    Type
DOCKED: REMARK                         _______ _______ _______ _____ _____    ______ ____
DOCKED: USER                              x       y       z     vdW  Elec       q    Type
DOCKED: USER                           _______ _______ _______ _____ _____    ______ ____
DOCKED: ROOT
DOCKED: ATOM      1  C   UNL     1      26.511 -16.252  -2.609 -0.35 -0.00    +0.000 A 
DOCKED: ATOM      2  C   UNL     1      25.137 -16.434  -2.398 -0.49 -0.00    +0.000 A 
DOCKED: ATOM      3  C   UNL     1      24.677 -17.195  -1.303 -0.61 -0.00    +0.000 A 
DOCKED: ATOM      4  C   UNL     1      25.618 -17.781  -0.441 -0.60 -0.00    +0.000 A 
DOCKED: ATOM      5  C   UNL     1      26.987 -17.590  -0.648 -0.47 -0.00    +0.000 A 
DOCKED: ATOM      6  C   UNL     1      27.434 -16.825  -1.726 -0.33 -0.00    +0.000 A 
DOCKED: ENDROOT
DOCKED: BRANCH   1   8
DOCKED: ATOM      7  O   UNL     1      26.238 -15.611  -5.207 -1.20 +0.00    +0.000 OA
DOCKED: ATOM      8  S   UNL     1      27.074 -15.316  -3.993 -0.54 -0.00    +0.000 S 
DOCKED: ATOM      9  O   UNL     1      28.501 -15.688  -4.278 -0.34 -0.00    +0.000 OA
DOCKED: BRANCH   8  10
DOCKED: ATOM     10  N   UNL     1      26.983 -13.618  -3.643 -0.25 -0.00    +0.000 N 
DOCKED: ATOM     11  H   UNL     1      27.246 -13.317  -2.743 +0.00 -0.00    +0.000 HD
DOCKED: BRANCH  10  12
DOCKED: ATOM     12  C   UNL     1      26.548 -12.625  -4.588 -0.27 -0.00    +0.000 A 
DOCKED: ATOM     13  C   UNL     1      27.372 -12.188  -5.644 -0.19 -0.00    +0.000 A 
DOCKED: ATOM     14  C   UNL     1      26.910 -11.229  -6.550 -0.16 -0.00    +0.000 A 
DOCKED: ATOM     15  C   UNL     1      25.629 -10.691  -6.411 -0.25 -0.00    +0.000 A 
DOCKED: ATOM     16  C   UNL     1      24.807 -11.111  -5.363 -0.37 -0.00    +0.000 A 
DOCKED: ATOM     17  C   UNL     1      25.264 -12.070  -4.456 -0.27 -0.00    +0.000 A 
DOCKED: ENDBRANCH  10  12
DOCKED: ENDBRANCH   8  10
DOCKED: ENDBRANCH   1   8
DOCKED: BRANCH   3  18
DOCKED: ATOM     18  C   UNL     1      23.235 -17.439  -1.049 -0.72 -0.00    +0.000 C 
DOCKED: ATOM     19  C   UNL     1      22.722 -18.645  -0.764 -0.83 -0.00    +0.000 C 
DOCKED: BRANCH  19  20
DOCKED: ATOM     20  C   UNL     1      21.285 -18.879  -0.511 -0.85 -0.00    +0.000 C 
DOCKED: ATOM     21  N   UNL     1      20.793 -20.109   0.037 -0.68 -0.00    +0.000 N 
DOCKED: ATOM     22  O   UNL     1      19.461 -20.314   0.150 -1.09 -0.00    +0.000 OA
DOCKED: ATOM     23  O   UNL     1      20.472 -17.951  -0.767 -2.25 -0.00    +0.000 OA
DOCKED: ATOM     24  H   UNL     1      21.425 -20.804   0.330 -0.57 -0.00    +0.000 HD
DOCKED: ENDBRANCH  19  20
DOCKED: ENDBRANCH   3  18
DOCKED: TORSDOF 5
DOCKED: TER
DOCKED: ENDMDL
________________________________________________________________________________


	BEGINNING GENETIC ALGORITHM DOCKING 23 of 100
Run: 23 Seed: 1277049987 958605887 [ Run 23 of 100 GA/GALS ]
Beginning LAMARCKIAN GENETIC ALGORITHM (LGA), with a maximum of 2500000 energy evaluations.

Final-Value: -15.092


	FINAL GENETIC ALGORITHM DOCKED STATE
	_______________________________________________


Detailed state:  trans 23.731 -17.063 -2.820 quatxyzw 0.504665 -0.437249 0.684696 -0.292093 center 0.230 -0.012 -0.200 ntor 5 -120.4174 -67.9644 99.3232 164.3004 -166.5941
State:	 23.731 -17.063  -2.820   0.528 -0.457  0.716 -146.033   -120.42  -67.96   99.32  164.30 -166.59

DOCKED: MODEL       23
DOCKED: USER    Run = 23
DOCKED: USER    DPF = ligand_dock.biased.dpf
DOCKED: USER  
DOCKED: USER    Estimated Free Energy of Binding    =  -12.60 kcal/mol  [=(1)+(2)+(3)-(4)]
DOCKED: USER    Estimated Inhibition Constant, Ki   =  577.98 pM (picomolar)  [Temperature = 298.15 K]
DOCKED: USER    
DOCKED: USER    (1) Final Intermolecular Energy     =  -14.09 kcal/mol
DOCKED: USER        vdW + Hbond + desolv Energy     =  -14.09 kcal/mol
DOCKED: USER        Electrostatic Energy            =   +0.00 kcal/mol
DOCKED: USER    (2) Final Total Internal Energy     =   -1.00 kcal/mol
DOCKED: USER    (3) Torsional Free Energy           =   +1.49 kcal/mol
DOCKED: USER    (4) Unbound System's Energy  [=(2)] =   -1.00 kcal/mol
DOCKED: USER    
DOCKED: USER    
DOCKED: USER    NEWDPF move ligand.pdbqt
DOCKED: USER    NEWDPF about 0.230000 -0.012000 -0.200000
DOCKED: USER    NEWDPF tran0 23.731361 -17.062895 -2.819748
DOCKED: USER    NEWDPF quaternion0 0.504665 -0.437249 0.684696 -0.292093
DOCKED: USER    NEWDPF axisangle0 0.527677 -0.457187 0.715917 -146.033346
DOCKED: USER    NEWDPF quat0 0.527677 -0.457187 0.715917 -146.033346
DOCKED: USER    NEWDPF dihe0 -120.42 -67.96 99.32 164.30 -166.59 
DOCKED: USER  keepresnum = 1 
DOCKED: USER  
DOCKED: REMARK  Name = 
DOCKED: REMARK  5 active torsions:
DOCKED: REMARK  status: ('A' for Active; 'I' for Inactive)
DOCKED: REMARK    1  A    between atoms: S_2  and  N_3
DOCKED: REMARK    2  A    between atoms: S_2  and  C_10
DOCKED: REMARK    3  A    between atoms: N_3  and  C_4
DOCKED: REMARK    4  A    between atoms: C_12  and  C_13
DOCKED: REMARK    5  A    between atoms: C_14  and  C_15
DOCKED: REMARK                            x       y       z     vdW  Elec       q    Type
DOCKED: REMARK                         _______ _______ _______ _____ _____    ______ ____
DOCKED: USER                              x       y       z     vdW  Elec       q    Type
DOCKED: USER                           _______ _______ _______ _____ _____    ______ ____
DOCKED: ROOT
DOCKED: ATOM      1  C   UNL     1      25.730 -16.206  -2.647 -0.47 -0.00    +0.000 A 
DOCKED: ATOM      2  C   UNL     1      24.452 -16.518  -2.161 -0.22 -0.00    +0.000 A 
DOCKED: ATOM      3  C   UNL     1      24.297 -17.360  -1.041 -0.64 -0.00    +0.000 A 
DOCKED: ATOM      4  C   UNL     1      25.445 -17.894  -0.431 -0.61 -0.00    +0.000 A 
DOCKED: ATOM      5  C   UNL     1      26.718 -17.576  -0.910 -0.47 -0.00    +0.000 A 
DOCKED: ATOM      6  C   UNL     1      26.862 -16.731  -2.012 -0.34 -0.00    +0.000 A 
DOCKED: ENDROOT
DOCKED: BRANCH   1   8
DOCKED: ATOM      7  O   UNL     1      24.899 -14.056  -4.031 -1.01 -0.00    +0.000 OA
DOCKED: ATOM      8  S   UNL     1      25.908 -15.170  -4.060 -0.74 -0.00    +0.000 S 
DOCKED: ATOM      9  O   UNL     1      25.688 -15.997  -5.295 -1.07 +0.00    +0.000 OA
DOCKED: BRANCH   8  10
DOCKED: ATOM     10  N   UNL     1      27.503 -14.487  -4.105 -0.28 -0.00    +0.000 N 
DOCKED: ATOM     11  H   UNL     1      27.744 -13.829  -3.413 +0.00 -0.00    +0.000 HD
DOCKED: BRANCH  10  12
DOCKED: ATOM     12  C   UNL     1      28.495 -14.825  -5.091 -0.30 -0.00    +0.000 A 
DOCKED: ATOM     13  C   UNL     1      29.265 -16.002  -5.002 -0.29 -0.00    +0.000 A 
DOCKED: ATOM     14  C   UNL     1      30.212 -16.302  -5.986 -0.29 -0.00    +0.000 A 
DOCKED: ATOM     15  C   UNL     1      30.406 -15.434  -7.062 -0.27 -0.00    +0.000 A 
DOCKED: ATOM     16  C   UNL     1      29.653 -14.261  -7.156 -0.27 -0.00    +0.000 A 
DOCKED: ATOM     17  C   UNL     1      28.705 -13.957  -6.176 -0.29 -0.00    +0.000 A 
DOCKED: ENDBRANCH  10  12
DOCKED: ENDBRANCH   8  10
DOCKED: ENDBRANCH   1   8
DOCKED: BRANCH   3  18
DOCKED: ATOM     18  C   UNL     1      22.967 -17.740  -0.504 -0.79 -0.00    +0.000 C 
DOCKED: ATOM     19  C   UNL     1      22.167 -18.654  -1.073 -0.82 -0.00    +0.000 C 
DOCKED: BRANCH  19  20
DOCKED: ATOM     20  C   UNL     1      20.845 -19.028  -0.532 -0.87 -0.00    +0.000 C 
DOCKED: ATOM     21  N   UNL     1      20.631 -20.241   0.202 -0.67 -0.00    +0.000 N 
DOCKED: ATOM     22  O   UNL     1      19.381 -20.589   0.585 -0.88 -0.00    +0.000 OA
DOCKED: ATOM     23  O   UNL     1      19.879 -18.237  -0.705 -1.89 -0.00    +0.000 OA
DOCKED: ATOM     24  H   UNL     1      21.394 -20.820   0.427 -0.61 -0.00    +0.000 HD
DOCKED: ENDBRANCH  19  20
DOCKED: ENDBRANCH   3  18
DOCKED: TORSDOF 5
DOCKED: TER
DOCKED: ENDMDL
________________________________________________________________________________


	BEGINNING GENETIC ALGORITHM DOCKING 24 of 100
Run: 24 Seed: 1075437173 762170894 [ Run 24 of 100 GA/GALS ]
Beginning LAMARCKIAN GENETIC ALGORITHM (LGA), with a maximum of 2500000 energy evaluations.

Final-Value: -14.632


	FINAL GENETIC ALGORITHM DOCKED STATE
	_______________________________________________


Detailed state:  trans 24.702 -16.954 -3.232 quatxyzw -0.374521 0.446191 -0.776835 0.239112 center 0.230 -0.012 -0.200 ntor 5 149.9579 91.8037 176.5815 171.6261 -126.3851
State:	 24.702 -16.954  -3.232  -0.386  0.460 -0.800 152.332    149.96   91.80  176.58  171.63 -126.39

DOCKED: MODEL       24
DOCKED: USER    Run = 24
DOCKED: USER    DPF = ligand_dock.biased.dpf
DOCKED: USER  
DOCKED: USER    Estimated Free Energy of Binding    =  -12.18 kcal/mol  [=(1)+(2)+(3)-(4)]
DOCKED: USER    Estimated Inhibition Constant, Ki   =    1.18 nM (nanomolar)  [Temperature = 298.15 K]
DOCKED: USER    
DOCKED: USER    (1) Final Intermolecular Energy     =  -13.67 kcal/mol
DOCKED: USER        vdW + Hbond + desolv Energy     =  -13.67 kcal/mol
DOCKED: USER        Electrostatic Energy            =   +0.00 kcal/mol
DOCKED: USER    (2) Final Total Internal Energy     =   -0.96 kcal/mol
DOCKED: USER    (3) Torsional Free Energy           =   +1.49 kcal/mol
DOCKED: USER    (4) Unbound System's Energy  [=(2)] =   -0.96 kcal/mol
DOCKED: USER    
DOCKED: USER    
DOCKED: USER    NEWDPF move ligand.pdbqt
DOCKED: USER    NEWDPF about 0.230000 -0.012000 -0.200000
DOCKED: USER    NEWDPF tran0 24.702018 -16.954029 -3.232345
DOCKED: USER    NEWDPF quaternion0 -0.374521 0.446191 -0.776835 0.239112
DOCKED: USER    NEWDPF axisangle0 -0.385710 0.459520 -0.800043 152.331759
DOCKED: USER    NEWDPF quat0 -0.385710 0.459520 -0.800043 152.331759
DOCKED: USER    NEWDPF dihe0 149.96 91.80 176.58 171.63 -126.39 
DOCKED: USER  keepresnum = 1 
DOCKED: USER  
DOCKED: REMARK  Name = 
DOCKED: REMARK  5 active torsions:
DOCKED: REMARK  status: ('A' for Active; 'I' for Inactive)
DOCKED: REMARK    1  A    between atoms: S_2  and  N_3
DOCKED: REMARK    2  A    between atoms: S_2  and  C_10
DOCKED: REMARK    3  A    between atoms: N_3  and  C_4
DOCKED: REMARK    4  A    between atoms: C_12  and  C_13
DOCKED: REMARK    5  A    between atoms: C_14  and  C_15
DOCKED: REMARK                            x       y       z     vdW  Elec       q    Type
DOCKED: REMARK                         _______ _______ _______ _____ _____    ______ ____
DOCKED: USER                              x       y       z     vdW  Elec       q    Type
DOCKED: USER                           _______ _______ _______ _____ _____    ______ ____
DOCKED: ROOT
DOCKED: ATOM      1  C   UNL     1      26.551 -16.049  -2.510 -0.39 -0.00    +0.000 A 
DOCKED: ATOM      2  C   UNL     1      25.182 -16.339  -2.431 -0.48 -0.00    +0.000 A 
DOCKED: ATOM      3  C   UNL     1      24.669 -17.082  -1.347 -0.60 -0.00    +0.000 A 
DOCKED: ATOM      4  C   UNL     1      25.556 -17.538  -0.358 -0.57 -0.00    +0.000 A 
DOCKED: ATOM      5  C   UNL     1      26.919 -17.240  -0.434 -0.47 -0.00    +0.000 A 
DOCKED: ATOM      6  C   UNL     1      27.416 -16.495  -1.504 -0.35 -0.00    +0.000 A 
DOCKED: ENDROOT
DOCKED: BRANCH   1   8
DOCKED: ATOM      7  O   UNL     1      26.916 -13.670  -3.710 -0.28 -0.00    +0.000 OA
DOCKED: ATOM      8  S   UNL     1      27.181 -15.140  -3.882 -0.51 -0.00    +0.000 S 
DOCKED: ATOM      9  O   UNL     1      26.498 -15.618  -5.132 -1.14 +0.00    +0.000 OA
DOCKED: BRANCH   8  10
DOCKED: ATOM     10  N   UNL     1      28.892 -15.393  -4.032 -0.22 -0.00    +0.000 N 
DOCKED: ATOM     11  H   UNL     1      29.467 -15.120  -3.281 +0.00 -0.00    +0.000 HD
DOCKED: BRANCH  10  12
DOCKED: ATOM     12  C   UNL     1      29.520 -15.977  -5.187 -0.28 -0.00    +0.000 A 
DOCKED: ATOM     13  C   UNL     1      29.773 -15.231  -6.356 -0.30 -0.00    +0.000 A 
DOCKED: ATOM     14  C   UNL     1      30.395 -15.830  -7.455 -0.23 -0.00    +0.000 A 
DOCKED: ATOM     15  C   UNL     1      30.764 -17.176  -7.405 -0.30 -0.00    +0.000 A 
DOCKED: ATOM     16  C   UNL     1      30.511 -17.926  -6.255 -0.32 -0.00    +0.000 A 
DOCKED: ATOM     17  C   UNL     1      29.891 -17.331  -5.153 -0.26 -0.00    +0.000 A 
DOCKED: ENDBRANCH  10  12
DOCKED: ENDBRANCH   8  10
DOCKED: ENDBRANCH   1   8
DOCKED: BRANCH   3  18
DOCKED: ATOM     18  C   UNL     1      23.232 -17.436  -1.228 -0.64 -0.00    +0.000 C 
DOCKED: ATOM     19  C   UNL     1      22.783 -18.505  -0.555 -0.83 -0.00    +0.000 C 
DOCKED: BRANCH  19  20
DOCKED: ATOM     20  C   UNL     1      21.351 -18.851  -0.440 -0.85 -0.00    +0.000 C 
DOCKED: ATOM     21  N   UNL     1      20.905 -20.119   0.059 -0.65 -0.00    +0.000 N 
DOCKED: ATOM     22  O   UNL     1      19.587 -20.426   0.044 -1.16 -0.00    +0.000 OA
DOCKED: ATOM     23  O   UNL     1      20.496 -17.987  -0.774 -2.25 -0.00    +0.000 OA
DOCKED: ATOM     24  H   UNL     1      21.558 -20.765   0.411 -0.61 -0.00    +0.000 HD
DOCKED: ENDBRANCH  19  20
DOCKED: ENDBRANCH   3  18
DOCKED: TORSDOF 5
DOCKED: TER
DOCKED: ENDMDL
________________________________________________________________________________


	BEGINNING GENETIC ALGORITHM DOCKING 25 of 100
Run: 25 Seed: 1733432882 1759429703 [ Run 25 of 100 GA/GALS ]
Beginning LAMARCKIAN GENETIC ALGORITHM (LGA), with a maximum of 2500000 energy evaluations.

Final-Value: -14.260


	FINAL GENETIC ALGORITHM DOCKED STATE
	_______________________________________________


Detailed state:  trans 24.987 -15.182 -1.584 quatxyzw 0.493095 -0.772370 0.393551 0.073609 center 0.230 -0.012 -0.200 ntor 5 63.0466 171.2949 -71.1603 -25.6479 -170.9785
State:	 24.987 -15.182  -1.584   0.494 -0.774  0.395 171.557     63.05  171.29  -71.16  -25.65 -170.98

DOCKED: MODEL       25
DOCKED: USER    Run = 25
DOCKED: USER    DPF = ligand_dock.biased.dpf
DOCKED: USER  
DOCKED: USER    Estimated Free Energy of Binding    =  -11.74 kcal/mol  [=(1)+(2)+(3)-(4)]
DOCKED: USER    Estimated Inhibition Constant, Ki   =    2.48 nM (nanomolar)  [Temperature = 298.15 K]
DOCKED: USER    
DOCKED: USER    (1) Final Intermolecular Energy     =  -13.23 kcal/mol
DOCKED: USER        vdW + Hbond + desolv Energy     =  -13.23 kcal/mol
DOCKED: USER        Electrostatic Energy            =   +0.00 kcal/mol
DOCKED: USER    (2) Final Total Internal Energy     =   -1.03 kcal/mol
DOCKED: USER    (3) Torsional Free Energy           =   +1.49 kcal/mol
DOCKED: USER    (4) Unbound System's Energy  [=(2)] =   -1.03 kcal/mol
DOCKED: USER    
DOCKED: USER    
DOCKED: USER    NEWDPF move ligand.pdbqt
DOCKED: USER    NEWDPF about 0.230000 -0.012000 -0.200000
DOCKED: USER    NEWDPF tran0 24.986659 -15.181718 -1.583553
DOCKED: USER    NEWDPF quaternion0 0.493095 -0.772370 0.393551 0.073609
DOCKED: USER    NEWDPF axisangle0 0.494437 -0.774471 0.394622 171.557339
DOCKED: USER    NEWDPF quat0 0.494437 -0.774471 0.394622 171.557339
DOCKED: USER    NEWDPF dihe0 63.05 171.29 -71.16 -25.65 -170.98 
DOCKED: USER  keepresnum = 1 
DOCKED: USER  
DOCKED: REMARK  Name = 
DOCKED: REMARK  5 active torsions:
DOCKED: REMARK  status: ('A' for Active; 'I' for Inactive)
DOCKED: REMARK    1  A    between atoms: S_2  and  N_3
DOCKED: REMARK    2  A    between atoms: S_2  and  C_10
DOCKED: REMARK    3  A    between atoms: N_3  and  C_4
DOCKED: REMARK    4  A    between atoms: C_12  and  C_13
DOCKED: REMARK    5  A    between atoms: C_14  and  C_15
DOCKED: REMARK                            x       y       z     vdW  Elec       q    Type
DOCKED: REMARK                         _______ _______ _______ _____ _____    ______ ____
DOCKED: USER                              x       y       z     vdW  Elec       q    Type
DOCKED: USER                           _______ _______ _______ _____ _____    ______ ____
DOCKED: ROOT
DOCKED: ATOM      1  C   UNL     1      26.796 -15.261  -0.367 -0.31 -0.00    +0.000 A 
DOCKED: ATOM      2  C   UNL     1      25.488 -15.645  -0.698 -0.32 -0.00    +0.000 A 
DOCKED: ATOM      3  C   UNL     1      25.201 -16.981  -1.045 -0.56 -0.00    +0.000 A 
DOCKED: ATOM      4  C   UNL     1      26.249 -17.916  -1.070 -0.45 -0.00    +0.000 A 
DOCKED: ATOM      5  C   UNL     1      27.550 -17.534  -0.731 -0.39 -0.00    +0.000 A 
DOCKED: ATOM      6  C   UNL     1      27.823 -16.212  -0.376 -0.31 -0.00    +0.000 A 
DOCKED: ENDROOT
DOCKED: BRANCH   1   8
DOCKED: ATOM      7  O   UNL     1      25.987 -12.965   0.775 -0.42 -0.00    +0.000 OA
DOCKED: ATOM      8  S   UNL     1      27.145 -13.583   0.043 -0.32 -0.00    +0.000 S 
DOCKED: ATOM      9  O   UNL     1      27.388 -12.817  -1.226 -0.17 -0.00    +0.000 OA
DOCKED: BRANCH   8  10
DOCKED: ATOM     10  N   UNL     1      28.560 -13.495   1.046 -0.15 -0.00    +0.000 N 
DOCKED: ATOM     11  H   UNL     1      29.408 -13.225   0.625 +0.00 -0.00    +0.000 HD
DOCKED: BRANCH  10  12
DOCKED: ATOM     12  C   UNL     1      28.568 -13.792   2.453 -0.23 -0.00    +0.000 A 
DOCKED: ATOM     13  C   UNL     1      29.753 -14.125   3.139 -0.23 -0.00    +0.000 A 
DOCKED: ATOM     14  C   UNL     1      29.723 -14.397   4.510 -0.34 -0.00    +0.000 A 
DOCKED: ATOM     15  C   UNL     1      28.515 -14.346   5.210 -0.42 -0.00    +0.000 A 
DOCKED: ATOM     16  C   UNL     1      27.334 -14.024   4.538 -0.52 -0.00    +0.000 A 
DOCKED: ATOM     17  C   UNL     1      27.359 -13.750   3.168 -0.37 -0.00    +0.000 A 
DOCKED: ENDBRANCH  10  12
DOCKED: ENDBRANCH   8  10
DOCKED: ENDBRANCH   1   8
DOCKED: BRANCH   3  18
DOCKED: ATOM     18  C   UNL     1      23.839 -17.433  -1.427 -0.70 -0.00    +0.000 C 
DOCKED: ATOM     19  C   UNL     1      22.960 -17.961  -0.562 -0.81 -0.00    +0.000 C 
DOCKED: BRANCH  19  20
DOCKED: ATOM     20  C   UNL     1      21.606 -18.407  -0.950 -0.79 -0.00    +0.000 C 
DOCKED: ATOM     21  N   UNL     1      21.363 -19.678  -1.565 -0.59 -0.00    +0.000 N 
DOCKED: ATOM     22  O   UNL     1      20.121 -19.995  -1.997 -2.26 -0.00    +0.000 OA
DOCKED: ATOM     23  O   UNL     1      20.631 -17.646  -0.707 -2.20 +0.00    +0.000 OA
DOCKED: ATOM     24  H   UNL     1      22.101 -20.320  -1.673 -0.38 -0.00    +0.000 HD
DOCKED: ENDBRANCH  19  20
DOCKED: ENDBRANCH   3  18
DOCKED: TORSDOF 5
DOCKED: TER
DOCKED: ENDMDL
________________________________________________________________________________


	BEGINNING GENETIC ALGORITHM DOCKING 26 of 100
Run: 26 Seed: 1768915917 1508848556 [ Run 26 of 100 GA/GALS ]
Beginning LAMARCKIAN GENETIC ALGORITHM (LGA), with a maximum of 2500000 energy evaluations.

Final-Value: -14.442


	FINAL GENETIC ALGORITHM DOCKED STATE
	_______________________________________________


Detailed state:  trans 24.051 -17.410 -3.150 quatxyzw -0.475468 0.484953 -0.730486 0.071701 center 0.230 -0.012 -0.200 ntor 5 128.1206 42.3129 -87.9833 -22.5589 -63.7405
State:	 24.051 -17.410  -3.150  -0.477  0.486 -0.732 171.777    128.12   42.31  -87.98  -22.56  -63.74

DOCKED: MODEL       26
DOCKED: USER    Run = 26
DOCKED: USER    DPF = ligand_dock.biased.dpf
DOCKED: USER  
DOCKED: USER    Estimated Free Energy of Binding    =  -11.93 kcal/mol  [=(1)+(2)+(3)-(4)]
DOCKED: USER    Estimated Inhibition Constant, Ki   =    1.81 nM (nanomolar)  [Temperature = 298.15 K]
DOCKED: USER    
DOCKED: USER    (1) Final Intermolecular Energy     =  -13.42 kcal/mol
DOCKED: USER        vdW + Hbond + desolv Energy     =  -13.42 kcal/mol
DOCKED: USER        Electrostatic Energy            =   +0.00 kcal/mol
DOCKED: USER    (2) Final Total Internal Energy     =   -1.02 kcal/mol
DOCKED: USER    (3) Torsional Free Energy           =   +1.49 kcal/mol
DOCKED: USER    (4) Unbound System's Energy  [=(2)] =   -1.02 kcal/mol
DOCKED: USER    
DOCKED: USER    
DOCKED: USER    NEWDPF move ligand.pdbqt
DOCKED: USER    NEWDPF about 0.230000 -0.012000 -0.200000
DOCKED: USER    NEWDPF tran0 24.050729 -17.409547 -3.150237
DOCKED: USER    NEWDPF quaternion0 -0.475468 0.484953 -0.730486 0.071701
DOCKED: USER    NEWDPF axisangle0 -0.476695 0.486204 -0.732371 171.776574
DOCKED: USER    NEWDPF quat0 -0.476695 0.486204 -0.732371 171.776574
DOCKED: USER    NEWDPF dihe0 128.12 42.31 -87.98 -22.56 -63.74 
DOCKED: USER  keepresnum = 1 
DOCKED: USER  
DOCKED: REMARK  Name = 
DOCKED: REMARK  5 active torsions:
DOCKED: REMARK  status: ('A' for Active; 'I' for Inactive)
DOCKED: REMARK    1  A    between atoms: S_2  and  N_3
DOCKED: REMARK    2  A    between atoms: S_2  and  C_10
DOCKED: REMARK    3  A    between atoms: N_3  and  C_4
DOCKED: REMARK    4  A    between atoms: C_12  and  C_13
DOCKED: REMARK    5  A    between atoms: C_14  and  C_15
DOCKED: REMARK                            x       y       z     vdW  Elec       q    Type
DOCKED: REMARK                         _______ _______ _______ _____ _____    ______ ____
DOCKED: USER                              x       y       z     vdW  Elec       q    Type
DOCKED: USER                           _______ _______ _______ _____ _____    ______ ____
DOCKED: ROOT
DOCKED: ATOM      1  C   UNL     1      25.601 -16.224  -2.176 -0.49 -0.00    +0.000 A 
DOCKED: ATOM      2  C   UNL     1      24.382 -16.917  -2.203 -0.21 -0.00    +0.000 A 
DOCKED: ATOM      3  C   UNL     1      24.177 -18.038  -1.372 -0.66 -0.00    +0.000 A 
DOCKED: ATOM      4  C   UNL     1      25.221 -18.457  -0.530 -0.58 -0.00    +0.000 A 
DOCKED: ATOM      5  C   UNL     1      26.431 -17.760  -0.497 -0.54 -0.00    +0.000 A 
DOCKED: ATOM      6  C   UNL     1      26.621 -16.645  -1.314 -0.43 -0.00    +0.000 A 
DOCKED: ENDROOT
DOCKED: BRANCH   1   8
DOCKED: ATOM      7  O   UNL     1      26.632 -13.765  -2.528 -0.28 -0.00    +0.000 OA
DOCKED: ATOM      8  S   UNL     1      25.851 -14.838  -3.235 -0.62 -0.00    +0.000 S 
DOCKED: ATOM      9  O   UNL     1      24.511 -14.289  -3.633 -0.91 -0.00    +0.000 OA
DOCKED: BRANCH   8  10
DOCKED: ATOM     10  N   UNL     1      26.717 -15.323  -4.660 -0.51 -0.00    +0.000 N 
DOCKED: ATOM     11  H   UNL     1      26.213 -15.406  -5.501 -0.07 +0.00    +0.000 HD
DOCKED: BRANCH  10  12
DOCKED: ATOM     12  C   UNL     1      28.127 -15.611  -4.684 -0.33 -0.00    +0.000 A 
DOCKED: ATOM     13  C   UNL     1      28.801 -16.132  -3.562 -0.22 -0.00    +0.000 A 
DOCKED: ATOM     14  C   UNL     1      30.170 -16.410  -3.626 -0.17 -0.00    +0.000 A 
DOCKED: ATOM     15  C   UNL     1      30.881 -16.167  -4.803 -0.14 -0.00    +0.000 A 
DOCKED: ATOM     16  C   UNL     1      30.223 -15.644  -5.919 -0.25 -0.00    +0.000 A 
DOCKED: ATOM     17  C   UNL     1      28.855 -15.366  -5.860 -0.35 -0.00    +0.000 A 
DOCKED: ENDBRANCH  10  12
DOCKED: ENDBRANCH   8  10
DOCKED: ENDBRANCH   1   8
DOCKED: BRANCH   3  18
DOCKED: ATOM     18  C   UNL     1      22.916 -18.820  -1.381 -0.77 -0.00    +0.000 C 
DOCKED: ATOM     19  C   UNL     1      22.040 -18.832  -0.365 -0.83 -0.00    +0.000 C 
DOCKED: BRANCH  19  20
DOCKED: ATOM     20  C   UNL     1      20.785 -19.612  -0.382 -0.84 -0.00    +0.000 C 
DOCKED: ATOM     21  N   UNL     1      20.235 -20.206   0.800 -0.69 -0.00    +0.000 N 
DOCKED: ATOM     22  O   UNL     1      19.142 -20.998   0.714 -0.81 -0.00    +0.000 OA
DOCKED: ATOM     23  O   UNL     1      20.170 -19.735  -1.475 -2.25 -0.00    +0.000 OA
DOCKED: ATOM     24  H   UNL     1      20.653 -20.037   1.675 -0.47 -0.00    +0.000 HD
DOCKED: ENDBRANCH  19  20
DOCKED: ENDBRANCH   3  18
DOCKED: TORSDOF 5
DOCKED: TER
DOCKED: ENDMDL
________________________________________________________________________________


	BEGINNING GENETIC ALGORITHM DOCKING 27 of 100
Run: 27 Seed: 1835701240 172610 [ Run 27 of 100 GA/GALS ]
Beginning LAMARCKIAN GENETIC ALGORITHM (LGA), with a maximum of 2500000 energy evaluations.

Final-Value: -14.458


	FINAL GENETIC ALGORITHM DOCKED STATE
	_______________________________________________


Detailed state:  trans 24.990 -16.924 -2.917 quatxyzw -0.435518 0.491383 -0.698753 0.283921 center 0.230 -0.012 -0.200 ntor 5 179.2410 102.5778 93.6102 147.2893 -134.6982
State:	 24.990 -16.924  -2.917  -0.454  0.512 -0.729 147.011    179.24  102.58   93.61  147.29 -134.70

DOCKED: MODEL       27
DOCKED: USER    Run = 27
DOCKED: USER    DPF = ligand_dock.biased.dpf
DOCKED: USER  
DOCKED: USER    Estimated Free Energy of Binding    =  -11.93 kcal/mol  [=(1)+(2)+(3)-(4)]
DOCKED: USER    Estimated Inhibition Constant, Ki   =    1.79 nM (nanomolar)  [Temperature = 298.15 K]
DOCKED: USER    
DOCKED: USER    (1) Final Intermolecular Energy     =  -13.42 kcal/mol
DOCKED: USER        vdW + Hbond + desolv Energy     =  -13.42 kcal/mol
DOCKED: USER        Electrostatic Energy            =   +0.00 kcal/mol
DOCKED: USER    (2) Final Total Internal Energy     =   -1.03 kcal/mol
DOCKED: USER    (3) Torsional Free Energy           =   +1.49 kcal/mol
DOCKED: USER    (4) Unbound System's Energy  [=(2)] =   -1.03 kcal/mol
DOCKED: USER    
DOCKED: USER    
DOCKED: USER    NEWDPF move ligand.pdbqt
DOCKED: USER    NEWDPF about 0.230000 -0.012000 -0.200000
DOCKED: USER    NEWDPF tran0 24.989819 -16.924481 -2.916732
DOCKED: USER    NEWDPF quaternion0 -0.435518 0.491383 -0.698753 0.283921
DOCKED: USER    NEWDPF axisangle0 -0.454209 0.512473 -0.728743 147.011278
DOCKED: USER    NEWDPF quat0 -0.454209 0.512473 -0.728743 147.011278
DOCKED: USER    NEWDPF dihe0 179.24 102.58 93.61 147.29 -134.70 
DOCKED: USER  keepresnum = 1 
DOCKED: USER  
DOCKED: REMARK  Name = 
DOCKED: REMARK  5 active torsions:
DOCKED: REMARK  status: ('A' for Active; 'I' for Inactive)
DOCKED: REMARK    1  A    between atoms: S_2  and  N_3
DOCKED: REMARK    2  A    between atoms: S_2  and  C_10
DOCKED: REMARK    3  A    between atoms: N_3  and  C_4
DOCKED: REMARK    4  A    between atoms: C_12  and  C_13
DOCKED: REMARK    5  A    between atoms: C_14  and  C_15
DOCKED: REMARK                            x       y       z     vdW  Elec       q    Type
DOCKED: REMARK                         _______ _______ _______ _____ _____    ______ ____
DOCKED: USER                              x       y       z     vdW  Elec       q    Type
DOCKED: USER                           _______ _______ _______ _____ _____    ______ ____
DOCKED: ROOT
DOCKED: ATOM      1  C   UNL     1      27.012 -16.271  -2.423 -0.31 -0.00    +0.000 A 
DOCKED: ATOM      2  C   UNL     1      25.652 -16.467  -2.141 -0.50 -0.00    +0.000 A 
DOCKED: ATOM      3  C   UNL     1      25.255 -17.316  -1.086 -0.59 -0.00    +0.000 A 
DOCKED: ATOM      4  C   UNL     1      26.245 -17.973  -0.336 -0.57 -0.00    +0.000 A 
DOCKED: ATOM      5  C   UNL     1      27.599 -17.769  -0.613 -0.31 -0.00    +0.000 A 
DOCKED: ATOM      6  C   UNL     1      27.983 -16.918  -1.650 -0.30 -0.00    +0.000 A 
DOCKED: ENDROOT
DOCKED: BRANCH   1   8
DOCKED: ATOM      7  O   UNL     1      27.214 -13.785  -3.429 -0.24 -0.00    +0.000 OA
DOCKED: ATOM      8  S   UNL     1      27.493 -15.225  -3.757 -0.45 -0.00    +0.000 S 
DOCKED: ATOM      9  O   UNL     1      26.708 -15.610  -4.978 -1.03 +0.00    +0.000 OA
DOCKED: BRANCH   8  10
DOCKED: ATOM     10  N   UNL     1      29.188 -15.413  -4.083 -0.20 -0.00    +0.000 N 
DOCKED: ATOM     11  H   UNL     1      29.822 -14.878  -3.554 +0.00 -0.00    +0.000 HD
DOCKED: BRANCH  10  12
DOCKED: ATOM     12  C   UNL     1      29.720 -16.305  -5.079 -0.27 -0.00    +0.000 A 
DOCKED: ATOM     13  C   UNL     1      29.949 -15.890  -6.406 -0.31 -0.00    +0.000 A 
DOCKED: ATOM     14  C   UNL     1      30.478 -16.782  -7.344 -0.21 -0.00    +0.000 A 
DOCKED: ATOM     15  C   UNL     1      30.778 -18.094  -6.973 -0.32 -0.00    +0.000 A 
DOCKED: ATOM     16  C   UNL     1      30.548 -18.518  -5.663 -0.32 -0.00    +0.000 A 
DOCKED: ATOM     17  C   UNL     1      30.020 -17.630  -4.721 -0.25 -0.00    +0.000 A 
DOCKED: ENDBRANCH  10  12
DOCKED: ENDBRANCH   8  10
DOCKED: ENDBRANCH   1   8
DOCKED: BRANCH   3  18
DOCKED: ATOM     18  C   UNL     1      23.830 -17.576  -0.763 -0.75 -0.00    +0.000 C 
DOCKED: ATOM     19  C   UNL     1      23.013 -18.306  -1.536 -0.62 -0.00    +0.000 C 
DOCKED: BRANCH  19  20
DOCKED: ATOM     20  C   UNL     1      21.595 -18.562  -1.207 -0.62 -0.00    +0.000 C 
DOCKED: ATOM     21  N   UNL     1      20.841 -19.611  -1.827 -0.72 -0.00    +0.000 N 
DOCKED: ATOM     22  O   UNL     1      19.519 -19.737  -1.569 -2.11 -0.00    +0.000 OA
DOCKED: ATOM     23  O   UNL     1      21.043 -17.843  -0.331 -1.88 +0.00    +0.000 OA
DOCKED: ATOM     24  H   UNL     1      21.285 -20.239  -2.440 -0.54 -0.00    +0.000 HD
DOCKED: ENDBRANCH  19  20
DOCKED: ENDBRANCH   3  18
DOCKED: TORSDOF 5
DOCKED: TER
DOCKED: ENDMDL
________________________________________________________________________________


	BEGINNING GENETIC ALGORITHM DOCKING 28 of 100
Run: 28 Seed: 1876290594 1417843652 [ Run 28 of 100 GA/GALS ]
Beginning LAMARCKIAN GENETIC ALGORITHM (LGA), with a maximum of 2500000 energy evaluations.

Final-Value: -15.409


	FINAL GENETIC ALGORITHM DOCKED STATE
	_______________________________________________


Detailed state:  trans 25.020 -14.881 -0.859 quatxyzw 0.515699 -0.829868 0.178687 0.115950 center 0.230 -0.012 -0.200 ntor 5 83.6230 -9.4617 -67.0204 -101.1932 154.4519
State:	 25.020 -14.881  -0.859   0.519 -0.836  0.180 166.683     83.62   -9.46  -67.02 -101.19  154.45

DOCKED: MODEL       28
DOCKED: USER    Run = 28
DOCKED: USER    DPF = ligand_dock.biased.dpf
DOCKED: USER  
DOCKED: USER    Estimated Free Energy of Binding    =  -13.02 kcal/mol  [=(1)+(2)+(3)-(4)]
DOCKED: USER    Estimated Inhibition Constant, Ki   =  286.88 pM (picomolar)  [Temperature = 298.15 K]
DOCKED: USER    
DOCKED: USER    (1) Final Intermolecular Energy     =  -14.51 kcal/mol
DOCKED: USER        vdW + Hbond + desolv Energy     =  -14.51 kcal/mol
DOCKED: USER        Electrostatic Energy            =   +0.00 kcal/mol
DOCKED: USER    (2) Final Total Internal Energy     =   -0.90 kcal/mol
DOCKED: USER    (3) Torsional Free Energy           =   +1.49 kcal/mol
DOCKED: USER    (4) Unbound System's Energy  [=(2)] =   -0.90 kcal/mol
DOCKED: USER    
DOCKED: USER    
DOCKED: USER    NEWDPF move ligand.pdbqt
DOCKED: USER    NEWDPF about 0.230000 -0.012000 -0.200000
DOCKED: USER    NEWDPF tran0 25.020433 -14.880937 -0.859037
DOCKED: USER    NEWDPF quaternion0 0.515699 -0.829868 0.178687 0.115950
DOCKED: USER    NEWDPF axisangle0 0.519201 -0.835503 0.179900 166.683141
DOCKED: USER    NEWDPF quat0 0.519201 -0.835503 0.179900 166.683141
DOCKED: USER    NEWDPF dihe0 83.62 -9.46 -67.02 -101.19 154.45 
DOCKED: USER  keepresnum = 1 
DOCKED: USER  
DOCKED: REMARK  Name = 
DOCKED: REMARK  5 active torsions:
DOCKED: REMARK  status: ('A' for Active; 'I' for Inactive)
DOCKED: REMARK    1  A    between atoms: S_2  and  N_3
DOCKED: REMARK    2  A    between atoms: S_2  and  C_10
DOCKED: REMARK    3  A    between atoms: N_3  and  C_4
DOCKED: REMARK    4  A    between atoms: C_12  and  C_13
DOCKED: REMARK    5  A    between atoms: C_14  and  C_15
DOCKED: REMARK                            x       y       z     vdW  Elec       q    Type
DOCKED: REMARK                         _______ _______ _______ _____ _____    ______ ____
DOCKED: USER                              x       y       z     vdW  Elec       q    Type
DOCKED: USER                           _______ _______ _______ _____ _____    ______ ____
DOCKED: ROOT
DOCKED: ATOM      1  C   UNL     1      27.017 -15.300  -0.087 -0.30 -0.00    +0.000 A 
DOCKED: ATOM      2  C   UNL     1      25.674 -15.619  -0.332 -0.06 -0.00    +0.000 A 
DOCKED: ATOM      3  C   UNL     1      25.338 -16.723  -1.145 -0.54 -0.00    +0.000 A 
DOCKED: ATOM      4  C   UNL     1      26.371 -17.484  -1.715 -0.23 -0.00    +0.000 A 
DOCKED: ATOM      5  C   UNL     1      27.709 -17.170  -1.462 -0.32 -0.00    +0.000 A 
DOCKED: ATOM      6  C   UNL     1      28.033 -16.084  -0.647 -0.29 -0.00    +0.000 A 
DOCKED: ENDROOT
DOCKED: BRANCH   1   8
DOCKED: ATOM      7  O   UNL     1      26.176 -13.214   1.388 -0.41 -0.00    +0.000 OA
DOCKED: ATOM      8  S   UNL     1      27.423 -13.906   0.912 -0.36 -0.00    +0.000 S 
DOCKED: ATOM      9  O   UNL     1      28.234 -12.945   0.091 -0.12 -0.00    +0.000 OA
DOCKED: BRANCH   8  10
DOCKED: ATOM     10  N   UNL     1      28.353 -14.408   2.290 -0.28 -0.00    +0.000 N 
DOCKED: ATOM     11  H   UNL     1      28.887 -15.232   2.212 -1.83 -0.00    +0.000 HD
DOCKED: BRANCH  10  12
DOCKED: ATOM     12  C   UNL     1      28.390 -13.694   3.538 -0.34 -0.00    +0.000 A 
DOCKED: ATOM     13  C   UNL     1      28.049 -12.330   3.627 -0.26 -0.00    +0.000 A 
DOCKED: ATOM     14  C   UNL     1      28.087 -11.671   4.860 -0.33 +0.00    +0.000 A 
DOCKED: ATOM     15  C   UNL     1      28.468 -12.361   6.013 -0.37 -0.00    +0.000 A 
DOCKED: ATOM     16  C   UNL     1      28.815 -13.711   5.934 -0.38 -0.00    +0.000 A 
DOCKED: ATOM     17  C   UNL     1      28.779 -14.374   4.704 -0.45 -0.00    +0.000 A 
DOCKED: ENDBRANCH  10  12
DOCKED: ENDBRANCH   8  10
DOCKED: ENDBRANCH   1   8
DOCKED: BRANCH   3  18
DOCKED: ATOM     18  C   UNL     1      23.933 -17.088  -1.455 -0.65 -0.00    +0.000 C 
DOCKED: ATOM     19  C   UNL     1      23.198 -17.924  -0.707 -0.81 -0.00    +0.000 C 
DOCKED: BRANCH  19  20
DOCKED: ATOM     20  C   UNL     1      21.800 -18.282  -1.022 -0.76 -0.00    +0.000 C 
DOCKED: ATOM     21  N   UNL     1      21.446 -19.525  -1.642 -0.60 -0.00    +0.000 N 
DOCKED: ATOM     22  O   UNL     1      20.165 -19.760  -2.006 -2.35 -0.00    +0.000 OA
DOCKED: ATOM     23  O   UNL     1      20.888 -17.469  -0.712 -2.06 +0.00    +0.000 OA
DOCKED: ATOM     24  H   UNL     1      22.137 -20.208  -1.802 -0.45 -0.00    +0.000 HD
DOCKED: ENDBRANCH  19  20
DOCKED: ENDBRANCH   3  18
DOCKED: TORSDOF 5
DOCKED: TER
DOCKED: ENDMDL
________________________________________________________________________________


	BEGINNING GENETIC ALGORITHM DOCKING 29 of 100
Run: 29 Seed: 1346750391 848961087 [ Run 29 of 100 GA/GALS ]
Beginning LAMARCKIAN GENETIC ALGORITHM (LGA), with a maximum of 2500000 energy evaluations.

Final-Value: -14.467


	FINAL GENETIC ALGORITHM DOCKED STATE
	_______________________________________________


Detailed state:  trans 24.516 -16.874 -3.062 quatxyzw -0.423253 0.487019 -0.703297 0.298400 center 0.230 -0.012 -0.200 ntor 5 -172.1844 -77.4164 140.9322 -84.2310 108.3132
State:	 24.516 -16.874  -3.062  -0.443  0.510 -0.737 145.277   -172.18  -77.42  140.93  -84.23  108.31

DOCKED: MODEL       29
DOCKED: USER    Run = 29
DOCKED: USER    DPF = ligand_dock.biased.dpf
DOCKED: USER  
DOCKED: USER    Estimated Free Energy of Binding    =  -12.02 kcal/mol  [=(1)+(2)+(3)-(4)]
DOCKED: USER    Estimated Inhibition Constant, Ki   =    1.54 nM (nanomolar)  [Temperature = 298.15 K]
DOCKED: USER    
DOCKED: USER    (1) Final Intermolecular Energy     =  -13.51 kcal/mol
DOCKED: USER        vdW + Hbond + desolv Energy     =  -13.51 kcal/mol
DOCKED: USER        Electrostatic Energy            =   +0.00 kcal/mol
DOCKED: USER    (2) Final Total Internal Energy     =   -0.95 kcal/mol
DOCKED: USER    (3) Torsional Free Energy           =   +1.49 kcal/mol
DOCKED: USER    (4) Unbound System's Energy  [=(2)] =   -0.95 kcal/mol
DOCKED: USER    
DOCKED: USER    
DOCKED: USER    NEWDPF move ligand.pdbqt
DOCKED: USER    NEWDPF about 0.230000 -0.012000 -0.200000
DOCKED: USER    NEWDPF tran0 24.516101 -16.873637 -3.061931
DOCKED: USER    NEWDPF quaternion0 -0.423253 0.487019 -0.703297 0.298400
DOCKED: USER    NEWDPF axisangle0 -0.443456 0.510266 -0.736868 145.276955
DOCKED: USER    NEWDPF quat0 -0.443456 0.510266 -0.736868 145.276955
DOCKED: USER    NEWDPF dihe0 -172.18 -77.42 140.93 -84.23 108.31 
DOCKED: USER  keepresnum = 1 
DOCKED: USER  
DOCKED: REMARK  Name = 
DOCKED: REMARK  5 active torsions:
DOCKED: REMARK  status: ('A' for Active; 'I' for Inactive)
DOCKED: REMARK    1  A    between atoms: S_2  and  N_3
DOCKED: REMARK    2  A    between atoms: S_2  and  C_10
DOCKED: REMARK    3  A    between atoms: N_3  and  C_4
DOCKED: REMARK    4  A    between atoms: C_12  and  C_13
DOCKED: REMARK    5  A    between atoms: C_14  and  C_15
DOCKED: REMARK                            x       y       z     vdW  Elec       q    Type
DOCKED: REMARK                         _______ _______ _______ _____ _____    ______ ____
DOCKED: USER                              x       y       z     vdW  Elec       q    Type
DOCKED: USER                           _______ _______ _______ _____ _____    ______ ____
DOCKED: ROOT
DOCKED: ATOM      1  C   UNL     1      26.552 -16.258  -2.578 -0.36 -0.00    +0.000 A 
DOCKED: ATOM      2  C   UNL     1      25.187 -16.410  -2.297 -0.50 -0.00    +0.000 A 
DOCKED: ATOM      3  C   UNL     1      24.764 -17.216  -1.219 -0.61 -0.00    +0.000 A 
DOCKED: ATOM      4  C   UNL     1      25.733 -17.875  -0.445 -0.60 -0.00    +0.000 A 
DOCKED: ATOM      5  C   UNL     1      27.093 -17.715  -0.721 -0.44 -0.00    +0.000 A 
DOCKED: ATOM      6  C   UNL     1      27.504 -16.906  -1.782 -0.31 -0.00    +0.000 A 
DOCKED: ENDROOT
DOCKED: BRANCH   1   8
DOCKED: ATOM      7  O   UNL     1      26.255 -15.586  -5.165 -1.17 +0.00    +0.000 OA
DOCKED: ATOM      8  S   UNL     1      27.066 -15.266  -3.941 -0.54 -0.00    +0.000 S 
DOCKED: ATOM      9  O   UNL     1      28.514 -15.549  -4.224 -0.32 -0.00    +0.000 OA
DOCKED: BRANCH   8  10
DOCKED: ATOM     10  N   UNL     1      26.875 -13.582  -3.560 -0.25 -0.00    +0.000 N 
DOCKED: ATOM     11  H   UNL     1      27.157 -13.276  -2.668 -0.00 -0.00    +0.000 HD
DOCKED: BRANCH  10  12
DOCKED: ATOM     12  C   UNL     1      26.332 -12.609  -4.470 -0.29 -0.00    +0.000 A 
DOCKED: ATOM     13  C   UNL     1      27.145 -11.895  -5.372 -0.18 -0.00    +0.000 A 
DOCKED: ATOM     14  C   UNL     1      26.579 -10.965  -6.248 -0.18 -0.00    +0.000 A 
DOCKED: ATOM     15  C   UNL     1      25.202 -10.732  -6.232 -0.30 -0.00    +0.000 A 
DOCKED: ATOM     16  C   UNL     1      24.388 -11.429  -5.337 -0.24 -0.00    +0.000 A 
DOCKED: ATOM     17  C   UNL     1      24.949 -12.360  -4.459 -0.21 -0.00    +0.000 A 
DOCKED: ENDBRANCH  10  12
DOCKED: ENDBRANCH   8  10
DOCKED: ENDBRANCH   1   8
DOCKED: BRANCH   3  18
DOCKED: ATOM     18  C   UNL     1      23.331 -17.430  -0.895 -0.74 -0.00    +0.000 C 
DOCKED: ATOM     19  C   UNL     1      22.733 -18.630  -0.923 -0.83 -0.00    +0.000 C 
DOCKED: BRANCH  19  20
DOCKED: ATOM     20  C   UNL     1      21.306 -18.835  -0.598 -0.86 -0.00    +0.000 C 
DOCKED: ATOM     21  N   UNL     1      20.802 -20.085  -0.111 -0.69 -0.00    +0.000 N 
DOCKED: ATOM     22  O   UNL     1      19.472 -20.254   0.072 -1.14 -0.00    +0.000 OA
DOCKED: ATOM     23  O   UNL     1      20.514 -17.864  -0.734 -2.30 -0.00    +0.000 OA
DOCKED: ATOM     24  H   UNL     1      21.424 -20.820   0.091 -0.46 -0.00    +0.000 HD
DOCKED: ENDBRANCH  19  20
DOCKED: ENDBRANCH   3  18
DOCKED: TORSDOF 5
DOCKED: TER
DOCKED: ENDMDL
________________________________________________________________________________


	BEGINNING GENETIC ALGORITHM DOCKING 30 of 100
Run: 30 Seed: 2115126137 1208948135 [ Run 30 of 100 GA/GALS ]
Beginning LAMARCKIAN GENETIC ALGORITHM (LGA), with a maximum of 2500000 energy evaluations.

Final-Value: -15.302


	FINAL GENETIC ALGORITHM DOCKED STATE
	_______________________________________________


Detailed state:  trans 24.991 -14.770 -0.766 quatxyzw -0.535056 0.825778 -0.131106 -0.120900 center 0.230 -0.012 -0.200 ntor 5 84.4224 180.0000 -57.9594 -101.3575 147.8670
State:	 24.991 -14.770  -0.766  -0.539  0.832 -0.132 -166.112     84.42  180.00  -57.96 -101.36  147.87

DOCKED: MODEL       30
DOCKED: USER    Run = 30
DOCKED: USER    DPF = ligand_dock.biased.dpf
DOCKED: USER  
DOCKED: USER    Estimated Free Energy of Binding    =  -12.93 kcal/mol  [=(1)+(2)+(3)-(4)]
DOCKED: USER    Estimated Inhibition Constant, Ki   =  330.82 pM (picomolar)  [Temperature = 298.15 K]
DOCKED: USER    
DOCKED: USER    (1) Final Intermolecular Energy     =  -14.43 kcal/mol
DOCKED: USER        vdW + Hbond + desolv Energy     =  -14.43 kcal/mol
DOCKED: USER        Electrostatic Energy            =   +0.00 kcal/mol
DOCKED: USER    (2) Final Total Internal Energy     =   -0.88 kcal/mol
DOCKED: USER    (3) Torsional Free Energy           =   +1.49 kcal/mol
DOCKED: USER    (4) Unbound System's Energy  [=(2)] =   -0.88 kcal/mol
DOCKED: USER    
DOCKED: USER    
DOCKED: USER    NEWDPF move ligand.pdbqt
DOCKED: USER    NEWDPF about 0.230000 -0.012000 -0.200000
DOCKED: USER    NEWDPF tran0 24.991062 -14.769952 -0.765971
DOCKED: USER    NEWDPF quaternion0 -0.535056 0.825778 -0.131106 -0.120900
DOCKED: USER    NEWDPF axisangle0 -0.539010 0.831880 -0.132074 -166.111900
DOCKED: USER    NEWDPF quat0 -0.539010 0.831880 -0.132074 -166.111900
DOCKED: USER    NEWDPF dihe0 84.42 180.00 -57.96 -101.36 147.87 
DOCKED: USER  keepresnum = 1 
DOCKED: USER  
DOCKED: REMARK  Name = 
DOCKED: REMARK  5 active torsions:
DOCKED: REMARK  status: ('A' for Active; 'I' for Inactive)
DOCKED: REMARK    1  A    between atoms: S_2  and  N_3
DOCKED: REMARK    2  A    between atoms: S_2  and  C_10
DOCKED: REMARK    3  A    between atoms: N_3  and  C_4
DOCKED: REMARK    4  A    between atoms: C_12  and  C_13
DOCKED: REMARK    5  A    between atoms: C_14  and  C_15
DOCKED: REMARK                            x       y       z     vdW  Elec       q    Type
DOCKED: REMARK                         _______ _______ _______ _____ _____    ______ ____
DOCKED: USER                              x       y       z     vdW  Elec       q    Type
DOCKED: USER                           _______ _______ _______ _____ _____    ______ ____
DOCKED: ROOT
DOCKED: ATOM      1  C   UNL     1      27.040 -15.145  -0.119 -0.29 -0.00    +0.000 A 
DOCKED: ATOM      2  C   UNL     1      25.704 -15.512  -0.329 -0.07 -0.00    +0.000 A 
DOCKED: ATOM      3  C   UNL     1      25.381 -16.566  -1.210 -0.52 -0.00    +0.000 A 
DOCKED: ATOM      4  C   UNL     1      26.420 -17.227  -1.885 -0.24 -0.00    +0.000 A 
DOCKED: ATOM      5  C   UNL     1      27.752 -16.866  -1.668 -0.32 -0.00    +0.000 A 
DOCKED: ATOM      6  C   UNL     1      28.063 -15.831  -0.785 -0.26 -0.00    +0.000 A 
DOCKED: ENDROOT
DOCKED: BRANCH   1   8
DOCKED: ATOM      7  O   UNL     1      26.175 -13.122   1.427 -0.42 -0.00    +0.000 OA
DOCKED: ATOM      8  S   UNL     1      27.428 -13.813   0.967 -0.36 -0.00    +0.000 S 
DOCKED: ATOM      9  O   UNL     1      28.291 -12.827   0.232 -0.12 -0.00    +0.000 OA
DOCKED: BRANCH   8  10
DOCKED: ATOM     10  N   UNL     1      28.289 -14.405   2.354 -0.29 -0.00    +0.000 N 
DOCKED: ATOM     11  H   UNL     1      28.810 -15.235   2.256 -1.81 -0.00    +0.000 HD
DOCKED: BRANCH  10  12
DOCKED: ATOM     12  C   UNL     1      28.289 -13.755   3.638 -0.36 -0.00    +0.000 A 
DOCKED: ATOM     13  C   UNL     1      28.790 -14.386   4.793 -0.45 -0.00    +0.000 A 
DOCKED: ATOM     14  C   UNL     1      28.782 -13.719   6.022 -0.36 -0.00    +0.000 A 
DOCKED: ATOM     15  C   UNL     1      28.272 -12.422   6.114 -0.38 +0.00    +0.000 A 
DOCKED: ATOM     16  C   UNL     1      27.766 -11.791   4.976 -0.34 +0.00    +0.000 A 
DOCKED: ATOM     17  C   UNL     1      27.772 -12.453   3.746 -0.30 -0.00    +0.000 A 
DOCKED: ENDBRANCH  10  12
DOCKED: ENDBRANCH   8  10
DOCKED: ENDBRANCH   1   8
DOCKED: BRANCH   3  18
DOCKED: ATOM     18  C   UNL     1      23.981 -16.977  -1.486 -0.61 -0.00    +0.000 C 
DOCKED: ATOM     19  C   UNL     1      23.266 -17.771  -0.676 -0.79 -0.00    +0.000 C 
DOCKED: BRANCH  19  20
DOCKED: ATOM     20  C   UNL     1      21.872 -18.175  -0.956 -0.76 -0.00    +0.000 C 
DOCKED: ATOM     21  N   UNL     1      21.537 -19.471  -1.467 -0.68 -0.00    +0.000 N 
DOCKED: ATOM     22  O   UNL     1      20.259 -19.755  -1.807 -2.36 -0.00    +0.000 OA
DOCKED: ATOM     23  O   UNL     1      20.948 -17.352  -0.712 -1.95 +0.00    +0.000 OA
DOCKED: ATOM     24  H   UNL     1      22.237 -20.154  -1.571 -0.39 -0.00    +0.000 HD
DOCKED: ENDBRANCH  19  20
DOCKED: ENDBRANCH   3  18
DOCKED: TORSDOF 5
DOCKED: TER
DOCKED: ENDMDL
________________________________________________________________________________


	BEGINNING GENETIC ALGORITHM DOCKING 31 of 100
Run: 31 Seed: 1890075578 132750655 [ Run 31 of 100 GA/GALS ]
Beginning LAMARCKIAN GENETIC ALGORITHM (LGA), with a maximum of 2500000 energy evaluations.

Final-Value: -14.738


	FINAL GENETIC ALGORITHM DOCKED STATE
	_______________________________________________


Detailed state:  trans 24.583 -16.895 -3.259 quatxyzw -0.393218 0.478444 -0.742266 0.255956 center 0.230 -0.012 -0.200 ntor 5 156.1529 92.8641 174.4236 168.7632 -133.1990
State:	 24.583 -16.895  -3.259  -0.407  0.495 -0.768 150.340    156.15   92.86  174.42  168.76 -133.20

DOCKED: MODEL       31
DOCKED: USER    Run = 31
DOCKED: USER    DPF = ligand_dock.biased.dpf
DOCKED: USER  
DOCKED: USER    Estimated Free Energy of Binding    =  -12.28 kcal/mol  [=(1)+(2)+(3)-(4)]
DOCKED: USER    Estimated Inhibition Constant, Ki   =  998.35 pM (picomolar)  [Temperature = 298.15 K]
DOCKED: USER    
DOCKED: USER    (1) Final Intermolecular Energy     =  -13.77 kcal/mol
DOCKED: USER        vdW + Hbond + desolv Energy     =  -13.77 kcal/mol
DOCKED: USER        Electrostatic Energy            =   +0.00 kcal/mol
DOCKED: USER    (2) Final Total Internal Energy     =   -0.97 kcal/mol
DOCKED: USER    (3) Torsional Free Energy           =   +1.49 kcal/mol
DOCKED: USER    (4) Unbound System's Energy  [=(2)] =   -0.97 kcal/mol
DOCKED: USER    
DOCKED: USER    
DOCKED: USER    NEWDPF move ligand.pdbqt
DOCKED: USER    NEWDPF about 0.230000 -0.012000 -0.200000
DOCKED: USER    NEWDPF tran0 24.583487 -16.895080 -3.259378
DOCKED: USER    NEWDPF quaternion0 -0.393218 0.478444 -0.742266 0.255956
DOCKED: USER    NEWDPF axisangle0 -0.406768 0.494931 -0.767844 150.339566
DOCKED: USER    NEWDPF quat0 -0.406768 0.494931 -0.767844 150.339566
DOCKED: USER    NEWDPF dihe0 156.15 92.86 174.42 168.76 -133.20 
DOCKED: USER  keepresnum = 1 
DOCKED: USER  
DOCKED: REMARK  Name = 
DOCKED: REMARK  5 active torsions:
DOCKED: REMARK  status: ('A' for Active; 'I' for Inactive)
DOCKED: REMARK    1  A    between atoms: S_2  and  N_3
DOCKED: REMARK    2  A    between atoms: S_2  and  C_10
DOCKED: REMARK    3  A    between atoms: N_3  and  C_4
DOCKED: REMARK    4  A    between atoms: C_12  and  C_13
DOCKED: REMARK    5  A    between atoms: C_14  and  C_15
DOCKED: REMARK                            x       y       z     vdW  Elec       q    Type
DOCKED: REMARK                         _______ _______ _______ _____ _____    ______ ____
DOCKED: USER                              x       y       z     vdW  Elec       q    Type
DOCKED: USER                           _______ _______ _______ _____ _____    ______ ____
DOCKED: ROOT
DOCKED: ATOM      1  C   UNL     1      26.512 -16.140  -2.576 -0.38 -0.00    +0.000 A 
DOCKED: ATOM      2  C   UNL     1      25.136 -16.369  -2.442 -0.48 -0.00    +0.000 A 
DOCKED: ATOM      3  C   UNL     1      24.643 -17.169  -1.390 -0.60 -0.00    +0.000 A 
DOCKED: ATOM      4  C   UNL     1      25.556 -17.744  -0.490 -0.60 -0.00    +0.000 A 
DOCKED: ATOM      5  C   UNL     1      26.927 -17.506  -0.620 -0.48 -0.00    +0.000 A 
DOCKED: ATOM      6  C   UNL     1      27.405 -16.704  -1.657 -0.35 -0.00    +0.000 A 
DOCKED: ENDROOT
DOCKED: BRANCH   1   8
DOCKED: ATOM      7  O   UNL     1      26.790 -13.706  -3.687 -0.30 -0.00    +0.000 OA
DOCKED: ATOM      8  S   UNL     1      27.116 -15.156  -3.908 -0.53 -0.00    +0.000 S 
DOCKED: ATOM      9  O   UNL     1      26.465 -15.617  -5.181 -1.17 +0.00    +0.000 OA
DOCKED: BRANCH   8  10
DOCKED: ATOM     10  N   UNL     1      28.838 -15.334  -4.050 -0.22 -0.00    +0.000 N 
DOCKED: ATOM     11  H   UNL     1      29.397 -15.025  -3.301 +0.00 -0.00    +0.000 HD
DOCKED: BRANCH  10  12
DOCKED: ATOM     12  C   UNL     1      29.495 -15.904  -5.195 -0.28 -0.00    +0.000 A 
DOCKED: ATOM     13  C   UNL     1      29.738 -15.157  -6.365 -0.30 -0.00    +0.000 A 
DOCKED: ATOM     14  C   UNL     1      30.389 -15.743  -7.455 -0.23 -0.00    +0.000 A 
DOCKED: ATOM     15  C   UNL     1      30.799 -17.077  -7.394 -0.30 -0.00    +0.000 A 
DOCKED: ATOM     16  C   UNL     1      30.557 -17.828  -6.242 -0.32 -0.00    +0.000 A 
DOCKED: ATOM     17  C   UNL     1      29.906 -17.247  -5.150 -0.27 -0.00    +0.000 A 
DOCKED: ENDBRANCH  10  12
DOCKED: ENDBRANCH   8  10
DOCKED: ENDBRANCH   1   8
DOCKED: BRANCH   3  18
DOCKED: ATOM     18  C   UNL     1      23.198 -17.462  -1.218 -0.64 -0.00    +0.000 C 
DOCKED: ATOM     19  C   UNL     1      22.729 -18.578  -0.640 -0.83 -0.00    +0.000 C 
DOCKED: BRANCH  19  20
DOCKED: ATOM     20  C   UNL     1      21.289 -18.862  -0.471 -0.85 -0.00    +0.000 C 
DOCKED: ATOM     21  N   UNL     1      20.808 -20.114   0.035 -0.68 -0.00    +0.000 N 
DOCKED: ATOM     22  O   UNL     1      19.479 -20.364   0.071 -1.14 -0.00    +0.000 OA
DOCKED: ATOM     23  O   UNL     1      20.460 -17.959  -0.763 -2.25 -0.00    +0.000 OA
DOCKED: ATOM     24  H   UNL     1      21.445 -20.791   0.356 -0.58 -0.00    +0.000 HD
DOCKED: ENDBRANCH  19  20
DOCKED: ENDBRANCH   3  18
DOCKED: TORSDOF 5
DOCKED: TER
DOCKED: ENDMDL
________________________________________________________________________________


	BEGINNING GENETIC ALGORITHM DOCKING 32 of 100
Run: 32 Seed: 575959657 594498938 [ Run 32 of 100 GA/GALS ]
Beginning LAMARCKIAN GENETIC ALGORITHM (LGA), with a maximum of 2500000 energy evaluations.

Final-Value: -14.936


	FINAL GENETIC ALGORITHM DOCKED STATE
	_______________________________________________


Detailed state:  trans 24.092 -16.886 -2.959 quatxyzw 0.453521 -0.467288 0.701607 -0.289324 center 0.230 -0.012 -0.200 ntor 5 -157.5661 -73.3175 133.2352 152.9302 -152.4598
State:	 24.092 -16.886  -2.959   0.474 -0.488  0.733 -146.365   -157.57  -73.32  133.24  152.93 -152.46

DOCKED: MODEL       32
DOCKED: USER    Run = 32
DOCKED: USER    DPF = ligand_dock.biased.dpf
DOCKED: USER  
DOCKED: USER    Estimated Free Energy of Binding    =  -12.43 kcal/mol  [=(1)+(2)+(3)-(4)]
DOCKED: USER    Estimated Inhibition Constant, Ki   =  769.06 pM (picomolar)  [Temperature = 298.15 K]
DOCKED: USER    
DOCKED: USER    (1) Final Intermolecular Energy     =  -13.93 kcal/mol
DOCKED: USER        vdW + Hbond + desolv Energy     =  -13.93 kcal/mol
DOCKED: USER        Electrostatic Energy            =   +0.00 kcal/mol
DOCKED: USER    (2) Final Total Internal Energy     =   -1.01 kcal/mol
DOCKED: USER    (3) Torsional Free Energy           =   +1.49 kcal/mol
DOCKED: USER    (4) Unbound System's Energy  [=(2)] =   -1.01 kcal/mol
DOCKED: USER    
DOCKED: USER    
DOCKED: USER    NEWDPF move ligand.pdbqt
DOCKED: USER    NEWDPF about 0.230000 -0.012000 -0.200000
DOCKED: USER    NEWDPF tran0 24.091975 -16.885796 -2.958667
DOCKED: USER    NEWDPF quaternion0 0.453521 -0.467288 0.701607 -0.289324
DOCKED: USER    NEWDPF axisangle0 0.473784 -0.488167 0.732955 -146.365061
DOCKED: USER    NEWDPF quat0 0.473784 -0.488167 0.732955 -146.365061
DOCKED: USER    NEWDPF dihe0 -157.57 -73.32 133.24 152.93 -152.46 
DOCKED: USER  keepresnum = 1 
DOCKED: USER  
DOCKED: REMARK  Name = 
DOCKED: REMARK  5 active torsions:
DOCKED: REMARK  status: ('A' for Active; 'I' for Inactive)
DOCKED: REMARK    1  A    between atoms: S_2  and  N_3
DOCKED: REMARK    2  A    between atoms: S_2  and  C_10
DOCKED: REMARK    3  A    between atoms: N_3  and  C_4
DOCKED: REMARK    4  A    between atoms: C_12  and  C_13
DOCKED: REMARK    5  A    between atoms: C_14  and  C_15
DOCKED: REMARK                            x       y       z     vdW  Elec       q    Type
DOCKED: REMARK                         _______ _______ _______ _____ _____    ______ ____
DOCKED: USER                              x       y       z     vdW  Elec       q    Type
DOCKED: USER                           _______ _______ _______ _____ _____    ______ ____
DOCKED: ROOT
DOCKED: ATOM      1  C   UNL     1      26.109 -16.152  -2.571 -0.43 -0.00    +0.000 A 
DOCKED: ATOM      2  C   UNL     1      24.770 -16.383  -2.226 -0.43 -0.00    +0.000 A 
DOCKED: ATOM      3  C   UNL     1      24.445 -17.210  -1.130 -0.62 -0.00    +0.000 A 
DOCKED: ATOM      4  C   UNL     1      25.486 -17.811  -0.403 -0.61 -0.00    +0.000 A 
DOCKED: ATOM      5  C   UNL     1      26.820 -17.573  -0.742 -0.48 -0.00    +0.000 A 
DOCKED: ATOM      6  C   UNL     1      27.133 -16.743  -1.820 -0.36 -0.00    +0.000 A 
DOCKED: ENDROOT
DOCKED: BRANCH   1   8
DOCKED: ATOM      7  O   UNL     1      25.811 -13.803  -3.845 -0.50 -0.00    +0.000 OA
DOCKED: ATOM      8  S   UNL     1      26.500 -15.134  -3.955 -0.63 -0.00    +0.000 S 
DOCKED: ATOM      9  O   UNL     1      26.038 -15.825  -5.206 -1.12 +0.00    +0.000 OA
DOCKED: BRANCH   8  10
DOCKED: ATOM     10  N   UNL     1      28.215 -14.878  -4.043 -0.24 -0.00    +0.000 N 
DOCKED: ATOM     11  H   UNL     1      28.612 -14.202  -3.448 +0.01 -0.00    +0.000 HD
DOCKED: BRANCH  10  12
DOCKED: ATOM     12  C   UNL     1      29.090 -15.594  -4.933 -0.28 -0.00    +0.000 A 
DOCKED: ATOM     13  C   UNL     1      29.634 -16.849  -4.594 -0.25 -0.00    +0.000 A 
DOCKED: ATOM     14  C   UNL     1      30.472 -17.520  -5.490 -0.28 -0.00    +0.000 A 
DOCKED: ATOM     15  C   UNL     1      30.782 -16.948  -6.726 -0.29 -0.00    +0.000 A 
DOCKED: ATOM     16  C   UNL     1      30.254 -15.701  -7.068 -0.27 -0.00    +0.000 A 
DOCKED: ATOM     17  C   UNL     1      29.415 -15.026  -6.177 -0.31 -0.00    +0.000 A 
DOCKED: ENDBRANCH  10  12
DOCKED: ENDBRANCH   8  10
DOCKED: ENDBRANCH   1   8
DOCKED: BRANCH   3  18
DOCKED: ATOM     18  C   UNL     1      23.044 -17.506  -0.739 -0.77 -0.00    +0.000 C 
DOCKED: ATOM     19  C   UNL     1      22.470 -18.710  -0.881 -0.83 -0.00    +0.000 C 
DOCKED: BRANCH  19  20
DOCKED: ATOM     20  C   UNL     1      21.075 -18.997  -0.487 -0.87 -0.00    +0.000 C 
DOCKED: ATOM     21  N   UNL     1      20.695 -20.220   0.155 -0.65 -0.00    +0.000 N 
DOCKED: ATOM     22  O   UNL     1      19.390 -20.480   0.399 -0.95 -0.00    +0.000 OA
DOCKED: ATOM     23  O   UNL     1      20.197 -18.120  -0.708 -2.13 -0.00    +0.000 OA
DOCKED: ATOM     24  H   UNL     1      21.384 -20.871   0.419 -0.62 -0.00    +0.000 HD
DOCKED: ENDBRANCH  19  20
DOCKED: ENDBRANCH   3  18
DOCKED: TORSDOF 5
DOCKED: TER
DOCKED: ENDMDL
________________________________________________________________________________


	BEGINNING GENETIC ALGORITHM DOCKING 33 of 100
Run: 33 Seed: 479234738 1262238422 [ Run 33 of 100 GA/GALS ]
Beginning LAMARCKIAN GENETIC ALGORITHM (LGA), with a maximum of 2500000 energy evaluations.

Final-Value: -15.319


	FINAL GENETIC ALGORITHM DOCKED STATE
	_______________________________________________


Detailed state:  trans 24.127 -17.505 -2.836 quatxyzw 0.533310 -0.380675 0.728021 -0.201625 center 0.230 -0.012 -0.200 ntor 5 -47.6474 118.4140 18.7192 154.7861 -154.1961
State:	 24.127 -17.505  -2.836   0.544 -0.389  0.743 -156.736    -47.65  118.41   18.72  154.79 -154.20

DOCKED: MODEL       33
DOCKED: USER    Run = 33
DOCKED: USER    DPF = ligand_dock.biased.dpf
DOCKED: USER  
DOCKED: USER    Estimated Free Energy of Binding    =  -12.78 kcal/mol  [=(1)+(2)+(3)-(4)]
DOCKED: USER    Estimated Inhibition Constant, Ki   =  430.57 pM (picomolar)  [Temperature = 298.15 K]
DOCKED: USER    
DOCKED: USER    (1) Final Intermolecular Energy     =  -14.27 kcal/mol
DOCKED: USER        vdW + Hbond + desolv Energy     =  -14.27 kcal/mol
DOCKED: USER        Electrostatic Energy            =   +0.00 kcal/mol
DOCKED: USER    (2) Final Total Internal Energy     =   -1.05 kcal/mol
DOCKED: USER    (3) Torsional Free Energy           =   +1.49 kcal/mol
DOCKED: USER    (4) Unbound System's Energy  [=(2)] =   -1.05 kcal/mol
DOCKED: USER    
DOCKED: USER    
DOCKED: USER    NEWDPF move ligand.pdbqt
DOCKED: USER    NEWDPF about 0.230000 -0.012000 -0.200000
DOCKED: USER    NEWDPF tran0 24.127311 -17.504967 -2.836399
DOCKED: USER    NEWDPF quaternion0 0.533310 -0.380675 0.728021 -0.201625
DOCKED: USER    NEWDPF axisangle0 0.544492 -0.388657 0.743286 -156.736004
DOCKED: USER    NEWDPF quat0 0.544492 -0.388657 0.743286 -156.736004
DOCKED: USER    NEWDPF dihe0 -47.65 118.41 18.72 154.79 -154.20 
DOCKED: USER  keepresnum = 1 
DOCKED: USER  
DOCKED: REMARK  Name = 
DOCKED: REMARK  5 active torsions:
DOCKED: REMARK  status: ('A' for Active; 'I' for Inactive)
DOCKED: REMARK    1  A    between atoms: S_2  and  N_3
DOCKED: REMARK    2  A    between atoms: S_2  and  C_10
DOCKED: REMARK    3  A    between atoms: N_3  and  C_4
DOCKED: REMARK    4  A    between atoms: C_12  and  C_13
DOCKED: REMARK    5  A    between atoms: C_14  and  C_15
DOCKED: REMARK                            x       y       z     vdW  Elec       q    Type
DOCKED: REMARK                         _______ _______ _______ _____ _____    ______ ____
DOCKED: USER                              x       y       z     vdW  Elec       q    Type
DOCKED: USER                           _______ _______ _______ _____ _____    ______ ____
DOCKED: ROOT
DOCKED: ATOM      1  C   UNL     1      25.864 -16.212  -2.576 -0.46 -0.00    +0.000 A 
DOCKED: ATOM      2  C   UNL     1      24.669 -16.808  -2.151 -0.42 -0.00    +0.000 A 
DOCKED: ATOM      3  C   UNL     1      24.655 -17.662  -1.028 -0.65 -0.00    +0.000 A 
DOCKED: ATOM      4  C   UNL     1      25.862 -17.917  -0.355 -0.59 -0.00    +0.000 A 
DOCKED: ATOM      5  C   UNL     1      27.050 -17.315  -0.775 -0.45 -0.00    +0.000 A 
DOCKED: ATOM      6  C   UNL     1      27.053 -16.461  -1.879 -0.36 -0.00    +0.000 A 
DOCKED: ENDROOT
DOCKED: BRANCH   1   8
DOCKED: ATOM      7  O   UNL     1      24.805 -14.110  -3.878 -1.03 -0.00    +0.000 OA
DOCKED: ATOM      8  S   UNL     1      25.871 -15.164  -3.993 -0.73 -0.00    +0.000 S 
DOCKED: ATOM      9  O   UNL     1      25.605 -16.001  -5.212 -1.06 +0.00    +0.000 OA
DOCKED: BRANCH   8  10
DOCKED: ATOM     10  N   UNL     1      27.417 -14.390  -4.157 -0.29 -0.00    +0.000 N 
DOCKED: ATOM     11  H   UNL     1      27.614 -13.623  -3.571 +0.00 -0.00    +0.000 HD
DOCKED: BRANCH  10  12
DOCKED: ATOM     12  C   UNL     1      28.426 -14.801  -5.096 -0.31 -0.00    +0.000 A 
DOCKED: ATOM     13  C   UNL     1      28.713 -14.054  -6.256 -0.30 -0.00    +0.000 A 
DOCKED: ATOM     14  C   UNL     1      29.708 -14.480  -7.141 -0.28 -0.00    +0.000 A 
DOCKED: ATOM     15  C   UNL     1      30.422 -15.652  -6.884 -0.28 -0.00    +0.000 A 
DOCKED: ATOM     16  C   UNL     1      30.140 -16.403  -5.741 -0.28 -0.00    +0.000 A 
DOCKED: ATOM     17  C   UNL     1      29.147 -15.982  -4.853 -0.29 -0.00    +0.000 A 
DOCKED: ENDBRANCH  10  12
DOCKED: ENDBRANCH   8  10
DOCKED: ENDBRANCH   1   8
DOCKED: BRANCH   3  18
DOCKED: ATOM     18  C   UNL     1      23.421 -18.337  -0.552 -0.81 -0.00    +0.000 C 
DOCKED: ATOM     19  C   UNL     1      22.209 -18.136  -1.089 -0.73 -0.00    +0.000 C 
DOCKED: BRANCH  19  20
DOCKED: ATOM     20  C   UNL     1      20.986 -18.813  -0.611 -0.85 -0.00    +0.000 C 
DOCKED: ATOM     21  N   UNL     1      21.012 -20.119  -0.022 -0.63 -0.00    +0.000 N 
DOCKED: ATOM     22  O   UNL     1      19.854 -20.739   0.303 -0.99 -0.00    +0.000 OA
DOCKED: ATOM     23  O   UNL     1      19.886 -18.204  -0.706 -1.89 -0.00    +0.000 OA
DOCKED: ATOM     24  H   UNL     1      21.873 -20.565   0.146 -0.58 -0.00    +0.000 HD
DOCKED: ENDBRANCH  19  20
DOCKED: ENDBRANCH   3  18
DOCKED: TORSDOF 5
DOCKED: TER
DOCKED: ENDMDL
________________________________________________________________________________


	BEGINNING GENETIC ALGORITHM DOCKING 34 of 100
Run: 34 Seed: 819561867 823413706 [ Run 34 of 100 GA/GALS ]
Beginning LAMARCKIAN GENETIC ALGORITHM (LGA), with a maximum of 2500000 energy evaluations.

Final-Value: -14.167


	FINAL GENETIC ALGORITHM DOCKED STATE
	_______________________________________________


Detailed state:  trans 25.146 -15.411 -1.681 quatxyzw 0.433953 -0.776545 0.455233 0.037753 center 0.230 -0.012 -0.200 ntor 5 77.2812 -116.7244 -97.7901 70.4302 -61.0224
State:	 25.146 -15.411  -1.681   0.434 -0.777  0.456 175.673     77.28 -116.72  -97.79   70.43  -61.02

DOCKED: MODEL       34
DOCKED: USER    Run = 34
DOCKED: USER    DPF = ligand_dock.biased.dpf
DOCKED: USER  
DOCKED: USER    Estimated Free Energy of Binding    =  -11.35 kcal/mol  [=(1)+(2)+(3)-(4)]
DOCKED: USER    Estimated Inhibition Constant, Ki   =    4.76 nM (nanomolar)  [Temperature = 298.15 K]
DOCKED: USER    
DOCKED: USER    (1) Final Intermolecular Energy     =  -12.85 kcal/mol
DOCKED: USER        vdW + Hbond + desolv Energy     =  -12.85 kcal/mol
DOCKED: USER        Electrostatic Energy            =   +0.00 kcal/mol
DOCKED: USER    (2) Final Total Internal Energy     =   -1.32 kcal/mol
DOCKED: USER    (3) Torsional Free Energy           =   +1.49 kcal/mol
DOCKED: USER    (4) Unbound System's Energy  [=(2)] =   -1.32 kcal/mol
DOCKED: USER    
DOCKED: USER    
DOCKED: USER    NEWDPF move ligand.pdbqt
DOCKED: USER    NEWDPF about 0.230000 -0.012000 -0.200000
DOCKED: USER    NEWDPF tran0 25.146304 -15.411184 -1.681048
DOCKED: USER    NEWDPF quaternion0 0.433953 -0.776545 0.455233 0.037753
DOCKED: USER    NEWDPF axisangle0 0.434263 -0.777099 0.455557 175.672769
DOCKED: USER    NEWDPF quat0 0.434263 -0.777099 0.455557 175.672769
DOCKED: USER    NEWDPF dihe0 77.28 -116.72 -97.79 70.43 -61.02 
DOCKED: USER  keepresnum = 1 
DOCKED: USER  
DOCKED: REMARK  Name = 
DOCKED: REMARK  5 active torsions:
DOCKED: REMARK  status: ('A' for Active; 'I' for Inactive)
DOCKED: REMARK    1  A    between atoms: S_2  and  N_3
DOCKED: REMARK    2  A    between atoms: S_2  and  C_10
DOCKED: REMARK    3  A    between atoms: N_3  and  C_4
DOCKED: REMARK    4  A    between atoms: C_12  and  C_13
DOCKED: REMARK    5  A    between atoms: C_14  and  C_15
DOCKED: REMARK                            x       y       z     vdW  Elec       q    Type
DOCKED: REMARK                         _______ _______ _______ _____ _____    ______ ____
DOCKED: USER                              x       y       z     vdW  Elec       q    Type
DOCKED: USER                           _______ _______ _______ _____ _____    ______ ____
DOCKED: ROOT
DOCKED: ATOM      1  C   UNL     1      26.874 -15.575  -0.359 -0.33 -0.00    +0.000 A 
DOCKED: ATOM      2  C   UNL     1      25.542 -15.824  -0.720 -0.37 -0.00    +0.000 A 
DOCKED: ATOM      3  C   UNL     1      25.092 -17.144  -0.928 -0.58 -0.00    +0.000 A 
DOCKED: ATOM      4  C   UNL     1      26.004 -18.202  -0.783 -0.51 -0.00    +0.000 A 
DOCKED: ATOM      5  C   UNL     1      27.328 -17.953  -0.414 -0.31 -0.00    +0.000 A 
DOCKED: ATOM      6  C   UNL     1      27.763 -16.645  -0.198 -0.31 -0.00    +0.000 A 
DOCKED: ENDROOT
DOCKED: BRANCH   1   8
DOCKED: ATOM      7  O   UNL     1      28.437 -13.851   0.988 -0.20 -0.00    +0.000 OA
DOCKED: ATOM      8  S   UNL     1      27.428 -13.919  -0.124 -0.30 -0.00    +0.000 S 
DOCKED: ATOM      9  O   UNL     1      26.248 -13.062   0.232 -0.35 -0.00    +0.000 OA
DOCKED: BRANCH   8  10
DOCKED: ATOM     10  N   UNL     1      28.153 -13.318  -1.583 -0.11 -0.00    +0.000 N 
DOCKED: ATOM     11  H   UNL     1      28.735 -12.526  -1.517 +0.00 -0.00    +0.000 HD
DOCKED: BRANCH  10  12
DOCKED: ATOM     12  C   UNL     1      27.955 -13.907  -2.880 -0.15 -0.00    +0.000 A 
DOCKED: ATOM     13  C   UNL     1      29.035 -14.248  -3.717 -0.12 -0.00    +0.000 A 
DOCKED: ATOM     14  C   UNL     1      28.804 -14.829  -4.968 -0.26 -0.00    +0.000 A 
DOCKED: ATOM     15  C   UNL     1      27.498 -15.069  -5.399 -0.37 -0.00    +0.000 A 
DOCKED: ATOM     16  C   UNL     1      26.419 -14.728  -4.581 -0.46 -0.00    +0.000 A 
DOCKED: ATOM     17  C   UNL     1      26.645 -14.148  -3.329 -0.32 -0.00    +0.000 A 
DOCKED: ENDBRANCH  10  12
DOCKED: ENDBRANCH   8  10
DOCKED: ENDBRANCH   1   8
DOCKED: BRANCH   3  18
DOCKED: ATOM     18  C   UNL     1      23.699 -17.459  -1.335 -0.70 -0.00    +0.000 C 
DOCKED: ATOM     19  C   UNL     1      22.870 -18.230  -0.616 -0.83 -0.00    +0.000 C 
DOCKED: BRANCH  19  20
DOCKED: ATOM     20  C   UNL     1      21.484 -18.537  -1.028 -0.79 -0.00    +0.000 C 
DOCKED: ATOM     21  N   UNL     1      21.143 -19.732  -1.743 -0.62 -0.00    +0.000 N 
DOCKED: ATOM     22  O   UNL     1      19.880 -19.917  -2.189 -2.24 -0.00    +0.000 OA
DOCKED: ATOM     23  O   UNL     1      20.571 -17.727  -0.715 -2.18 +0.00    +0.000 OA
DOCKED: ATOM     24  H   UNL     1      21.830 -20.417  -1.909 -0.44 -0.00    +0.000 HD
DOCKED: ENDBRANCH  19  20
DOCKED: ENDBRANCH   3  18
DOCKED: TORSDOF 5
DOCKED: TER
DOCKED: ENDMDL
________________________________________________________________________________


	BEGINNING GENETIC ALGORITHM DOCKING 35 of 100
Run: 35 Seed: 836106044 1019304270 [ Run 35 of 100 GA/GALS ]
Beginning LAMARCKIAN GENETIC ALGORITHM (LGA), with a maximum of 2500000 energy evaluations.

Final-Value: -15.218


	FINAL GENETIC ALGORITHM DOCKED STATE
	_______________________________________________


Detailed state:  trans 24.144 -17.566 -2.874 quatxyzw 0.540553 -0.403843 0.708443 -0.206934 center 0.230 -0.012 -0.200 ntor 5 -40.4061 -59.9926 16.6749 141.6001 -151.2891
State:	 24.144 -17.566  -2.874   0.553 -0.413  0.724 -156.114    -40.41  -59.99   16.67  141.60 -151.29

DOCKED: MODEL       35
DOCKED: USER    Run = 35
DOCKED: USER    DPF = ligand_dock.biased.dpf
DOCKED: USER  
DOCKED: USER    Estimated Free Energy of Binding    =  -12.65 kcal/mol  [=(1)+(2)+(3)-(4)]
DOCKED: USER    Estimated Inhibition Constant, Ki   =  530.25 pM (picomolar)  [Temperature = 298.15 K]
DOCKED: USER    
DOCKED: USER    (1) Final Intermolecular Energy     =  -14.15 kcal/mol
DOCKED: USER        vdW + Hbond + desolv Energy     =  -14.15 kcal/mol
DOCKED: USER        Electrostatic Energy            =   +0.00 kcal/mol
DOCKED: USER    (2) Final Total Internal Energy     =   -1.07 kcal/mol
DOCKED: USER    (3) Torsional Free Energy           =   +1.49 kcal/mol
DOCKED: USER    (4) Unbound System's Energy  [=(2)] =   -1.07 kcal/mol
DOCKED: USER    
DOCKED: USER    
DOCKED: USER    NEWDPF move ligand.pdbqt
DOCKED: USER    NEWDPF about 0.230000 -0.012000 -0.200000
DOCKED: USER    NEWDPF tran0 24.143595 -17.565540 -2.874402
DOCKED: USER    NEWDPF quaternion0 0.540553 -0.403843 0.708443 -0.206934
DOCKED: USER    NEWDPF axisangle0 0.552512 -0.412777 0.724117 -156.114483
DOCKED: USER    NEWDPF quat0 0.552512 -0.412777 0.724117 -156.114483
DOCKED: USER    NEWDPF dihe0 -40.41 -59.99 16.67 141.60 -151.29 
DOCKED: USER  keepresnum = 1 
DOCKED: USER  
DOCKED: REMARK  Name = 
DOCKED: REMARK  5 active torsions:
DOCKED: REMARK  status: ('A' for Active; 'I' for Inactive)
DOCKED: REMARK    1  A    between atoms: S_2  and  N_3
DOCKED: REMARK    2  A    between atoms: S_2  and  C_10
DOCKED: REMARK    3  A    between atoms: N_3  and  C_4
DOCKED: REMARK    4  A    between atoms: C_12  and  C_13
DOCKED: REMARK    5  A    between atoms: C_14  and  C_15
DOCKED: REMARK                            x       y       z     vdW  Elec       q    Type
DOCKED: REMARK                         _______ _______ _______ _____ _____    ______ ____
DOCKED: USER                              x       y       z     vdW  Elec       q    Type
DOCKED: USER                           _______ _______ _______ _____ _____    ______ ____
DOCKED: ROOT
DOCKED: ATOM      1  C   UNL     1      25.931 -16.346  -2.602 -0.44 -0.00    +0.000 A 
DOCKED: ATOM      2  C   UNL     1      24.727 -16.920  -2.172 -0.47 -0.00    +0.000 A 
DOCKED: ATOM      3  C   UNL     1      24.711 -17.824  -1.090 -0.65 -0.00    +0.000 A 
DOCKED: ATOM      4  C   UNL     1      25.925 -18.151  -0.462 -0.58 -0.00    +0.000 A 
DOCKED: ATOM      5  C   UNL     1      27.123 -17.571  -0.886 -0.42 -0.00    +0.000 A 
DOCKED: ATOM      6  C   UNL     1      27.128 -16.668  -1.950 -0.34 -0.00    +0.000 A 
DOCKED: ENDROOT
DOCKED: BRANCH   1   8
DOCKED: ATOM      7  O   UNL     1      24.965 -14.112  -3.747 -0.90 -0.00    +0.000 OA
DOCKED: ATOM      8  S   UNL     1      25.940 -15.234  -3.970 -0.73 -0.00    +0.000 S 
DOCKED: ATOM      9  O   UNL     1      25.543 -15.990  -5.206 -1.06 -0.00    +0.000 OA
DOCKED: BRANCH   8  10
DOCKED: ATOM     10  N   UNL     1      27.528 -14.569  -4.190 -0.29 -0.00    +0.000 N 
DOCKED: ATOM     11  H   UNL     1      27.745 -13.728  -3.727 +0.00 -0.00    +0.000 HD
DOCKED: BRANCH  10  12
DOCKED: ATOM     12  C   UNL     1      28.546 -15.172  -5.008 -0.32 -0.00    +0.000 A 
DOCKED: ATOM     13  C   UNL     1      29.213 -16.351  -4.620 -0.26 -0.00    +0.000 A 
DOCKED: ATOM     14  C   UNL     1      30.189 -16.915  -5.447 -0.28 -0.00    +0.000 A 
DOCKED: ATOM     15  C   UNL     1      30.515 -16.309  -6.663 -0.29 -0.00    +0.000 A 
DOCKED: ATOM     16  C   UNL     1      29.865 -15.137  -7.053 -0.27 -0.00    +0.000 A 
DOCKED: ATOM     17  C   UNL     1      28.888 -14.570  -6.231 -0.33 -0.00    +0.000 A 
DOCKED: ENDBRANCH  10  12
DOCKED: ENDBRANCH   8  10
DOCKED: ENDBRANCH   1   8
DOCKED: BRANCH   3  18
DOCKED: ATOM     18  C   UNL     1      23.467 -18.478  -0.612 -0.82 -0.00    +0.000 C 
DOCKED: ATOM     19  C   UNL     1      22.245 -18.182  -1.079 -0.76 -0.00    +0.000 C 
DOCKED: BRANCH  19  20
DOCKED: ATOM     20  C   UNL     1      21.011 -18.839  -0.599 -0.85 -0.00    +0.000 C 
DOCKED: ATOM     21  N   UNL     1      21.021 -20.127   0.028 -0.62 -0.00    +0.000 N 
DOCKED: ATOM     22  O   UNL     1      19.855 -20.731   0.353 -0.97 -0.00    +0.000 OA
DOCKED: ATOM     23  O   UNL     1      19.916 -18.227  -0.729 -1.91 -0.00    +0.000 OA
DOCKED: ATOM     24  H   UNL     1      21.877 -20.572   0.222 -0.59 -0.00    +0.000 HD
DOCKED: ENDBRANCH  19  20
DOCKED: ENDBRANCH   3  18
DOCKED: TORSDOF 5
DOCKED: TER
DOCKED: ENDMDL
________________________________________________________________________________


	BEGINNING GENETIC ALGORITHM DOCKING 36 of 100
Run: 36 Seed: 1298042179 43686106 [ Run 36 of 100 GA/GALS ]
Beginning LAMARCKIAN GENETIC ALGORITHM (LGA), with a maximum of 2500000 energy evaluations.

Final-Value: -14.867


	FINAL GENETIC ALGORITHM DOCKED STATE
	_______________________________________________


Detailed state:  trans 24.102 -16.956 -2.948 quatxyzw 0.444060 -0.455959 0.714865 -0.289619 center 0.230 -0.012 -0.200 ntor 5 -158.5493 95.6970 132.2643 159.4550 -152.8334
State:	 24.102 -16.956  -2.948   0.464 -0.476  0.747 -146.330   -158.55   95.70  132.26  159.46 -152.83

DOCKED: MODEL       36
DOCKED: USER    Run = 36
DOCKED: USER    DPF = ligand_dock.biased.dpf
DOCKED: USER  
DOCKED: USER    Estimated Free Energy of Binding    =  -12.38 kcal/mol  [=(1)+(2)+(3)-(4)]
DOCKED: USER    Estimated Inhibition Constant, Ki   =  843.10 pM (picomolar)  [Temperature = 298.15 K]
DOCKED: USER    
DOCKED: USER    (1) Final Intermolecular Energy     =  -13.87 kcal/mol
DOCKED: USER        vdW + Hbond + desolv Energy     =  -13.87 kcal/mol
DOCKED: USER        Electrostatic Energy            =   +0.00 kcal/mol
DOCKED: USER    (2) Final Total Internal Energy     =   -1.00 kcal/mol
DOCKED: USER    (3) Torsional Free Energy           =   +1.49 kcal/mol
DOCKED: USER    (4) Unbound System's Energy  [=(2)] =   -1.00 kcal/mol
DOCKED: USER    
DOCKED: USER    
DOCKED: USER    NEWDPF move ligand.pdbqt
DOCKED: USER    NEWDPF about 0.230000 -0.012000 -0.200000
DOCKED: USER    NEWDPF tran0 24.101670 -16.956243 -2.947932
DOCKED: USER    NEWDPF quaternion0 0.444060 -0.455959 0.714865 -0.289619
DOCKED: USER    NEWDPF axisangle0 0.463944 -0.476376 0.746875 -146.329657
DOCKED: USER    NEWDPF quat0 0.463944 -0.476376 0.746875 -146.329657
DOCKED: USER    NEWDPF dihe0 -158.55 95.70 132.26 159.46 -152.83 
DOCKED: USER  keepresnum = 1 
DOCKED: USER  
DOCKED: REMARK  Name = 
DOCKED: REMARK  5 active torsions:
DOCKED: REMARK  status: ('A' for Active; 'I' for Inactive)
DOCKED: REMARK    1  A    between atoms: S_2  and  N_3
DOCKED: REMARK    2  A    between atoms: S_2  and  C_10
DOCKED: REMARK    3  A    between atoms: N_3  and  C_4
DOCKED: REMARK    4  A    between atoms: C_12  and  C_13
DOCKED: REMARK    5  A    between atoms: C_14  and  C_15
DOCKED: REMARK                            x       y       z     vdW  Elec       q    Type
DOCKED: REMARK                         _______ _______ _______ _____ _____    ______ ____
DOCKED: USER                              x       y       z     vdW  Elec       q    Type
DOCKED: USER                           _______ _______ _______ _____ _____    ______ ____
DOCKED: ROOT
DOCKED: ATOM      1  C   UNL     1      26.105 -16.192  -2.548 -0.43 -0.00    +0.000 A 
DOCKED: ATOM      2  C   UNL     1      24.762 -16.423  -2.220 -0.44 -0.00    +0.000 A 
DOCKED: ATOM      3  C   UNL     1      24.424 -17.215  -1.103 -0.62 -0.00    +0.000 A 
DOCKED: ATOM      4  C   UNL     1      25.456 -17.781  -0.337 -0.60 -0.00    +0.000 A 
DOCKED: ATOM      5  C   UNL     1      26.794 -17.543  -0.660 -0.49 -0.00    +0.000 A 
DOCKED: ATOM      6  C   UNL     1      27.120 -16.748  -1.759 -0.37 -0.00    +0.000 A 
DOCKED: ENDROOT
DOCKED: BRANCH   1   8
DOCKED: ATOM      7  O   UNL     1      25.804 -13.894  -3.912 -0.52 -0.00    +0.000 OA
DOCKED: ATOM      8  S   UNL     1      26.513 -15.218  -3.959 -0.64 -0.00    +0.000 S 
DOCKED: ATOM      9  O   UNL     1      26.088 -15.959  -5.195 -1.09 +0.00    +0.000 OA
DOCKED: BRANCH   8  10
DOCKED: ATOM     10  N   UNL     1      28.226 -14.940  -4.019 -0.24 -0.00    +0.000 N 
DOCKED: ATOM     11  H   UNL     1      28.615 -14.308  -3.372 +0.01 -0.00    +0.000 HD
DOCKED: BRANCH  10  12
DOCKED: ATOM     12  C   UNL     1      29.111 -15.578  -4.957 -0.28 -0.00    +0.000 A 
DOCKED: ATOM     13  C   UNL     1      29.298 -15.081  -6.262 -0.33 -0.00    +0.000 A 
DOCKED: ATOM     14  C   UNL     1      30.175 -15.722  -7.143 -0.23 -0.00    +0.000 A 
DOCKED: ATOM     15  C   UNL     1      30.869 -16.864  -6.736 -0.28 -0.00    +0.000 A 
DOCKED: ATOM     16  C   UNL     1      30.685 -17.368  -5.447 -0.26 -0.00    +0.000 A 
DOCKED: ATOM     17  C   UNL     1      29.810 -16.731  -4.563 -0.25 -0.00    +0.000 A 
DOCKED: ENDBRANCH  10  12
DOCKED: ENDBRANCH   8  10
DOCKED: ENDBRANCH   1   8
DOCKED: BRANCH   3  18
DOCKED: ATOM     18  C   UNL     1      23.018 -17.510  -0.728 -0.77 -0.00    +0.000 C 
DOCKED: ATOM     19  C   UNL     1      22.451 -18.719  -0.856 -0.83 -0.00    +0.000 C 
DOCKED: BRANCH  19  20
DOCKED: ATOM     20  C   UNL     1      21.052 -19.005  -0.479 -0.87 -0.00    +0.000 C 
DOCKED: ATOM     21  N   UNL     1      20.664 -20.227   0.161 -0.66 -0.00    +0.000 N 
DOCKED: ATOM     22  O   UNL     1      19.356 -20.486   0.390 -0.96 -0.00    +0.000 OA
DOCKED: ATOM     23  O   UNL     1      20.176 -18.128  -0.711 -2.11 -0.00    +0.000 OA
DOCKED: ATOM     24  H   UNL     1      21.350 -20.878   0.434 -0.60 -0.00    +0.000 HD
DOCKED: ENDBRANCH  19  20
DOCKED: ENDBRANCH   3  18
DOCKED: TORSDOF 5
DOCKED: TER
DOCKED: ENDMDL
________________________________________________________________________________


	BEGINNING GENETIC ALGORITHM DOCKING 37 of 100
Run: 37 Seed: 1880628553 755173970 [ Run 37 of 100 GA/GALS ]
Beginning LAMARCKIAN GENETIC ALGORITHM (LGA), with a maximum of 2500000 energy evaluations.

Final-Value: -14.935


	FINAL GENETIC ALGORITHM DOCKED STATE
	_______________________________________________


Detailed state:  trans 23.794 -17.055 -2.837 quatxyzw 0.504823 -0.417528 0.701980 -0.279373 center 0.230 -0.012 -0.200 ntor 5 -121.6529 127.7099 94.8261 179.2907 -171.5105
State:	 23.794 -17.055  -2.837   0.526 -0.435  0.731 -147.554   -121.65  127.71   94.83  179.29 -171.51

DOCKED: MODEL       37
DOCKED: USER    Run = 37
DOCKED: USER    DPF = ligand_dock.biased.dpf
DOCKED: USER  
DOCKED: USER    Estimated Free Energy of Binding    =  -12.47 kcal/mol  [=(1)+(2)+(3)-(4)]
DOCKED: USER    Estimated Inhibition Constant, Ki   =  720.10 pM (picomolar)  [Temperature = 298.15 K]
DOCKED: USER    
DOCKED: USER    (1) Final Intermolecular Energy     =  -13.96 kcal/mol
DOCKED: USER        vdW + Hbond + desolv Energy     =  -13.96 kcal/mol
DOCKED: USER        Electrostatic Energy            =   +0.00 kcal/mol
DOCKED: USER    (2) Final Total Internal Energy     =   -0.97 kcal/mol
DOCKED: USER    (3) Torsional Free Energy           =   +1.49 kcal/mol
DOCKED: USER    (4) Unbound System's Energy  [=(2)] =   -0.97 kcal/mol
DOCKED: USER    
DOCKED: USER    
DOCKED: USER    NEWDPF move ligand.pdbqt
DOCKED: USER    NEWDPF about 0.230000 -0.012000 -0.200000
DOCKED: USER    NEWDPF tran0 23.793984 -17.054841 -2.837322
DOCKED: USER    NEWDPF quaternion0 0.504823 -0.417528 0.701980 -0.279373
DOCKED: USER    NEWDPF axisangle0 0.525757 -0.434842 0.731090 -147.554420
DOCKED: USER    NEWDPF quat0 0.525757 -0.434842 0.731090 -147.554420
DOCKED: USER    NEWDPF dihe0 -121.65 127.71 94.83 179.29 -171.51 
DOCKED: USER  keepresnum = 1 
DOCKED: USER  
DOCKED: REMARK  Name = 
DOCKED: REMARK  5 active torsions:
DOCKED: REMARK  status: ('A' for Active; 'I' for Inactive)
DOCKED: REMARK    1  A    between atoms: S_2  and  N_3
DOCKED: REMARK    2  A    between atoms: S_2  and  C_10
DOCKED: REMARK    3  A    between atoms: N_3  and  C_4
DOCKED: REMARK    4  A    between atoms: C_12  and  C_13
DOCKED: REMARK    5  A    between atoms: C_14  and  C_15
DOCKED: REMARK                            x       y       z     vdW  Elec       q    Type
DOCKED: REMARK                         _______ _______ _______ _____ _____    ______ ____
DOCKED: USER                              x       y       z     vdW  Elec       q    Type
DOCKED: USER                           _______ _______ _______ _____ _____    ______ ____
DOCKED: ROOT
DOCKED: ATOM      1  C   UNL     1      25.747 -16.099  -2.657 -0.47 -0.00    +0.000 A 
DOCKED: ATOM      2  C   UNL     1      24.476 -16.457  -2.184 -0.21 -0.00    +0.000 A 
DOCKED: ATOM      3  C   UNL     1      24.342 -17.274  -1.041 -0.63 -0.00    +0.000 A 
DOCKED: ATOM      4  C   UNL     1      25.503 -17.734  -0.398 -0.60 -0.00    +0.000 A 
DOCKED: ATOM      5  C   UNL     1      26.768 -17.369  -0.865 -0.47 -0.00    +0.000 A 
DOCKED: ATOM      6  C   UNL     1      26.891 -16.551  -1.989 -0.36 -0.00    +0.000 A 
DOCKED: ENDROOT
DOCKED: BRANCH   1   8
DOCKED: ATOM      7  O   UNL     1      24.769 -14.109  -4.179 -1.10 -0.00    +0.000 OA
DOCKED: ATOM      8  S   UNL     1      25.900 -15.096  -4.098 -0.73 -0.00    +0.000 S 
DOCKED: ATOM      9  O   UNL     1      25.862 -15.984  -5.309 -1.12 +0.00    +0.000 OA
DOCKED: BRANCH   8  10
DOCKED: ATOM     10  N   UNL     1      27.405 -14.232  -4.068 -0.27 -0.00    +0.000 N 
DOCKED: ATOM     11  H   UNL     1      27.614 -13.696  -3.269 +0.00 -0.00    +0.000 HD
DOCKED: BRANCH  10  12
DOCKED: ATOM     12  C   UNL     1      28.365 -14.253  -5.139 -0.27 -0.00    +0.000 A 
DOCKED: ATOM     13  C   UNL     1      28.692 -13.094  -5.871 -0.19 -0.00    +0.000 A 
DOCKED: ATOM     14  C   UNL     1      29.638 -13.151  -6.899 -0.19 -0.00    +0.000 A 
DOCKED: ATOM     15  C   UNL     1      30.262 -14.360  -7.212 -0.23 -0.00    +0.000 A 
DOCKED: ATOM     16  C   UNL     1      29.940 -15.516  -6.499 -0.30 -0.00    +0.000 A 
DOCKED: ATOM     17  C   UNL     1      28.996 -15.464  -5.470 -0.32 -0.00    +0.000 A 
DOCKED: ENDBRANCH  10  12
DOCKED: ENDBRANCH   8  10
DOCKED: ENDBRANCH   1   8
DOCKED: BRANCH   3  18
DOCKED: ATOM     18  C   UNL     1      23.022 -17.701  -0.515 -0.78 -0.00    +0.000 C 
DOCKED: ATOM     19  C   UNL     1      22.238 -18.606  -1.118 -0.80 -0.00    +0.000 C 
DOCKED: BRANCH  19  20
DOCKED: ATOM     20  C   UNL     1      20.925 -19.028  -0.587 -0.88 -0.00    +0.000 C 
DOCKED: ATOM     21  N   UNL     1      20.733 -20.285   0.075 -0.63 -0.00    +0.000 N 
DOCKED: ATOM     22  O   UNL     1      19.491 -20.670   0.449 -0.94 -0.00    +0.000 OA
DOCKED: ATOM     23  O   UNL     1      19.949 -18.239  -0.703 -1.94 -0.00    +0.000 OA
DOCKED: ATOM     24  H   UNL     1      21.505 -20.867   0.257 -0.55 -0.00    +0.000 HD
DOCKED: ENDBRANCH  19  20
DOCKED: ENDBRANCH   3  18
DOCKED: TORSDOF 5
DOCKED: TER
DOCKED: ENDMDL
________________________________________________________________________________


	BEGINNING GENETIC ALGORITHM DOCKING 38 of 100
Run: 38 Seed: 878203245 1193979719 [ Run 38 of 100 GA/GALS ]
Beginning LAMARCKIAN GENETIC ALGORITHM (LGA), with a maximum of 2500000 energy evaluations.

Final-Value: -14.292


	FINAL GENETIC ALGORITHM DOCKED STATE
	_______________________________________________


Detailed state:  trans 25.247 -14.572 -0.283 quatxyzw 0.545803 -0.837913 -0.001325 0.000341 center 0.230 -0.012 -0.200 ntor 5 155.7226 9.4414 -136.9823 -88.6082 109.5834
State:	 25.247 -14.572  -0.283   0.546 -0.838 -0.001 179.961    155.72    9.44 -136.98  -88.61  109.58

DOCKED: MODEL       38
DOCKED: USER    Run = 38
DOCKED: USER    DPF = ligand_dock.biased.dpf
DOCKED: USER  
DOCKED: USER    Estimated Free Energy of Binding    =  -11.98 kcal/mol  [=(1)+(2)+(3)-(4)]
DOCKED: USER    Estimated Inhibition Constant, Ki   =    1.64 nM (nanomolar)  [Temperature = 298.15 K]
DOCKED: USER    
DOCKED: USER    (1) Final Intermolecular Energy     =  -13.48 kcal/mol
DOCKED: USER        vdW + Hbond + desolv Energy     =  -13.48 kcal/mol
DOCKED: USER        Electrostatic Energy            =   +0.00 kcal/mol
DOCKED: USER    (2) Final Total Internal Energy     =   -0.82 kcal/mol
DOCKED: USER    (3) Torsional Free Energy           =   +1.49 kcal/mol
DOCKED: USER    (4) Unbound System's Energy  [=(2)] =   -0.82 kcal/mol
DOCKED: USER    
DOCKED: USER    
DOCKED: USER    NEWDPF move ligand.pdbqt
DOCKED: USER    NEWDPF about 0.230000 -0.012000 -0.200000
DOCKED: USER    NEWDPF tran0 25.246975 -14.572329 -0.282866
DOCKED: USER    NEWDPF quaternion0 0.545803 -0.837913 -0.001325 0.000341
DOCKED: USER    NEWDPF axisangle0 0.545803 -0.837913 -0.001325 179.960891
DOCKED: USER    NEWDPF quat0 0.545803 -0.837913 -0.001325 179.960891
DOCKED: USER    NEWDPF dihe0 155.72 9.44 -136.98 -88.61 109.58 
DOCKED: USER  keepresnum = 1 
DOCKED: USER  
DOCKED: REMARK  Name = 
DOCKED: REMARK  5 active torsions:
DOCKED: REMARK  status: ('A' for Active; 'I' for Inactive)
DOCKED: REMARK    1  A    between atoms: S_2  and  N_3
DOCKED: REMARK    2  A    between atoms: S_2  and  C_10
DOCKED: REMARK    3  A    between atoms: N_3  and  C_4
DOCKED: REMARK    4  A    between atoms: C_12  and  C_13
DOCKED: REMARK    5  A    between atoms: C_14  and  C_15
DOCKED: REMARK                            x       y       z     vdW  Elec       q    Type
DOCKED: REMARK                         _______ _______ _______ _____ _____    ______ ____
DOCKED: USER                              x       y       z     vdW  Elec       q    Type
DOCKED: USER                           _______ _______ _______ _____ _____    ______ ____
DOCKED: ROOT
DOCKED: ATOM      1  C   UNL     1      27.390 -14.960  -0.410 -0.26 -0.00    +0.000 A 
DOCKED: ATOM      2  C   UNL     1      26.058 -15.335  -0.184 +0.00 -0.00    +0.000 A 
DOCKED: ATOM      3  C   UNL     1      25.443 -16.314  -0.993 -0.47 -0.00    +0.000 A 
DOCKED: ATOM      4  C   UNL     1      26.182 -16.892  -2.038 -0.38 -0.00    +0.000 A 
DOCKED: ATOM      5  C   UNL     1      27.512 -16.523  -2.256 -0.27 -0.00    +0.000 A 
DOCKED: ATOM      6  C   UNL     1      28.117 -15.564  -1.443 -0.22 -0.00    +0.000 A 
DOCKED: ENDROOT
DOCKED: BRANCH   1   8
DOCKED: ATOM      7  O   UNL     1      27.211 -12.553   0.776 -0.24 -0.00    +0.000 OA
DOCKED: ATOM      8  S   UNL     1      28.139 -13.722   0.595 -0.25 -0.00    +0.000 S 
DOCKED: ATOM      9  O   UNL     1      29.396 -13.250  -0.080 -0.07 -0.00    +0.000 OA
DOCKED: BRANCH   8  10
DOCKED: ATOM     10  N   UNL     1      28.537 -14.375   2.153 -0.25 -0.00    +0.000 N 
DOCKED: ATOM     11  H   UNL     1      28.885 -15.296   2.193 -1.80 -0.00    +0.000 HD
DOCKED: BRANCH  10  12
DOCKED: ATOM     12  C   UNL     1      28.389 -13.654   3.389 -0.32 -0.00    +0.000 A 
DOCKED: ATOM     13  C   UNL     1      27.949 -12.315   3.423 -0.26 -0.00    +0.000 A 
DOCKED: ATOM     14  C   UNL     1      27.807 -11.650   4.644 -0.32 +0.00    +0.000 A 
DOCKED: ATOM     15  C   UNL     1      28.107 -12.305   5.840 -0.39 +0.00    +0.000 A 
DOCKED: ATOM     16  C   UNL     1      28.551 -13.628   5.817 -0.39 -0.00    +0.000 A 
DOCKED: ATOM     17  C   UNL     1      28.694 -14.299   4.599 -0.46 -0.00    +0.000 A 
DOCKED: ENDBRANCH  10  12
DOCKED: ENDBRANCH   8  10
DOCKED: ENDBRANCH   1   8
DOCKED: BRANCH   3  18
DOCKED: ATOM     18  C   UNL     1      24.029 -16.728  -0.810 -0.57 -0.00    +0.000 C 
DOCKED: ATOM     19  C   UNL     1      23.527 -17.884  -1.268 -0.75 -0.00    +0.000 C 
DOCKED: BRANCH  19  20
DOCKED: ATOM     20  C   UNL     1      22.119 -18.291  -1.082 -0.77 -0.00    +0.000 C 
DOCKED: ATOM     21  N   UNL     1      21.572 -19.466  -1.693 -0.58 -0.00    +0.000 N 
DOCKED: ATOM     22  O   UNL     1      20.251 -19.737  -1.578 -2.28 -0.00    +0.000 OA
DOCKED: ATOM     23  O   UNL     1      21.385 -17.586  -0.338 -1.61 -0.00    +0.000 OA
DOCKED: ATOM     24  H   UNL     1      22.157 -20.076  -2.197 -0.56 -0.00    +0.000 HD
DOCKED: ENDBRANCH  19  20
DOCKED: ENDBRANCH   3  18
DOCKED: TORSDOF 5
DOCKED: TER
DOCKED: ENDMDL
________________________________________________________________________________


	BEGINNING GENETIC ALGORITHM DOCKING 39 of 100
Run: 39 Seed: 1526171405 305842341 [ Run 39 of 100 GA/GALS ]
Beginning LAMARCKIAN GENETIC ALGORITHM (LGA), with a maximum of 2500000 energy evaluations.

Final-Value: -13.904


	FINAL GENETIC ALGORITHM DOCKED STATE
	_______________________________________________


Detailed state:  trans 25.114 -15.343 -1.781 quatxyzw -0.415623 0.764837 -0.490856 0.036643 center 0.230 -0.012 -0.200 ntor 5 114.7913 80.2732 -144.2855 0.9977 -18.3562
State:	 25.114 -15.343  -1.781  -0.416  0.765 -0.491 175.800    114.79   80.27 -144.29    1.00  -18.36

DOCKED: MODEL       39
DOCKED: USER    Run = 39
DOCKED: USER    DPF = ligand_dock.biased.dpf
DOCKED: USER  
DOCKED: USER    Estimated Free Energy of Binding    =  -11.21 kcal/mol  [=(1)+(2)+(3)-(4)]
DOCKED: USER    Estimated Inhibition Constant, Ki   =    6.09 nM (nanomolar)  [Temperature = 298.15 K]
DOCKED: USER    
DOCKED: USER    (1) Final Intermolecular Energy     =  -12.70 kcal/mol
DOCKED: USER        vdW + Hbond + desolv Energy     =  -12.70 kcal/mol
DOCKED: USER        Electrostatic Energy            =   +0.00 kcal/mol
DOCKED: USER    (2) Final Total Internal Energy     =   -1.20 kcal/mol
DOCKED: USER    (3) Torsional Free Energy           =   +1.49 kcal/mol
DOCKED: USER    (4) Unbound System's Energy  [=(2)] =   -1.20 kcal/mol
DOCKED: USER    
DOCKED: USER    
DOCKED: USER    NEWDPF move ligand.pdbqt
DOCKED: USER    NEWDPF about 0.230000 -0.012000 -0.200000
DOCKED: USER    NEWDPF tran0 25.113609 -15.342913 -1.780699
DOCKED: USER    NEWDPF quaternion0 -0.415623 0.764837 -0.490856 0.036643
DOCKED: USER    NEWDPF axisangle0 -0.415902 0.765351 -0.491186 175.800034
DOCKED: USER    NEWDPF quat0 -0.415902 0.765351 -0.491186 175.800034
DOCKED: USER    NEWDPF dihe0 114.79 80.27 -144.29 1.00 -18.36 
DOCKED: USER  keepresnum = 1 
DOCKED: USER  
DOCKED: REMARK  Name = 
DOCKED: REMARK  5 active torsions:
DOCKED: REMARK  status: ('A' for Active; 'I' for Inactive)
DOCKED: REMARK    1  A    between atoms: S_2  and  N_3
DOCKED: REMARK    2  A    between atoms: S_2  and  C_10
DOCKED: REMARK    3  A    between atoms: N_3  and  C_4
DOCKED: REMARK    4  A    between atoms: C_12  and  C_13
DOCKED: REMARK    5  A    between atoms: C_14  and  C_15
DOCKED: REMARK                            x       y       z     vdW  Elec       q    Type
DOCKED: REMARK                         _______ _______ _______ _____ _____    ______ ____
DOCKED: USER                              x       y       z     vdW  Elec       q    Type
DOCKED: USER                           _______ _______ _______ _____ _____    ______ ____
DOCKED: ROOT
DOCKED: ATOM      1  C   UNL     1      26.912 -15.499  -0.557 -0.32 -0.00    +0.000 A 
DOCKED: ATOM      2  C   UNL     1      25.542 -15.666  -0.800 -0.36 -0.00    +0.000 A 
DOCKED: ATOM      3  C   UNL     1      24.968 -16.955  -0.804 -0.55 -0.00    +0.000 A 
DOCKED: ATOM      4  C   UNL     1      25.797 -18.067  -0.577 -0.59 -0.00    +0.000 A 
DOCKED: ATOM      5  C   UNL     1      27.160 -17.897  -0.326 -0.39 -0.00    +0.000 A 
DOCKED: ATOM      6  C   UNL     1      27.718 -16.618  -0.311 -0.34 -0.00    +0.000 A 
DOCKED: ENDROOT
DOCKED: BRANCH   1   8
DOCKED: ATOM      7  O   UNL     1      29.117 -13.961  -0.465 -0.10 -0.00    +0.000 OA
DOCKED: ATOM      8  S   UNL     1      27.620 -13.885  -0.576 -0.26 -0.00    +0.000 S 
DOCKED: ATOM      9  O   UNL     1      27.081 -13.109   0.592 -0.27 -0.00    +0.000 OA
DOCKED: BRANCH   8  10
DOCKED: ATOM     10  N   UNL     1      27.202 -13.066  -2.049 -0.17 -0.00    +0.000 N 
DOCKED: ATOM     11  H   UNL     1      26.811 -12.165  -1.982 -0.00 -0.00    +0.000 HD
DOCKED: BRANCH  10  12
DOCKED: ATOM     12  C   UNL     1      27.394 -13.625  -3.361 -0.20 -0.00    +0.000 A 
DOCKED: ATOM     13  C   UNL     1      26.644 -14.726  -3.819 -0.40 -0.00    +0.000 A 
DOCKED: ATOM     14  C   UNL     1      26.850 -15.234  -5.105 -0.44 -0.00    +0.000 A 
DOCKED: ATOM     15  C   UNL     1      27.808 -14.658  -5.943 -0.30 -0.00    +0.000 A 
DOCKED: ATOM     16  C   UNL     1      28.562 -13.572  -5.495 -0.21 -0.00    +0.000 A 
DOCKED: ATOM     17  C   UNL     1      28.358 -13.059  -4.211 -0.13 -0.00    +0.000 A 
DOCKED: ENDBRANCH  10  12
DOCKED: ENDBRANCH   8  10
DOCKED: ENDBRANCH   1   8
DOCKED: BRANCH   3  18
DOCKED: ATOM     18  C   UNL     1      23.528 -17.188  -1.081 -0.70 -0.00    +0.000 C 
DOCKED: ATOM     19  C   UNL     1      22.906 -18.354  -0.851 -0.83 -0.00    +0.000 C 
DOCKED: BRANCH  19  20
DOCKED: ATOM     20  C   UNL     1      21.472 -18.578  -1.128 -0.72 -0.00    +0.000 C 
DOCKED: ATOM     21  N   UNL     1      20.996 -19.736  -1.826 -0.68 -0.00    +0.000 N 
DOCKED: ATOM     22  O   UNL     1      19.687 -19.843  -2.147 -2.01 -0.00    +0.000 OA
DOCKED: ATOM     23  O   UNL     1      20.640 -17.727  -0.711 -2.25 +0.00    +0.000 OA
DOCKED: ATOM     24  H   UNL     1      21.624 -20.453  -2.072 -0.49 -0.00    +0.000 HD
DOCKED: ENDBRANCH  19  20
DOCKED: ENDBRANCH   3  18
DOCKED: TORSDOF 5
DOCKED: TER
DOCKED: ENDMDL
________________________________________________________________________________


	BEGINNING GENETIC ALGORITHM DOCKING 40 of 100
Run: 40 Seed: 2096016205 818640954 [ Run 40 of 100 GA/GALS ]
Beginning LAMARCKIAN GENETIC ALGORITHM (LGA), with a maximum of 2500000 energy evaluations.

Final-Value: -14.638


	FINAL GENETIC ALGORITHM DOCKED STATE
	_______________________________________________


Detailed state:  trans 24.604 -16.991 -3.403 quatxyzw -0.396260 0.504264 -0.730592 0.234375 center 0.230 -0.012 -0.200 ntor 5 131.8283 -83.6514 -157.7279 142.2192 -135.0589
State:	 24.604 -16.991  -3.403  -0.408  0.519 -0.752 152.890    131.83  -83.65 -157.73  142.22 -135.06

DOCKED: MODEL       40
DOCKED: USER    Run = 40
DOCKED: USER    DPF = ligand_dock.biased.dpf
DOCKED: USER  
DOCKED: USER    Estimated Free Energy of Binding    =  -12.12 kcal/mol  [=(1)+(2)+(3)-(4)]
DOCKED: USER    Estimated Inhibition Constant, Ki   =    1.31 nM (nanomolar)  [Temperature = 298.15 K]
DOCKED: USER    
DOCKED: USER    (1) Final Intermolecular Energy     =  -13.61 kcal/mol
DOCKED: USER        vdW + Hbond + desolv Energy     =  -13.61 kcal/mol
DOCKED: USER        Electrostatic Energy            =   +0.00 kcal/mol
DOCKED: USER    (2) Final Total Internal Energy     =   -1.03 kcal/mol
DOCKED: USER    (3) Torsional Free Energy           =   +1.49 kcal/mol
DOCKED: USER    (4) Unbound System's Energy  [=(2)] =   -1.03 kcal/mol
DOCKED: USER    
DOCKED: USER    
DOCKED: USER    NEWDPF move ligand.pdbqt
DOCKED: USER    NEWDPF about 0.230000 -0.012000 -0.200000
DOCKED: USER    NEWDPF tran0 24.603876 -16.991378 -3.403474
DOCKED: USER    NEWDPF quaternion0 -0.396260 0.504264 -0.730592 0.234375
DOCKED: USER    NEWDPF axisangle0 -0.407613 0.518712 -0.751525 152.890442
DOCKED: USER    NEWDPF quat0 -0.407613 0.518712 -0.751525 152.890442
DOCKED: USER    NEWDPF dihe0 131.83 -83.65 -157.73 142.22 -135.06 
DOCKED: USER  keepresnum = 1 
DOCKED: USER  
DOCKED: REMARK  Name = 
DOCKED: REMARK  5 active torsions:
DOCKED: REMARK  status: ('A' for Active; 'I' for Inactive)
DOCKED: REMARK    1  A    between atoms: S_2  and  N_3
DOCKED: REMARK    2  A    between atoms: S_2  and  C_10
DOCKED: REMARK    3  A    between atoms: N_3  and  C_4
DOCKED: REMARK    4  A    between atoms: C_12  and  C_13
DOCKED: REMARK    5  A    between atoms: C_14  and  C_15
DOCKED: REMARK                            x       y       z     vdW  Elec       q    Type
DOCKED: REMARK                         _______ _______ _______ _____ _____    ______ ____
DOCKED: USER                              x       y       z     vdW  Elec       q    Type
DOCKED: USER                           _______ _______ _______ _____ _____    ______ ____
DOCKED: ROOT
DOCKED: ATOM      1  C   UNL     1      26.512 -16.269  -2.632 -0.34 -0.00    +0.000 A 
DOCKED: ATOM      2  C   UNL     1      25.135 -16.518  -2.541 -0.46 -0.00    +0.000 A 
DOCKED: ATOM      3  C   UNL     1      24.629 -17.391  -1.556 -0.61 -0.00    +0.000 A 
DOCKED: ATOM      4  C   UNL     1      25.529 -18.019  -0.679 -0.60 -0.00    +0.000 A 
DOCKED: ATOM      5  C   UNL     1      26.900 -17.762  -0.765 -0.46 -0.00    +0.000 A 
DOCKED: ATOM      6  C   UNL     1      27.391 -16.887  -1.735 -0.33 -0.00    +0.000 A 
DOCKED: ENDROOT
DOCKED: BRANCH   1   8
DOCKED: ATOM      7  O   UNL     1      26.749 -13.768  -3.592 -0.31 -0.00    +0.000 OA
DOCKED: ATOM      8  S   UNL     1      27.133 -15.192  -3.881 -0.52 -0.00    +0.000 S 
DOCKED: ATOM      9  O   UNL     1      26.546 -15.599  -5.202 -1.17 +0.00    +0.000 OA
DOCKED: BRANCH   8  10
DOCKED: ATOM     10  N   UNL     1      28.863 -15.307  -3.963 -0.21 -0.00    +0.000 N 
DOCKED: ATOM     11  H   UNL     1      29.394 -14.696  -3.403 +0.01 -0.00    +0.000 HD
DOCKED: BRANCH  10  12
DOCKED: ATOM     12  C   UNL     1      29.567 -16.241  -4.801 -0.27 -0.00    +0.000 A 
DOCKED: ATOM     13  C   UNL     1      30.023 -17.483  -4.314 -0.23 -0.00    +0.000 A 
DOCKED: ATOM     14  C   UNL     1      30.695 -18.369  -5.160 -0.27 -0.00    +0.000 A 
DOCKED: ATOM     15  C   UNL     1      30.925 -18.029  -6.495 -0.29 -0.00    +0.000 A 
DOCKED: ATOM     16  C   UNL     1      30.484 -16.798  -6.985 -0.29 -0.00    +0.000 A 
DOCKED: ATOM     17  C   UNL     1      29.811 -15.908  -6.144 -0.31 -0.00    +0.000 A 
DOCKED: ENDBRANCH  10  12
DOCKED: ENDBRANCH   8  10
DOCKED: ENDBRANCH   1   8
DOCKED: BRANCH   3  18
DOCKED: ATOM     18  C   UNL     1      23.183 -17.707  -1.434 -0.61 -0.00    +0.000 C 
DOCKED: ATOM     19  C   UNL     1      22.679 -18.542  -0.514 -0.83 -0.00    +0.000 C 
DOCKED: BRANCH  19  20
DOCKED: ATOM     20  C   UNL     1      21.239 -18.851  -0.398 -0.83 -0.00    +0.000 C 
DOCKED: ATOM     21  N   UNL     1      20.761 -20.114   0.081 -0.68 -0.00    +0.000 N 
DOCKED: ATOM     22  O   UNL     1      19.435 -20.386   0.068 -1.13 -0.00    +0.000 OA
DOCKED: ATOM     23  O   UNL     1      20.407 -17.958  -0.711 -2.25 -0.00    +0.000 OA
DOCKED: ATOM     24  H   UNL     1      21.397 -20.785   0.419 -0.61 -0.00    +0.000 HD
DOCKED: ENDBRANCH  19  20
DOCKED: ENDBRANCH   3  18
DOCKED: TORSDOF 5
DOCKED: TER
DOCKED: ENDMDL
________________________________________________________________________________


	BEGINNING GENETIC ALGORITHM DOCKING 41 of 100
Run: 41 Seed: 345924098 511941677 [ Run 41 of 100 GA/GALS ]
Beginning LAMARCKIAN GENETIC ALGORITHM (LGA), with a maximum of 2500000 energy evaluations.

Final-Value: -14.841


	FINAL GENETIC ALGORITHM DOCKED STATE
	_______________________________________________


Detailed state:  trans 24.397 -16.771 -3.139 quatxyzw 0.421795 -0.480143 0.717862 -0.276092 center 0.230 -0.012 -0.200 ntor 5 176.1557 98.7106 155.0545 147.8600 -142.3708
State:	 24.397 -16.771  -3.139   0.439 -0.500  0.747 -147.946    176.16   98.71  155.05  147.86 -142.37

DOCKED: MODEL       41
DOCKED: USER    Run = 41
DOCKED: USER    DPF = ligand_dock.biased.dpf
DOCKED: USER  
DOCKED: USER    Estimated Free Energy of Binding    =  -12.33 kcal/mol  [=(1)+(2)+(3)-(4)]
DOCKED: USER    Estimated Inhibition Constant, Ki   =  914.05 pM (picomolar)  [Temperature = 298.15 K]
DOCKED: USER    
DOCKED: USER    (1) Final Intermolecular Energy     =  -13.82 kcal/mol
DOCKED: USER        vdW + Hbond + desolv Energy     =  -13.82 kcal/mol
DOCKED: USER        Electrostatic Energy            =   +0.00 kcal/mol
DOCKED: USER    (2) Final Total Internal Energy     =   -1.02 kcal/mol
DOCKED: USER    (3) Torsional Free Energy           =   +1.49 kcal/mol
DOCKED: USER    (4) Unbound System's Energy  [=(2)] =   -1.02 kcal/mol
DOCKED: USER    
DOCKED: USER    
DOCKED: USER    NEWDPF move ligand.pdbqt
DOCKED: USER    NEWDPF about 0.230000 -0.012000 -0.200000
DOCKED: USER    NEWDPF tran0 24.397257 -16.771369 -3.139167
DOCKED: USER    NEWDPF quaternion0 0.421795 -0.480143 0.717862 -0.276092
DOCKED: USER    NEWDPF axisangle0 0.438852 -0.499560 0.746893 -147.945842
DOCKED: USER    NEWDPF quat0 0.438852 -0.499560 0.746893 -147.945842
DOCKED: USER    NEWDPF dihe0 176.16 98.71 155.05 147.86 -142.37 
DOCKED: USER  keepresnum = 1 
DOCKED: USER  
DOCKED: REMARK  Name = 
DOCKED: REMARK  5 active torsions:
DOCKED: REMARK  status: ('A' for Active; 'I' for Inactive)
DOCKED: REMARK    1  A    between atoms: S_2  and  N_3
DOCKED: REMARK    2  A    between atoms: S_2  and  C_10
DOCKED: REMARK    3  A    between atoms: N_3  and  C_4
DOCKED: REMARK    4  A    between atoms: C_12  and  C_13
DOCKED: REMARK    5  A    between atoms: C_14  and  C_15
DOCKED: REMARK                            x       y       z     vdW  Elec       q    Type
DOCKED: REMARK                         _______ _______ _______ _____ _____    ______ ____
DOCKED: USER                              x       y       z     vdW  Elec       q    Type
DOCKED: USER                           _______ _______ _______ _____ _____    ______ ____
DOCKED: ROOT
DOCKED: ATOM      1  C   UNL     1      26.387 -16.063  -2.595 -0.40 -0.00    +0.000 A 
DOCKED: ATOM      2  C   UNL     1      25.022 -16.275  -2.356 -0.44 -0.00    +0.000 A 
DOCKED: ATOM      3  C   UNL     1      24.601 -17.093  -1.287 -0.60 -0.00    +0.000 A 
DOCKED: ATOM      4  C   UNL     1      25.573 -17.704  -0.478 -0.59 -0.00    +0.000 A 
DOCKED: ATOM      5  C   UNL     1      26.933 -17.485  -0.712 -0.48 -0.00    +0.000 A 
DOCKED: ATOM      6  C   UNL     1      27.341 -16.664  -1.764 -0.35 -0.00    +0.000 A 
DOCKED: ENDROOT
DOCKED: BRANCH   1   8
DOCKED: ATOM      7  O   UNL     1      26.420 -13.643  -3.767 -0.36 -0.00    +0.000 OA
DOCKED: ATOM      8  S   UNL     1      26.900 -15.056  -3.947 -0.56 -0.00    +0.000 S 
DOCKED: ATOM      9  O   UNL     1      26.315 -15.615  -5.213 -1.20 +0.00    +0.000 OA
DOCKED: BRANCH   8  10
DOCKED: ATOM     10  N   UNL     1      28.632 -15.054  -4.069 -0.22 -0.00    +0.000 N 
DOCKED: ATOM     11  H   UNL     1      29.134 -14.416  -3.511 +0.01 -0.00    +0.000 HD
DOCKED: BRANCH  10  12
DOCKED: ATOM     12  C   UNL     1      29.378 -15.928  -4.934 -0.27 -0.00    +0.000 A 
DOCKED: ATOM     13  C   UNL     1      29.645 -15.598  -6.278 -0.33 -0.00    +0.000 A 
DOCKED: ATOM     14  C   UNL     1      30.382 -16.468  -7.086 -0.28 -0.00    +0.000 A 
DOCKED: ATOM     15  C   UNL     1      30.855 -17.676  -6.568 -0.30 -0.00    +0.000 A 
DOCKED: ATOM     16  C   UNL     1      30.590 -18.017  -5.240 -0.28 -0.00    +0.000 A 
DOCKED: ATOM     17  C   UNL     1      29.854 -17.150  -4.428 -0.23 -0.00    +0.000 A 
DOCKED: ENDBRANCH  10  12
DOCKED: ENDBRANCH   8  10
DOCKED: ENDBRANCH   1   8
DOCKED: BRANCH   3  18
DOCKED: ATOM     18  C   UNL     1      23.169 -17.369  -1.008 -0.71 -0.00    +0.000 C 
DOCKED: ATOM     19  C   UNL     1      22.679 -18.596  -0.778 -0.83 -0.00    +0.000 C 
DOCKED: BRANCH  19  20
DOCKED: ATOM     20  C   UNL     1      21.252 -18.862  -0.498 -0.85 -0.00    +0.000 C 
DOCKED: ATOM     21  N   UNL     1      20.794 -20.113   0.028 -0.68 -0.00    +0.000 N 
DOCKED: ATOM     22  O   UNL     1      19.468 -20.345   0.167 -1.08 -0.00    +0.000 OA
DOCKED: ATOM     23  O   UNL     1      20.417 -17.942  -0.712 -2.25 -0.00    +0.000 OA
DOCKED: ATOM     24  H   UNL     1      21.445 -20.804   0.289 -0.55 -0.00    +0.000 HD
DOCKED: ENDBRANCH  19  20
DOCKED: ENDBRANCH   3  18
DOCKED: TORSDOF 5
DOCKED: TER
DOCKED: ENDMDL
________________________________________________________________________________


	BEGINNING GENETIC ALGORITHM DOCKING 42 of 100
Run: 42 Seed: 113022008 558383312 [ Run 42 of 100 GA/GALS ]
Beginning LAMARCKIAN GENETIC ALGORITHM (LGA), with a maximum of 2500000 energy evaluations.

Final-Value: -14.513


	FINAL GENETIC ALGORITHM DOCKED STATE
	_______________________________________________


Detailed state:  trans 23.806 -16.997 -2.764 quatxyzw 0.436858 -0.560552 0.680483 -0.178551 center 0.230 -0.012 -0.200 ntor 5 -149.6049 -111.2949 -177.1230 80.0517 136.9216
State:	 23.806 -16.997  -2.764   0.444 -0.570  0.692 -159.429   -149.60 -111.29 -177.12   80.05  136.92

DOCKED: MODEL       42
DOCKED: USER    Run = 42
DOCKED: USER    DPF = ligand_dock.biased.dpf
DOCKED: USER  
DOCKED: USER    Estimated Free Energy of Binding    =  -11.81 kcal/mol  [=(1)+(2)+(3)-(4)]
DOCKED: USER    Estimated Inhibition Constant, Ki   =    2.19 nM (nanomolar)  [Temperature = 298.15 K]
DOCKED: USER    
DOCKED: USER    (1) Final Intermolecular Energy     =  -13.31 kcal/mol
DOCKED: USER        vdW + Hbond + desolv Energy     =  -13.31 kcal/mol
DOCKED: USER        Electrostatic Energy            =   +0.00 kcal/mol
DOCKED: USER    (2) Final Total Internal Energy     =   -1.21 kcal/mol
DOCKED: USER    (3) Torsional Free Energy           =   +1.49 kcal/mol
DOCKED: USER    (4) Unbound System's Energy  [=(2)] =   -1.21 kcal/mol
DOCKED: USER    
DOCKED: USER    
DOCKED: USER    NEWDPF move ligand.pdbqt
DOCKED: USER    NEWDPF about 0.230000 -0.012000 -0.200000
DOCKED: USER    NEWDPF tran0 23.806390 -16.997005 -2.763510
DOCKED: USER    NEWDPF quaternion0 0.436858 -0.560552 0.680483 -0.178551
DOCKED: USER    NEWDPF axisangle0 0.443993 -0.569706 0.691596 -159.429316
DOCKED: USER    NEWDPF quat0 0.443993 -0.569706 0.691596 -159.429316
DOCKED: USER    NEWDPF dihe0 -149.60 -111.29 -177.12 80.05 136.92 
DOCKED: USER  keepresnum = 1 
DOCKED: USER  
DOCKED: REMARK  Name = 
DOCKED: REMARK  5 active torsions:
DOCKED: REMARK  status: ('A' for Active; 'I' for Inactive)
DOCKED: REMARK    1  A    between atoms: S_2  and  N_3
DOCKED: REMARK    2  A    between atoms: S_2  and  C_10
DOCKED: REMARK    3  A    between atoms: N_3  and  C_4
DOCKED: REMARK    4  A    between atoms: C_12  and  C_13
DOCKED: REMARK    5  A    between atoms: C_14  and  C_15
DOCKED: REMARK                            x       y       z     vdW  Elec       q    Type
DOCKED: REMARK                         _______ _______ _______ _____ _____    ______ ____
DOCKED: USER                              x       y       z     vdW  Elec       q    Type
DOCKED: USER                           _______ _______ _______ _____ _____    ______ ____
DOCKED: ROOT
DOCKED: ATOM      1  C   UNL     1      25.690 -16.333  -1.886 -0.49 -0.00    +0.000 A 
DOCKED: ATOM      2  C   UNL     1      24.330 -16.671  -1.831 -0.44 -0.00    +0.000 A 
DOCKED: ATOM      3  C   UNL     1      23.892 -17.747  -1.030 -0.68 -0.00    +0.000 A 
DOCKED: ATOM      4  C   UNL     1      24.843 -18.482  -0.303 -0.57 -0.00    +0.000 A 
DOCKED: ATOM      5  C   UNL     1      26.196 -18.137  -0.351 -0.57 -0.00    +0.000 A 
DOCKED: ATOM      6  C   UNL     1      26.620 -17.064  -1.137 -0.46 -0.00    +0.000 A 
DOCKED: ENDROOT
DOCKED: BRANCH   1   8
DOCKED: ATOM      7  O   UNL     1      25.175 -14.658  -3.926 -0.92 -0.00    +0.000 OA
DOCKED: ATOM      8  S   UNL     1      26.226 -15.001  -2.908 -0.56 -0.00    +0.000 S 
DOCKED: ATOM      9  O   UNL     1      27.482 -15.416  -3.620 -0.35 -0.00    +0.000 OA
DOCKED: BRANCH   8  10
DOCKED: ATOM     10  N   UNL     1      26.554 -13.599  -1.938 -0.21 -0.00    +0.000 N 
DOCKED: ATOM     11  H   UNL     1      26.457 -12.714  -2.359 -0.01 -0.00    +0.000 HD
DOCKED: BRANCH  10  12
DOCKED: ATOM     12  C   UNL     1      26.960 -13.652  -0.559 -0.22 -0.00    +0.000 A 
DOCKED: ATOM     13  C   UNL     1      26.236 -12.996   0.457 -0.28 -0.00    +0.000 A 
DOCKED: ATOM     14  C   UNL     1      26.655 -13.079   1.788 -0.29 -0.00    +0.000 A 
DOCKED: ATOM     15  C   UNL     1      27.798 -13.809   2.120 -0.27 -0.00    +0.000 A 
DOCKED: ATOM     16  C   UNL     1      28.526 -14.456   1.120 -0.20 -0.00    +0.000 A 
DOCKED: ATOM     17  C   UNL     1      28.112 -14.377  -0.212 -0.18 -0.00    +0.000 A 
DOCKED: ENDBRANCH  10  12
DOCKED: ENDBRANCH   8  10
DOCKED: ENDBRANCH   1   8
DOCKED: BRANCH   3  18
DOCKED: ATOM     18  C   UNL     1      22.468 -18.160  -0.957 -0.80 -0.00    +0.000 C 
DOCKED: ATOM     19  C   UNL     1      22.065 -19.369  -0.538 -0.74 -0.00    +0.000 C 
DOCKED: BRANCH  19  20
DOCKED: ATOM     20  C   UNL     1      20.646 -19.773  -0.466 -0.83 -0.00    +0.000 C 
DOCKED: ATOM     21  N   UNL     1      20.084 -20.399   0.695 -0.69 -0.00    +0.000 N 
DOCKED: ATOM     22  O   UNL     1      18.807 -20.845   0.672 -0.84 -0.00    +0.000 OA
DOCKED: ATOM     23  O   UNL     1      19.903 -19.535  -1.456 -2.15 -0.00    +0.000 OA
DOCKED: ATOM     24  H   UNL     1      20.627 -20.503   1.508 -0.55 -0.00    +0.000 HD
DOCKED: ENDBRANCH  19  20
DOCKED: ENDBRANCH   3  18
DOCKED: TORSDOF 5
DOCKED: TER
DOCKED: ENDMDL
________________________________________________________________________________


	BEGINNING GENETIC ALGORITHM DOCKING 43 of 100
Run: 43 Seed: 3235092 373135720 [ Run 43 of 100 GA/GALS ]
Beginning LAMARCKIAN GENETIC ALGORITHM (LGA), with a maximum of 2500000 energy evaluations.

Final-Value: -15.066


	FINAL GENETIC ALGORITHM DOCKED STATE
	_______________________________________________


Detailed state:  trans 23.769 -17.262 -2.648 quatxyzw 0.529729 -0.433853 0.676856 -0.270230 center 0.230 -0.012 -0.200 ntor 5 -87.7204 108.5357 69.7151 169.5528 -165.5849
State:	 23.769 -17.262  -2.648   0.550 -0.451  0.703 -148.644    -87.72  108.54   69.72  169.55 -165.58

DOCKED: MODEL       43
DOCKED: USER    Run = 43
DOCKED: USER    DPF = ligand_dock.biased.dpf
DOCKED: USER  
DOCKED: USER    Estimated Free Energy of Binding    =  -12.57 kcal/mol  [=(1)+(2)+(3)-(4)]
DOCKED: USER    Estimated Inhibition Constant, Ki   =  610.40 pM (picomolar)  [Temperature = 298.15 K]
DOCKED: USER    
DOCKED: USER    (1) Final Intermolecular Energy     =  -14.06 kcal/mol
DOCKED: USER        vdW + Hbond + desolv Energy     =  -14.06 kcal/mol
DOCKED: USER        Electrostatic Energy            =   +0.00 kcal/mol
DOCKED: USER    (2) Final Total Internal Energy     =   -1.00 kcal/mol
DOCKED: USER    (3) Torsional Free Energy           =   +1.49 kcal/mol
DOCKED: USER    (4) Unbound System's Energy  [=(2)] =   -1.00 kcal/mol
DOCKED: USER    
DOCKED: USER    
DOCKED: USER    NEWDPF move ligand.pdbqt
DOCKED: USER    NEWDPF about 0.230000 -0.012000 -0.200000
DOCKED: USER    NEWDPF tran0 23.768744 -17.262201 -2.647540
DOCKED: USER    NEWDPF quaternion0 0.529729 -0.433853 0.676856 -0.270230
DOCKED: USER    NEWDPF axisangle0 0.550198 -0.450618 0.703011 -148.644126
DOCKED: USER    NEWDPF quat0 0.550198 -0.450618 0.703011 -148.644126
DOCKED: USER    NEWDPF dihe0 -87.72 108.54 69.72 169.55 -165.58 
DOCKED: USER  keepresnum = 1 
DOCKED: USER  
DOCKED: REMARK  Name = 
DOCKED: REMARK  5 active torsions:
DOCKED: REMARK  status: ('A' for Active; 'I' for Inactive)
DOCKED: REMARK    1  A    between atoms: S_2  and  N_3
DOCKED: REMARK    2  A    between atoms: S_2  and  C_10
DOCKED: REMARK    3  A    between atoms: N_3  and  C_4
DOCKED: REMARK    4  A    between atoms: C_12  and  C_13
DOCKED: REMARK    5  A    between atoms: C_14  and  C_15
DOCKED: REMARK                            x       y       z     vdW  Elec       q    Type
DOCKED: REMARK                         _______ _______ _______ _____ _____    ______ ____
DOCKED: USER                              x       y       z     vdW  Elec       q    Type
DOCKED: USER                           _______ _______ _______ _____ _____    ______ ____
DOCKED: ROOT
DOCKED: ATOM      1  C   UNL     1      25.726 -16.312  -2.489 -0.48 -0.00    +0.000 A 
DOCKED: ATOM      2  C   UNL     1      24.478 -16.706  -1.986 -0.39 -0.00    +0.000 A 
DOCKED: ATOM      3  C   UNL     1      24.395 -17.598  -0.896 -0.66 -0.00    +0.000 A 
DOCKED: ATOM      4  C   UNL     1      25.584 -18.096  -0.336 -0.61 -0.00    +0.000 A 
DOCKED: ATOM      5  C   UNL     1      26.826 -17.694  -0.832 -0.46 -0.00    +0.000 A 
DOCKED: ATOM      6  C   UNL     1      26.899 -16.802  -1.903 -0.34 -0.00    +0.000 A 
DOCKED: ENDROOT
DOCKED: BRANCH   1   8
DOCKED: ATOM      7  O   UNL     1      24.768 -14.141  -3.754 -1.01 -0.00    +0.000 OA
DOCKED: ATOM      8  S   UNL     1      25.814 -15.214  -3.865 -0.72 -0.00    +0.000 S 
DOCKED: ATOM      9  O   UNL     1      25.580 -16.000  -5.123 -1.01 -0.00    +0.000 OA
DOCKED: BRANCH   8  10
DOCKED: ATOM     10  N   UNL     1      27.382 -14.471  -3.937 -0.28 -0.00    +0.000 N 
DOCKED: ATOM     11  H   UNL     1      27.655 -13.894  -3.187 +0.00 -0.00    +0.000 HD
DOCKED: BRANCH  10  12
DOCKED: ATOM     12  C   UNL     1      28.305 -14.648  -5.026 -0.30 -0.00    +0.000 A 
DOCKED: ATOM     13  C   UNL     1      28.403 -13.717  -6.079 -0.27 -0.00    +0.000 A 
DOCKED: ATOM     14  C   UNL     1      29.320 -13.918  -7.115 -0.29 -0.00    +0.000 A 
DOCKED: ATOM     15  C   UNL     1      30.143 -15.046  -7.116 -0.27 -0.00    +0.000 A 
DOCKED: ATOM     16  C   UNL     1      30.049 -15.978  -6.081 -0.29 -0.00    +0.000 A 
DOCKED: ATOM     17  C   UNL     1      29.134 -15.782  -5.042 -0.29 -0.00    +0.000 A 
DOCKED: ENDBRANCH  10  12
DOCKED: ENDBRANCH   8  10
DOCKED: ENDBRANCH   1   8
DOCKED: BRANCH   3  18
DOCKED: ATOM     18  C   UNL     1      23.100 -18.066  -0.342 -0.80 -0.00    +0.000 C 
DOCKED: ATOM     19  C   UNL     1      22.085 -18.512  -1.098 -0.79 -0.00    +0.000 C 
DOCKED: BRANCH  19  20
DOCKED: ATOM     20  C   UNL     1      20.799 -18.978  -0.539 -0.87 -0.00    +0.000 C 
DOCKED: ATOM     21  N   UNL     1      20.682 -20.196   0.206 -0.66 -0.00    +0.000 N 
DOCKED: ATOM     22  O   UNL     1      19.465 -20.632   0.606 -0.88 -0.00    +0.000 OA
DOCKED: ATOM     23  O   UNL     1      19.776 -18.261  -0.708 -1.78 -0.00    +0.000 OA
DOCKED: ATOM     24  H   UNL     1      21.488 -20.716   0.427 -0.61 -0.00    +0.000 HD
DOCKED: ENDBRANCH  19  20
DOCKED: ENDBRANCH   3  18
DOCKED: TORSDOF 5
DOCKED: TER
DOCKED: ENDMDL
________________________________________________________________________________


	BEGINNING GENETIC ALGORITHM DOCKING 44 of 100
Run: 44 Seed: 232802234 1671063417 [ Run 44 of 100 GA/GALS ]
Beginning LAMARCKIAN GENETIC ALGORITHM (LGA), with a maximum of 2500000 energy evaluations.

Final-Value: -14.314


	FINAL GENETIC ALGORITHM DOCKED STATE
	_______________________________________________


Detailed state:  trans 24.005 -17.602 -2.745 quatxyzw -0.541590 0.431145 -0.694341 0.196682 center 0.230 -0.012 -0.200 ntor 5 3.6801 -120.0999 44.5962 -146.2199 -169.2325
State:	 24.005 -17.602  -2.745  -0.552  0.440 -0.708 157.314      3.68 -120.10   44.60 -146.22 -169.23

DOCKED: MODEL       44
DOCKED: USER    Run = 44
DOCKED: USER    DPF = ligand_dock.biased.dpf
DOCKED: USER  
DOCKED: USER    Estimated Free Energy of Binding    =  -11.87 kcal/mol  [=(1)+(2)+(3)-(4)]
DOCKED: USER    Estimated Inhibition Constant, Ki   =    1.99 nM (nanomolar)  [Temperature = 298.15 K]
DOCKED: USER    
DOCKED: USER    (1) Final Intermolecular Energy     =  -13.36 kcal/mol
DOCKED: USER        vdW + Hbond + desolv Energy     =  -13.36 kcal/mol
DOCKED: USER        Electrostatic Energy            =   +0.00 kcal/mol
DOCKED: USER    (2) Final Total Internal Energy     =   -0.95 kcal/mol
DOCKED: USER    (3) Torsional Free Energy           =   +1.49 kcal/mol
DOCKED: USER    (4) Unbound System's Energy  [=(2)] =   -0.95 kcal/mol
DOCKED: USER    
DOCKED: USER    
DOCKED: USER    NEWDPF move ligand.pdbqt
DOCKED: USER    NEWDPF about 0.230000 -0.012000 -0.200000
DOCKED: USER    NEWDPF tran0 24.005491 -17.601906 -2.745408
DOCKED: USER    NEWDPF quaternion0 -0.541590 0.431145 -0.694341 0.196682
DOCKED: USER    NEWDPF axisangle0 -0.552380 0.439735 -0.708174 157.314011
DOCKED: USER    NEWDPF quat0 -0.552380 0.439735 -0.708174 157.314011
DOCKED: USER    NEWDPF dihe0 3.68 -120.10 44.60 -146.22 -169.23 
DOCKED: USER  keepresnum = 1 
DOCKED: USER  
DOCKED: REMARK  Name = 
DOCKED: REMARK  5 active torsions:
DOCKED: REMARK  status: ('A' for Active; 'I' for Inactive)
DOCKED: REMARK    1  A    between atoms: S_2  and  N_3
DOCKED: REMARK    2  A    between atoms: S_2  and  C_10
DOCKED: REMARK    3  A    between atoms: N_3  and  C_4
DOCKED: REMARK    4  A    between atoms: C_12  and  C_13
DOCKED: REMARK    5  A    between atoms: C_14  and  C_15
DOCKED: REMARK                            x       y       z     vdW  Elec       q    Type
DOCKED: REMARK                         _______ _______ _______ _____ _____    ______ ____
DOCKED: USER                              x       y       z     vdW  Elec       q    Type
DOCKED: USER                           _______ _______ _______ _____ _____    ______ ____
DOCKED: ROOT
DOCKED: ATOM      1  C   UNL     1      25.816 -16.437  -2.395 -0.46 -0.00    +0.000 A 
DOCKED: ATOM      2  C   UNL     1      24.599 -17.012  -2.004 -0.48 -0.00    +0.000 A 
DOCKED: ATOM      3  C   UNL     1      24.561 -17.981  -0.979 -0.67 -0.00    +0.000 A 
DOCKED: ATOM      4  C   UNL     1      25.766 -18.370  -0.370 -0.58 -0.00    +0.000 A 
DOCKED: ATOM      5  C   UNL     1      26.977 -17.789  -0.754 -0.45 -0.00    +0.000 A 
DOCKED: ATOM      6  C   UNL     1      27.004 -16.823  -1.761 -0.36 -0.00    +0.000 A 
DOCKED: ENDROOT
DOCKED: BRANCH   1   8
DOCKED: ATOM      7  O   UNL     1      24.629 -14.370  -3.640 -0.92 -0.00    +0.000 OA
DOCKED: ATOM      8  S   UNL     1      25.851 -15.244  -3.691 -0.71 -0.00    +0.000 S 
DOCKED: ATOM      9  O   UNL     1      25.883 -15.965  -5.008 -1.03 +0.00    +0.000 OA
DOCKED: BRANCH   8  10
DOCKED: ATOM     10  N   UNL     1      27.266 -14.248  -3.549 -0.25 -0.00    +0.000 N 
DOCKED: ATOM     11  H   UNL     1      27.730 -14.225  -2.681 +0.01 -0.00    +0.000 HD
DOCKED: BRANCH  10  12
DOCKED: ATOM     12  C   UNL     1      27.802 -13.456  -4.624 -0.21 -0.00    +0.000 A 
DOCKED: ATOM     13  C   UNL     1      29.172 -13.472  -4.951 -0.12 -0.00    +0.000 A 
DOCKED: ATOM     14  C   UNL     1      29.655 -12.696  -6.009 -0.10 -0.00    +0.000 A 
DOCKED: ATOM     15  C   UNL     1      28.782 -11.893  -6.747 -0.13 -0.00    +0.000 A 
DOCKED: ATOM     16  C   UNL     1      27.423 -11.864  -6.426 -0.17 -0.00    +0.000 A 
DOCKED: ATOM     17  C   UNL     1      26.936 -12.638  -5.369 -0.17 -0.00    +0.000 A 
DOCKED: ENDBRANCH  10  12
DOCKED: ENDBRANCH   8  10
DOCKED: ENDBRANCH   1   8
DOCKED: BRANCH   3  18
DOCKED: ATOM     18  C   UNL     1      23.303 -18.638  -0.545 -0.82 -0.00    +0.000 C 
DOCKED: ATOM     19  C   UNL     1      22.202 -18.714  -1.308 -0.70 -0.00    +0.000 C 
DOCKED: BRANCH  19  20
DOCKED: ATOM     20  C   UNL     1      20.953 -19.371  -0.869 -0.88 -0.00    +0.000 C 
DOCKED: ATOM     21  N   UNL     1      20.640 -19.580   0.514 -0.70 -0.00    +0.000 N 
DOCKED: ATOM     22  O   UNL     1      19.536 -20.280   0.860 -0.80 -0.00    +0.000 OA
DOCKED: ATOM     23  O   UNL     1      20.127 -19.737  -1.748 -2.35 -0.00    +0.000 OA
DOCKED: ATOM     24  H   UNL     1      21.230 -19.213   1.211 -0.31 -0.00    +0.000 HD
DOCKED: ENDBRANCH  19  20
DOCKED: ENDBRANCH   3  18
DOCKED: TORSDOF 5
DOCKED: TER
DOCKED: ENDMDL
________________________________________________________________________________


	BEGINNING GENETIC ALGORITHM DOCKING 45 of 100
Run: 45 Seed: 1284724437 850629307 [ Run 45 of 100 GA/GALS ]
Beginning LAMARCKIAN GENETIC ALGORITHM (LGA), with a maximum of 2500000 energy evaluations.

Final-Value: -15.284


	FINAL GENETIC ALGORITHM DOCKED STATE
	_______________________________________________


Detailed state:  trans 24.258 -17.950 -3.049 quatxyzw 0.473850 -0.357544 0.801011 -0.077519 center 0.230 -0.012 -0.200 ntor 5 68.9462 108.3498 -43.1437 172.1999 -135.8493
State:	 24.258 -17.950  -3.049   0.475 -0.359  0.803 -171.108     68.95  108.35  -43.14  172.20 -135.85

DOCKED: MODEL       45
DOCKED: USER    Run = 45
DOCKED: USER    DPF = ligand_dock.biased.dpf
DOCKED: USER  
DOCKED: USER    Estimated Free Energy of Binding    =  -12.81 kcal/mol  [=(1)+(2)+(3)-(4)]
DOCKED: USER    Estimated Inhibition Constant, Ki   =  409.65 pM (picomolar)  [Temperature = 298.15 K]
DOCKED: USER    
DOCKED: USER    (1) Final Intermolecular Energy     =  -14.30 kcal/mol
DOCKED: USER        vdW + Hbond + desolv Energy     =  -14.30 kcal/mol
DOCKED: USER        Electrostatic Energy            =   +0.00 kcal/mol
DOCKED: USER    (2) Final Total Internal Energy     =   -0.99 kcal/mol
DOCKED: USER    (3) Torsional Free Energy           =   +1.49 kcal/mol
DOCKED: USER    (4) Unbound System's Energy  [=(2)] =   -0.99 kcal/mol
DOCKED: USER    
DOCKED: USER    
DOCKED: USER    NEWDPF move ligand.pdbqt
DOCKED: USER    NEWDPF about 0.230000 -0.012000 -0.200000
DOCKED: USER    NEWDPF tran0 24.257848 -17.950404 -3.049244
DOCKED: USER    NEWDPF quaternion0 0.473850 -0.357544 0.801011 -0.077519
DOCKED: USER    NEWDPF axisangle0 0.475280 -0.358623 0.803429 -171.108003
DOCKED: USER    NEWDPF quat0 0.475280 -0.358623 0.803429 -171.108003
DOCKED: USER    NEWDPF dihe0 68.95 108.35 -43.14 172.20 -135.85 
DOCKED: USER  keepresnum = 1 
DOCKED: USER  
DOCKED: REMARK  Name = 
DOCKED: REMARK  5 active torsions:
DOCKED: REMARK  status: ('A' for Active; 'I' for Inactive)
DOCKED: REMARK    1  A    between atoms: S_2  and  N_3
DOCKED: REMARK    2  A    between atoms: S_2  and  C_10
DOCKED: REMARK    3  A    between atoms: N_3  and  C_4
DOCKED: REMARK    4  A    between atoms: C_12  and  C_13
DOCKED: REMARK    5  A    between atoms: C_14  and  C_15
DOCKED: REMARK                            x       y       z     vdW  Elec       q    Type
DOCKED: REMARK                         _______ _______ _______ _____ _____    ______ ____
DOCKED: USER                              x       y       z     vdW  Elec       q    Type
DOCKED: USER                           _______ _______ _______ _____ _____    ______ ____
DOCKED: ROOT
DOCKED: ATOM      1  C   UNL     1      25.601 -16.371  -2.372 -0.49 -0.00    +0.000 A 
DOCKED: ATOM      2  C   UNL     1      24.473 -17.195  -2.254 -0.22 -0.00    +0.000 A 
DOCKED: ATOM      3  C   UNL     1      24.347 -18.084  -1.166 -0.67 -0.00    +0.000 A 
DOCKED: ATOM      4  C   UNL     1      25.378 -18.140  -0.213 -0.61 -0.00    +0.000 A 
DOCKED: ATOM      5  C   UNL     1      26.497 -17.311  -0.328 -0.51 -0.00    +0.000 A 
DOCKED: ATOM      6  C   UNL     1      26.608 -16.426  -1.401 -0.41 -0.00    +0.000 A 
DOCKED: ENDROOT
DOCKED: BRANCH   1   8
DOCKED: ATOM      7  O   UNL     1      24.753 -14.164  -3.654 -0.97 -0.00    +0.000 OA
DOCKED: ATOM      8  S   UNL     1      25.755 -15.280  -3.748 -0.71 -0.00    +0.000 S 
DOCKED: ATOM      9  O   UNL     1      25.507 -16.058  -5.009 -0.91 -0.00    +0.000 OA
DOCKED: BRANCH   8  10
DOCKED: ATOM     10  N   UNL     1      27.353 -14.603  -3.798 -0.28 -0.00    +0.000 N 
DOCKED: ATOM     11  H   UNL     1      27.653 -14.069  -3.027 +0.01 -0.00    +0.000 HD
DOCKED: BRANCH  10  12
DOCKED: ATOM     12  C   UNL     1      28.265 -14.776  -4.897 -0.30 -0.00    +0.000 A 
DOCKED: ATOM     13  C   UNL     1      28.397 -13.810  -5.915 -0.27 -0.00    +0.000 A 
DOCKED: ATOM     14  C   UNL     1      29.302 -14.008  -6.962 -0.29 -0.00    +0.000 A 
DOCKED: ATOM     15  C   UNL     1      30.078 -15.168  -7.011 -0.28 -0.00    +0.000 A 
DOCKED: ATOM     16  C   UNL     1      29.949 -16.134  -6.011 -0.30 -0.00    +0.000 A 
DOCKED: ATOM     17  C   UNL     1      29.047 -15.941  -4.961 -0.29 -0.00    +0.000 A 
DOCKED: ENDBRANCH  10  12
DOCKED: ENDBRANCH   8  10
DOCKED: ENDBRANCH   1   8
DOCKED: BRANCH   3  18
DOCKED: ATOM     18  C   UNL     1      23.185 -18.995  -1.008 -0.81 -0.00    +0.000 C 
DOCKED: ATOM     19  C   UNL     1      21.933 -18.571  -0.783 -0.84 -0.00    +0.000 C 
DOCKED: BRANCH  19  20
DOCKED: ATOM     20  C   UNL     1      20.781 -19.484  -0.629 -0.87 -0.00    +0.000 C 
DOCKED: ATOM     21  N   UNL     1      20.421 -20.059   0.634 -0.67 -0.00    +0.000 N 
DOCKED: ATOM     22  O   UNL     1      19.425 -20.971   0.704 -0.80 -0.00    +0.000 OA
DOCKED: ATOM     23  O   UNL     1      20.081 -19.745  -1.644 -2.32 -0.00    +0.000 OA
DOCKED: ATOM     24  H   UNL     1      20.900 -19.789   1.451 -0.46 -0.00    +0.000 HD
DOCKED: ENDBRANCH  19  20
DOCKED: ENDBRANCH   3  18
DOCKED: TORSDOF 5
DOCKED: TER
DOCKED: ENDMDL
________________________________________________________________________________


	BEGINNING GENETIC ALGORITHM DOCKING 46 of 100
Run: 46 Seed: 700366102 1293446739 [ Run 46 of 100 GA/GALS ]
Beginning LAMARCKIAN GENETIC ALGORITHM (LGA), with a maximum of 2500000 energy evaluations.

Final-Value: -14.378


	FINAL GENETIC ALGORITHM DOCKED STATE
	_______________________________________________


Detailed state:  trans 24.000 -17.487 -2.690 quatxyzw 0.541677 -0.448712 0.691456 -0.164721 center 0.230 -0.012 -0.200 ntor 5 25.6785 -19.4658 37.0403 28.7996 172.6338
State:	 24.000 -17.487  -2.690   0.549 -0.455  0.701 -161.038     25.68  -19.47   37.04   28.80  172.63

DOCKED: MODEL       46
DOCKED: USER    Run = 46
DOCKED: USER    DPF = ligand_dock.biased.dpf
DOCKED: USER  
DOCKED: USER    Estimated Free Energy of Binding    =  -11.71 kcal/mol  [=(1)+(2)+(3)-(4)]
DOCKED: USER    Estimated Inhibition Constant, Ki   =    2.63 nM (nanomolar)  [Temperature = 298.15 K]
DOCKED: USER    
DOCKED: USER    (1) Final Intermolecular Energy     =  -13.20 kcal/mol
DOCKED: USER        vdW + Hbond + desolv Energy     =  -13.20 kcal/mol
DOCKED: USER        Electrostatic Energy            =   +0.00 kcal/mol
DOCKED: USER    (2) Final Total Internal Energy     =   -1.18 kcal/mol
DOCKED: USER    (3) Torsional Free Energy           =   +1.49 kcal/mol
DOCKED: USER    (4) Unbound System's Energy  [=(2)] =   -1.18 kcal/mol
DOCKED: USER    
DOCKED: USER    
DOCKED: USER    NEWDPF move ligand.pdbqt
DOCKED: USER    NEWDPF about 0.230000 -0.012000 -0.200000
DOCKED: USER    NEWDPF tran0 24.000396 -17.486763 -2.689846
DOCKED: USER    NEWDPF quaternion0 0.541677 -0.448712 0.691456 -0.164721
DOCKED: USER    NEWDPF axisangle0 0.549178 -0.454926 0.701032 -161.037977
DOCKED: USER    NEWDPF quat0 0.549178 -0.454926 0.701032 -161.037977
DOCKED: USER    NEWDPF dihe0 25.68 -19.47 37.04 28.80 172.63 
DOCKED: USER  keepresnum = 1 
DOCKED: USER  
DOCKED: REMARK  Name = 
DOCKED: REMARK  5 active torsions:
DOCKED: REMARK  status: ('A' for Active; 'I' for Inactive)
DOCKED: REMARK    1  A    between atoms: S_2  and  N_3
DOCKED: REMARK    2  A    between atoms: S_2  and  C_10
DOCKED: REMARK    3  A    between atoms: N_3  and  C_4
DOCKED: REMARK    4  A    between atoms: C_12  and  C_13
DOCKED: REMARK    5  A    between atoms: C_14  and  C_15
DOCKED: REMARK                            x       y       z     vdW  Elec       q    Type
DOCKED: REMARK                         _______ _______ _______ _____ _____    ______ ____
DOCKED: USER                              x       y       z     vdW  Elec       q    Type
DOCKED: USER                           _______ _______ _______ _____ _____    ______ ____
DOCKED: ROOT
DOCKED: ATOM      1  C   UNL     1      25.770 -16.304  -2.211 -0.48 -0.00    +0.000 A 
DOCKED: ATOM      2  C   UNL     1      24.556 -16.931  -1.895 -0.51 -0.00    +0.000 A 
DOCKED: ATOM      3  C   UNL     1      24.512 -17.961  -0.933 -0.67 -0.00    +0.000 A 
DOCKED: ATOM      4  C   UNL     1      25.707 -18.359  -0.311 -0.58 -0.00    +0.000 A 
DOCKED: ATOM      5  C   UNL     1      26.914 -17.728  -0.620 -0.47 -0.00    +0.000 A 
DOCKED: ATOM      6  C   UNL     1      26.947 -16.700  -1.564 -0.39 -0.00    +0.000 A 
DOCKED: ENDROOT
DOCKED: BRANCH   1   8
DOCKED: ATOM      7  O   UNL     1      24.436 -14.482  -3.672 -0.86 -0.00    +0.000 OA
DOCKED: ATOM      8  S   UNL     1      25.814 -15.033  -3.430 -0.67 -0.00    +0.000 S 
DOCKED: ATOM      9  O   UNL     1      26.343 -15.612  -4.711 -0.88 -0.00    +0.000 OA
DOCKED: BRANCH   8  10
DOCKED: ATOM     10  N   UNL     1      26.855 -13.744  -2.913 -0.24 -0.00    +0.000 N 
DOCKED: ATOM     11  H   UNL     1      27.250 -13.163  -3.603 +0.00 -0.00    +0.000 HD
DOCKED: BRANCH  10  12
DOCKED: ATOM     12  C   UNL     1      27.176 -13.473  -1.537 -0.17 -0.00    +0.000 A 
DOCKED: ATOM     13  C   UNL     1      26.266 -13.736  -0.493 -0.22 -0.00    +0.000 A 
DOCKED: ATOM     14  C   UNL     1      26.617 -13.469   0.833 -0.27 -0.00    +0.000 A 
DOCKED: ATOM     15  C   UNL     1      27.872 -12.935   1.134 -0.18 -0.00    +0.000 A 
DOCKED: ATOM     16  C   UNL     1      28.778 -12.664   0.107 -0.07 -0.00    +0.000 A 
DOCKED: ATOM     17  C   UNL     1      28.432 -12.929  -1.221 -0.08 -0.00    +0.000 A 
DOCKED: ENDBRANCH  10  12
DOCKED: ENDBRANCH   8  10
DOCKED: ENDBRANCH   1   8
DOCKED: BRANCH   3  18
DOCKED: ATOM     18  C   UNL     1      23.257 -18.673  -0.580 -0.82 -0.00    +0.000 C 
DOCKED: ATOM     19  C   UNL     1      22.134 -18.607  -1.311 -0.66 -0.00    +0.000 C 
DOCKED: BRANCH  19  20
DOCKED: ATOM     20  C   UNL     1      20.890 -19.320  -0.954 -0.89 -0.00    +0.000 C 
DOCKED: ATOM     21  N   UNL     1      20.386 -19.360   0.387 -0.71 -0.00    +0.000 N 
DOCKED: ATOM     22  O   UNL     1      19.301 -20.113   0.680 -0.84 -0.00    +0.000 OA
DOCKED: ATOM     23  O   UNL     1      20.241 -19.891  -1.872 -2.34 -0.00    +0.000 OA
DOCKED: ATOM     24  H   UNL     1      20.830 -18.839   1.094 -0.19 -0.00    +0.000 HD
DOCKED: ENDBRANCH  19  20
DOCKED: ENDBRANCH   3  18
DOCKED: TORSDOF 5
DOCKED: TER
DOCKED: ENDMDL
________________________________________________________________________________


	BEGINNING GENETIC ALGORITHM DOCKING 47 of 100
Run: 47 Seed: 1832578848 1969740272 [ Run 47 of 100 GA/GALS ]
Beginning LAMARCKIAN GENETIC ALGORITHM (LGA), with a maximum of 2500000 energy evaluations.

Final-Value: -15.003


	FINAL GENETIC ALGORITHM DOCKED STATE
	_______________________________________________


Detailed state:  trans 23.663 -17.055 -2.630 quatxyzw 0.517301 -0.504236 0.657473 -0.214185 center 0.230 -0.012 -0.200 ntor 5 -56.2025 101.8654 104.0283 -56.1891 -75.2656
State:	 23.663 -17.055  -2.630   0.530 -0.516  0.673 -155.265    -56.20  101.87  104.03  -56.19  -75.27

DOCKED: MODEL       47
DOCKED: USER    Run = 47
DOCKED: USER    DPF = ligand_dock.biased.dpf
DOCKED: USER  
DOCKED: USER    Estimated Free Energy of Binding    =  -12.50 kcal/mol  [=(1)+(2)+(3)-(4)]
DOCKED: USER    Estimated Inhibition Constant, Ki   =  687.63 pM (picomolar)  [Temperature = 298.15 K]
DOCKED: USER    
DOCKED: USER    (1) Final Intermolecular Energy     =  -13.99 kcal/mol
DOCKED: USER        vdW + Hbond + desolv Energy     =  -13.99 kcal/mol
DOCKED: USER        Electrostatic Energy            =   +0.00 kcal/mol
DOCKED: USER    (2) Final Total Internal Energy     =   -1.01 kcal/mol
DOCKED: USER    (3) Torsional Free Energy           =   +1.49 kcal/mol
DOCKED: USER    (4) Unbound System's Energy  [=(2)] =   -1.01 kcal/mol
DOCKED: USER    
DOCKED: USER    
DOCKED: USER    NEWDPF move ligand.pdbqt
DOCKED: USER    NEWDPF about 0.230000 -0.012000 -0.200000
DOCKED: USER    NEWDPF tran0 23.662541 -17.054785 -2.630324
DOCKED: USER    NEWDPF quaternion0 0.517301 -0.504236 0.657473 -0.214185
DOCKED: USER    NEWDPF axisangle0 0.529591 -0.516216 0.673093 -155.264613
DOCKED: USER    NEWDPF quat0 0.529591 -0.516216 0.673093 -155.264613
DOCKED: USER    NEWDPF dihe0 -56.20 101.87 104.03 -56.19 -75.27 
DOCKED: USER  keepresnum = 1 
DOCKED: USER  
DOCKED: REMARK  Name = 
DOCKED: REMARK  5 active torsions:
DOCKED: REMARK  status: ('A' for Active; 'I' for Inactive)
DOCKED: REMARK    1  A    between atoms: S_2  and  N_3
DOCKED: REMARK    2  A    between atoms: S_2  and  C_10
DOCKED: REMARK    3  A    between atoms: N_3  and  C_4
DOCKED: REMARK    4  A    between atoms: C_12  and  C_13
DOCKED: REMARK    5  A    between atoms: C_14  and  C_15
DOCKED: REMARK                            x       y       z     vdW  Elec       q    Type
DOCKED: REMARK                         _______ _______ _______ _____ _____    ______ ____
DOCKED: USER                              x       y       z     vdW  Elec       q    Type
DOCKED: USER                           _______ _______ _______ _____ _____    ______ ____
DOCKED: ROOT
DOCKED: ATOM      1  C   UNL     1      25.611 -16.196  -2.159 -0.49 -0.00    +0.000 A 
DOCKED: ATOM      2  C   UNL     1      24.321 -16.634  -1.831 -0.42 -0.00    +0.000 A 
DOCKED: ATOM      3  C   UNL     1      24.135 -17.689  -0.913 -0.67 -0.00    +0.000 A 
DOCKED: ATOM      4  C   UNL     1      25.265 -18.303  -0.348 -0.61 -0.00    +0.000 A 
DOCKED: ATOM      5  C   UNL     1      26.550 -17.859  -0.670 -0.52 -0.00    +0.000 A 
DOCKED: ATOM      6  C   UNL     1      26.725 -16.806  -1.569 -0.41 -0.00    +0.000 A 
DOCKED: ENDROOT
DOCKED: BRANCH   1   8
DOCKED: ATOM      7  O   UNL     1      26.756 -13.841  -2.776 -0.27 -0.00    +0.000 OA
DOCKED: ATOM      8  S   UNL     1      25.830 -14.891  -3.323 -0.64 -0.00    +0.000 S 
DOCKED: ATOM      9  O   UNL     1      24.492 -14.267  -3.603 -0.90 -0.00    +0.000 OA
DOCKED: BRANCH   8  10
DOCKED: ATOM     10  N   UNL     1      26.492 -15.514  -4.803 -0.55 -0.00    +0.000 N 
DOCKED: ATOM     11  H   UNL     1      25.909 -16.064  -5.374 -0.09 +0.00    +0.000 HD
DOCKED: BRANCH  10  12
DOCKED: ATOM     12  C   UNL     1      27.840 -15.274  -5.244 -0.37 -0.00    +0.000 A 
DOCKED: ATOM     13  C   UNL     1      28.902 -16.131  -4.895 -0.26 -0.00    +0.000 A 
DOCKED: ATOM     14  C   UNL     1      30.198 -15.871  -5.351 -0.22 -0.00    +0.000 A 
DOCKED: ATOM     15  C   UNL     1      30.450 -14.755  -6.152 -0.18 -0.00    +0.000 A 
DOCKED: ATOM     16  C   UNL     1      29.406 -13.896  -6.497 -0.25 -0.00    +0.000 A 
DOCKED: ATOM     17  C   UNL     1      28.108 -14.151  -6.045 -0.29 -0.00    +0.000 A 
DOCKED: ENDBRANCH  10  12
DOCKED: ENDBRANCH   8  10
DOCKED: ENDBRANCH   1   8
DOCKED: BRANCH   3  18
DOCKED: ATOM     18  C   UNL     1      22.791 -18.206  -0.551 -0.83 -0.00    +0.000 C 
DOCKED: ATOM     19  C   UNL     1      22.103 -19.080  -1.300 -0.73 -0.00    +0.000 C 
DOCKED: BRANCH  19  20
DOCKED: ATOM     20  C   UNL     1      20.767 -19.591  -0.932 -0.84 -0.00    +0.000 C 
DOCKED: ATOM     21  N   UNL     1      20.410 -19.902   0.421 -0.71 -0.00    +0.000 N 
DOCKED: ATOM     22  O   UNL     1      19.211 -20.467   0.692 -0.85 -0.00    +0.000 OA
DOCKED: ATOM     23  O   UNL     1      19.907 -19.735  -1.843 -2.40 -0.00    +0.000 OA
DOCKED: ATOM     24  H   UNL     1      21.038 -19.704   1.152 -0.47 -0.00    +0.000 HD
DOCKED: ENDBRANCH  19  20
DOCKED: ENDBRANCH   3  18
DOCKED: TORSDOF 5
DOCKED: TER
DOCKED: ENDMDL
________________________________________________________________________________


	BEGINNING GENETIC ALGORITHM DOCKING 48 of 100
Run: 48 Seed: 1261106926 1012988887 [ Run 48 of 100 GA/GALS ]
Beginning LAMARCKIAN GENETIC ALGORITHM (LGA), with a maximum of 2500000 energy evaluations.

Final-Value: -14.646


	FINAL GENETIC ALGORITHM DOCKED STATE
	_______________________________________________


Detailed state:  trans 24.945 -16.996 -3.308 quatxyzw 0.376594 -0.371584 0.796691 -0.292208 center 0.230 -0.012 -0.200 ntor 5 144.3882 -89.2439 108.3721 -61.1801 134.5699
State:	 24.945 -16.996  -3.308   0.394 -0.389  0.833 -146.020    144.39  -89.24  108.37  -61.18  134.57

DOCKED: MODEL       48
DOCKED: USER    Run = 48
DOCKED: USER    DPF = ligand_dock.biased.dpf
DOCKED: USER  
DOCKED: USER    Estimated Free Energy of Binding    =  -12.16 kcal/mol  [=(1)+(2)+(3)-(4)]
DOCKED: USER    Estimated Inhibition Constant, Ki   =    1.23 nM (nanomolar)  [Temperature = 298.15 K]
DOCKED: USER    
DOCKED: USER    (1) Final Intermolecular Energy     =  -13.65 kcal/mol
DOCKED: USER        vdW + Hbond + desolv Energy     =  -13.65 kcal/mol
DOCKED: USER        Electrostatic Energy            =   +0.00 kcal/mol
DOCKED: USER    (2) Final Total Internal Energy     =   -1.00 kcal/mol
DOCKED: USER    (3) Torsional Free Energy           =   +1.49 kcal/mol
DOCKED: USER    (4) Unbound System's Energy  [=(2)] =   -1.00 kcal/mol
DOCKED: USER    
DOCKED: USER    
DOCKED: USER    NEWDPF move ligand.pdbqt
DOCKED: USER    NEWDPF about 0.230000 -0.012000 -0.200000
DOCKED: USER    NEWDPF tran0 24.944865 -16.995582 -3.308145
DOCKED: USER    NEWDPF quaternion0 0.376594 -0.371584 0.796691 -0.292208
DOCKED: USER    NEWDPF axisangle0 0.393780 -0.388542 0.833050 -146.019580
DOCKED: USER    NEWDPF quat0 0.393780 -0.388542 0.833050 -146.019580
DOCKED: USER    NEWDPF dihe0 144.39 -89.24 108.37 -61.18 134.57 
DOCKED: USER  keepresnum = 1 
DOCKED: USER  
DOCKED: REMARK  Name = 
DOCKED: REMARK  5 active torsions:
DOCKED: REMARK  status: ('A' for Active; 'I' for Inactive)
DOCKED: REMARK    1  A    between atoms: S_2  and  N_3
DOCKED: REMARK    2  A    between atoms: S_2  and  C_10
DOCKED: REMARK    3  A    between atoms: N_3  and  C_4
DOCKED: REMARK    4  A    between atoms: C_12  and  C_13
DOCKED: REMARK    5  A    between atoms: C_14  and  C_15
DOCKED: REMARK                            x       y       z     vdW  Elec       q    Type
DOCKED: REMARK                         _______ _______ _______ _____ _____    ______ ____
DOCKED: USER                              x       y       z     vdW  Elec       q    Type
DOCKED: USER                           _______ _______ _______ _____ _____    ______ ____
DOCKED: ROOT
DOCKED: ATOM      1  C   UNL     1      26.849 -16.020  -2.884 -0.32 -0.00    +0.000 A 
DOCKED: ATOM      2  C   UNL     1      25.487 -16.263  -2.660 -0.49 -0.00    +0.000 A 
DOCKED: ATOM      3  C   UNL     1      25.047 -16.798  -1.431 -0.56 -0.00    +0.000 A 
DOCKED: ATOM      4  C   UNL     1      26.000 -17.097  -0.443 -0.50 -0.00    +0.000 A 
DOCKED: ATOM      5  C   UNL     1      27.356 -16.846  -0.664 -0.40 -0.00    +0.000 A 
DOCKED: ATOM      6  C   UNL     1      27.781 -16.306  -1.878 -0.30 -0.00    +0.000 A 
DOCKED: ENDROOT
DOCKED: BRANCH   1   8
DOCKED: ATOM      7  O   UNL     1      26.348 -15.606  -5.493 -1.20 +0.00    +0.000 OA
DOCKED: ATOM      8  S   UNL     1      27.387 -15.372  -4.432 -0.51 -0.00    +0.000 S 
DOCKED: ATOM      9  O   UNL     1      28.659 -16.066  -4.829 -0.41 -0.00    +0.000 OA
DOCKED: BRANCH   8  10
DOCKED: ATOM     10  N   UNL     1      27.683 -13.667  -4.296 -0.21 -0.00    +0.000 N 
DOCKED: ATOM     11  H   UNL     1      28.427 -13.371  -3.722 +0.01 -0.00    +0.000 HD
DOCKED: BRANCH  10  12
DOCKED: ATOM     12  C   UNL     1      26.908 -12.661  -4.971 -0.23 -0.00    +0.000 A 
DOCKED: ATOM     13  C   UNL     1      27.367 -12.027  -6.143 -0.17 -0.00    +0.000 A 
DOCKED: ATOM     14  C   UNL     1      26.581 -11.061  -6.778 -0.17 -0.00    +0.000 A 
DOCKED: ATOM     15  C   UNL     1      25.336 -10.711  -6.251 -0.29 -0.00    +0.000 A 
DOCKED: ATOM     16  C   UNL     1      24.875 -11.328  -5.086 -0.35 -0.00    +0.000 A 
DOCKED: ATOM     17  C   UNL     1      25.656 -12.295  -4.448 -0.31 -0.00    +0.000 A 
DOCKED: ENDBRANCH  10  12
DOCKED: ENDBRANCH   8  10
DOCKED: ENDBRANCH   1   8
DOCKED: BRANCH   3  18
DOCKED: ATOM     18  C   UNL     1      23.620 -17.096  -1.153 -0.66 -0.00    +0.000 C 
DOCKED: ATOM     19  C   UNL     1      23.021 -18.247  -1.493 -0.66 -0.00    +0.000 C 
DOCKED: BRANCH  19  20
DOCKED: ATOM     20  C   UNL     1      21.599 -18.538  -1.212 -0.60 -0.00    +0.000 C 
DOCKED: ATOM     21  N   UNL     1      20.881 -19.580  -1.885 -0.66 -0.00    +0.000 N 
DOCKED: ATOM     22  O   UNL     1      19.555 -19.736  -1.669 -2.15 -0.00    +0.000 OA
DOCKED: ATOM     23  O   UNL     1      21.010 -17.856  -0.330 -1.92 +0.00    +0.000 OA
DOCKED: ATOM     24  H   UNL     1      21.354 -20.181  -2.505 -0.58 -0.00    +0.000 HD
DOCKED: ENDBRANCH  19  20
DOCKED: ENDBRANCH   3  18
DOCKED: TORSDOF 5
DOCKED: TER
DOCKED: ENDMDL
________________________________________________________________________________


	BEGINNING GENETIC ALGORITHM DOCKING 49 of 100
Run: 49 Seed: 158218601 1765992294 [ Run 49 of 100 GA/GALS ]
Beginning LAMARCKIAN GENETIC ALGORITHM (LGA), with a maximum of 2500000 energy evaluations.

Final-Value: -15.300


	FINAL GENETIC ALGORITHM DOCKED STATE
	_______________________________________________


Detailed state:  trans 24.100 -17.468 -2.798 quatxyzw 0.533480 -0.374519 0.728272 -0.211550 center 0.230 -0.012 -0.200 ntor 5 -54.3285 124.4010 26.0501 158.1484 -156.2729
State:	 24.100 -17.468  -2.798   0.546 -0.383  0.745 -155.574    -54.33  124.40   26.05  158.15 -156.27

DOCKED: MODEL       49
DOCKED: USER    Run = 49
DOCKED: USER    DPF = ligand_dock.biased.dpf
DOCKED: USER  
DOCKED: USER    Estimated Free Energy of Binding    =  -12.77 kcal/mol  [=(1)+(2)+(3)-(4)]
DOCKED: USER    Estimated Inhibition Constant, Ki   =  438.45 pM (picomolar)  [Temperature = 298.15 K]
DOCKED: USER    
DOCKED: USER    (1) Final Intermolecular Energy     =  -14.26 kcal/mol
DOCKED: USER        vdW + Hbond + desolv Energy     =  -14.26 kcal/mol
DOCKED: USER        Electrostatic Energy            =   +0.00 kcal/mol
DOCKED: USER    (2) Final Total Internal Energy     =   -1.04 kcal/mol
DOCKED: USER    (3) Torsional Free Energy           =   +1.49 kcal/mol
DOCKED: USER    (4) Unbound System's Energy  [=(2)] =   -1.04 kcal/mol
DOCKED: USER    
DOCKED: USER    
DOCKED: USER    NEWDPF move ligand.pdbqt
DOCKED: USER    NEWDPF about 0.230000 -0.012000 -0.200000
DOCKED: USER    NEWDPF tran0 24.100088 -17.467828 -2.797856
DOCKED: USER    NEWDPF quaternion0 0.533480 -0.374519 0.728272 -0.211550
DOCKED: USER    NEWDPF axisangle0 0.545834 -0.383192 0.745137 -155.573545
DOCKED: USER    NEWDPF quat0 0.545834 -0.383192 0.745137 -155.573545
DOCKED: USER    NEWDPF dihe0 -54.33 124.40 26.05 158.15 -156.27 
DOCKED: USER  keepresnum = 1 
DOCKED: USER  
DOCKED: REMARK  Name = 
DOCKED: REMARK  5 active torsions:
DOCKED: REMARK  status: ('A' for Active; 'I' for Inactive)
DOCKED: REMARK    1  A    between atoms: S_2  and  N_3
DOCKED: REMARK    2  A    between atoms: S_2  and  C_10
DOCKED: REMARK    3  A    between atoms: N_3  and  C_4
DOCKED: REMARK    4  A    between atoms: C_12  and  C_13
DOCKED: REMARK    5  A    between atoms: C_14  and  C_15
DOCKED: REMARK                            x       y       z     vdW  Elec       q    Type
DOCKED: REMARK                         _______ _______ _______ _____ _____    ______ ____
DOCKED: USER                              x       y       z     vdW  Elec       q    Type
DOCKED: USER                           _______ _______ _______ _____ _____    ______ ____
DOCKED: ROOT
DOCKED: ATOM      1  C   UNL     1      25.849 -16.183  -2.580 -0.46 -0.00    +0.000 A 
DOCKED: ATOM      2  C   UNL     1      24.654 -16.762  -2.131 -0.42 -0.00    +0.000 A 
DOCKED: ATOM      3  C   UNL     1      24.645 -17.593  -0.992 -0.64 -0.00    +0.000 A 
DOCKED: ATOM      4  C   UNL     1      25.856 -17.844  -0.327 -0.59 -0.00    +0.000 A 
DOCKED: ATOM      5  C   UNL     1      27.045 -17.260  -0.770 -0.45 -0.00    +0.000 A 
DOCKED: ATOM      6  C   UNL     1      27.043 -16.428  -1.891 -0.35 -0.00    +0.000 A 
DOCKED: ENDROOT
DOCKED: BRANCH   1   8
DOCKED: ATOM      7  O   UNL     1      24.760 -14.131  -3.936 -1.07 -0.00    +0.000 OA
DOCKED: ATOM      8  S   UNL     1      25.850 -15.164  -4.018 -0.73 -0.00    +0.000 S 
DOCKED: ATOM      9  O   UNL     1      25.616 -16.029  -5.222 -1.04 +0.00    +0.000 OA
DOCKED: BRANCH   8  10
DOCKED: ATOM     10  N   UNL     1      27.380 -14.359  -4.180 -0.29 -0.00    +0.000 N 
DOCKED: ATOM     11  H   UNL     1      27.574 -13.609  -3.572 +0.00 -0.00    +0.000 HD
DOCKED: BRANCH  10  12
DOCKED: ATOM     12  C   UNL     1      28.381 -14.723  -5.147 -0.31 -0.00    +0.000 A 
DOCKED: ATOM     13  C   UNL     1      28.724 -13.876  -6.219 -0.28 -0.00    +0.000 A 
DOCKED: ATOM     14  C   UNL     1      29.710 -14.259  -7.134 -0.27 -0.00    +0.000 A 
DOCKED: ATOM     15  C   UNL     1      30.357 -15.489  -6.995 -0.28 -0.00    +0.000 A 
DOCKED: ATOM     16  C   UNL     1      30.019 -16.339  -5.940 -0.30 -0.00    +0.000 A 
DOCKED: ATOM     17  C   UNL     1      29.035 -15.960  -5.023 -0.30 -0.00    +0.000 A 
DOCKED: ENDBRANCH  10  12
DOCKED: ENDBRANCH   8  10
DOCKED: ENDBRANCH   1   8
DOCKED: BRANCH   3  18
DOCKED: ATOM     18  C   UNL     1      23.411 -18.249  -0.491 -0.81 -0.00    +0.000 C 
DOCKED: ATOM     19  C   UNL     1      22.221 -18.162  -1.103 -0.72 -0.00    +0.000 C 
DOCKED: BRANCH  19  20
DOCKED: ATOM     20  C   UNL     1      20.997 -18.820  -0.598 -0.85 -0.00    +0.000 C 
DOCKED: ATOM     21  N   UNL     1      21.021 -20.108   0.029 -0.63 -0.00    +0.000 N 
DOCKED: ATOM     22  O   UNL     1      19.862 -20.713   0.378 -0.96 -0.00    +0.000 OA
DOCKED: ATOM     23  O   UNL     1      19.900 -18.209  -0.706 -1.90 -0.00    +0.000 OA
DOCKED: ATOM     24  H   UNL     1      21.881 -20.553   0.205 -0.59 -0.00    +0.000 HD
DOCKED: ENDBRANCH  19  20
DOCKED: ENDBRANCH   3  18
DOCKED: TORSDOF 5
DOCKED: TER
DOCKED: ENDMDL
________________________________________________________________________________


	BEGINNING GENETIC ALGORITHM DOCKING 50 of 100
Run: 50 Seed: 1081291604 482784943 [ Run 50 of 100 GA/GALS ]
Beginning LAMARCKIAN GENETIC ALGORITHM (LGA), with a maximum of 2500000 energy evaluations.

Final-Value: -15.062


	FINAL GENETIC ALGORITHM DOCKED STATE
	_______________________________________________


Detailed state:  trans 23.780 -17.055 -2.812 quatxyzw -0.493846 0.431149 -0.699208 0.285192 center 0.230 -0.012 -0.200 ntor 5 -126.4766 113.3939 101.3978 172.2243 -164.0357
State:	 23.780 -17.055  -2.812  -0.515  0.450 -0.730 146.859   -126.48  113.39  101.40  172.22 -164.04

DOCKED: MODEL       50
DOCKED: USER    Run = 50
DOCKED: USER    DPF = ligand_dock.biased.dpf
DOCKED: USER  
DOCKED: USER    Estimated Free Energy of Binding    =  -12.59 kcal/mol  [=(1)+(2)+(3)-(4)]
DOCKED: USER    Estimated Inhibition Constant, Ki   =  594.13 pM (picomolar)  [Temperature = 298.15 K]
DOCKED: USER    
DOCKED: USER    (1) Final Intermolecular Energy     =  -14.08 kcal/mol
DOCKED: USER        vdW + Hbond + desolv Energy     =  -14.08 kcal/mol
DOCKED: USER        Electrostatic Energy            =   +0.00 kcal/mol
DOCKED: USER    (2) Final Total Internal Energy     =   -0.98 kcal/mol
DOCKED: USER    (3) Torsional Free Energy           =   +1.49 kcal/mol
DOCKED: USER    (4) Unbound System's Energy  [=(2)] =   -0.98 kcal/mol
DOCKED: USER    
DOCKED: USER    
DOCKED: USER    NEWDPF move ligand.pdbqt
DOCKED: USER    NEWDPF about 0.230000 -0.012000 -0.200000
DOCKED: USER    NEWDPF tran0 23.780444 -17.055025 -2.812340
DOCKED: USER    NEWDPF quaternion0 -0.493846 0.431149 -0.699208 0.285192
DOCKED: USER    NEWDPF axisangle0 -0.515244 0.449831 -0.729504 146.859381
DOCKED: USER    NEWDPF quat0 -0.515244 0.449831 -0.729504 146.859381
DOCKED: USER    NEWDPF dihe0 -126.48 113.39 101.40 172.22 -164.04 
DOCKED: USER  keepresnum = 1 
DOCKED: USER  
DOCKED: REMARK  Name = 
DOCKED: REMARK  5 active torsions:
DOCKED: REMARK  status: ('A' for Active; 'I' for Inactive)
DOCKED: REMARK    1  A    between atoms: S_2  and  N_3
DOCKED: REMARK    2  A    between atoms: S_2  and  C_10
DOCKED: REMARK    3  A    between atoms: N_3  and  C_4
DOCKED: REMARK    4  A    between atoms: C_12  and  C_13
DOCKED: REMARK    5  A    between atoms: C_14  and  C_15
DOCKED: REMARK                            x       y       z     vdW  Elec       q    Type
DOCKED: REMARK                         _______ _______ _______ _____ _____    ______ ____
DOCKED: USER                              x       y       z     vdW  Elec       q    Type
DOCKED: USER                           _______ _______ _______ _____ _____    ______ ____
DOCKED: ROOT
DOCKED: ATOM      1  C   UNL     1      25.760 -16.165  -2.593 -0.47 -0.00    +0.000 A 
DOCKED: ATOM      2  C   UNL     1      24.472 -16.486  -2.143 -0.24 -0.00    +0.000 A 
DOCKED: ATOM      3  C   UNL     1      24.293 -17.308  -1.011 -0.63 -0.00    +0.000 A 
DOCKED: ATOM      4  C   UNL     1      25.428 -17.812  -0.354 -0.61 -0.00    +0.000 A 
DOCKED: ATOM      5  C   UNL     1      26.711 -17.484  -0.799 -0.49 -0.00    +0.000 A 
DOCKED: ATOM      6  C   UNL     1      26.879 -16.660  -1.912 -0.37 -0.00    +0.000 A 
DOCKED: ENDROOT
DOCKED: BRANCH   1   8
DOCKED: ATOM      7  O   UNL     1      24.983 -14.019  -4.016 -0.95 -0.00    +0.000 OA
DOCKED: ATOM      8  S   UNL     1      25.968 -15.155  -4.022 -0.72 -0.00    +0.000 S 
DOCKED: ATOM      9  O   UNL     1      25.738 -15.997  -5.245 -1.09 +0.00    +0.000 OA
DOCKED: BRANCH   8  10
DOCKED: ATOM     10  N   UNL     1      27.578 -14.507  -4.067 -0.27 -0.00    +0.000 N 
DOCKED: ATOM     11  H   UNL     1      27.868 -13.937  -3.319 +0.01 -0.00    +0.000 HD
DOCKED: BRANCH  10  12
DOCKED: ATOM     12  C   UNL     1      28.514 -14.754  -5.132 -0.30 -0.00    +0.000 A 
DOCKED: ATOM     13  C   UNL     1      28.764 -13.802  -6.140 -0.26 -0.00    +0.000 A 
DOCKED: ATOM     14  C   UNL     1      29.689 -14.073  -7.153 -0.26 -0.00    +0.000 A 
DOCKED: ATOM     15  C   UNL     1      30.368 -15.294  -7.176 -0.27 -0.00    +0.000 A 
DOCKED: ATOM     16  C   UNL     1      30.122 -16.247  -6.186 -0.30 -0.00    +0.000 A 
DOCKED: ATOM     17  C   UNL     1      29.199 -15.980  -5.171 -0.30 -0.00    +0.000 A 
DOCKED: ENDBRANCH  10  12
DOCKED: ENDBRANCH   8  10
DOCKED: ENDBRANCH   1   8
DOCKED: BRANCH   3  18
DOCKED: ATOM     18  C   UNL     1      22.952 -17.697  -0.508 -0.78 -0.00    +0.000 C 
DOCKED: ATOM     19  C   UNL     1      22.201 -18.662  -1.060 -0.82 -0.00    +0.000 C 
DOCKED: BRANCH  19  20
DOCKED: ATOM     20  C   UNL     1      20.867 -19.044  -0.553 -0.88 -0.00    +0.000 C 
DOCKED: ATOM     21  N   UNL     1      20.631 -20.284   0.126 -0.67 -0.00    +0.000 N 
DOCKED: ATOM     22  O   UNL     1      19.372 -20.635   0.476 -0.92 -0.00    +0.000 OA
DOCKED: ATOM     23  O   UNL     1      19.912 -18.236  -0.707 -1.91 -0.00    +0.000 OA
DOCKED: ATOM     24  H   UNL     1      21.385 -20.880   0.337 -0.57 -0.00    +0.000 HD
DOCKED: ENDBRANCH  19  20
DOCKED: ENDBRANCH   3  18
DOCKED: TORSDOF 5
DOCKED: TER
DOCKED: ENDMDL
________________________________________________________________________________


	BEGINNING GENETIC ALGORITHM DOCKING 51 of 100
Run: 51 Seed: 1455240598 1359516326 [ Run 51 of 100 GA/GALS ]
Beginning LAMARCKIAN GENETIC ALGORITHM (LGA), with a maximum of 2500000 energy evaluations.

Final-Value: -14.693


	FINAL GENETIC ALGORITHM DOCKED STATE
	_______________________________________________


Detailed state:  trans 24.055 -16.891 -3.032 quatxyzw -0.491379 0.422692 -0.701185 0.297013 center 0.230 -0.012 -0.200 ntor 5 -136.9717 127.3799 107.2050 180.0000 -174.6483
State:	 24.055 -16.891  -3.032  -0.515  0.443 -0.734 145.443   -136.97  127.38  107.21  180.00 -174.65

DOCKED: MODEL       51
DOCKED: USER    Run = 51
DOCKED: USER    DPF = ligand_dock.biased.dpf
DOCKED: USER  
DOCKED: USER    Estimated Free Energy of Binding    =  -12.24 kcal/mol  [=(1)+(2)+(3)-(4)]
DOCKED: USER    Estimated Inhibition Constant, Ki   =    1.07 nM (nanomolar)  [Temperature = 298.15 K]
DOCKED: USER    
DOCKED: USER    (1) Final Intermolecular Energy     =  -13.73 kcal/mol
DOCKED: USER        vdW + Hbond + desolv Energy     =  -13.73 kcal/mol
DOCKED: USER        Electrostatic Energy            =   +0.00 kcal/mol
DOCKED: USER    (2) Final Total Internal Energy     =   -0.96 kcal/mol
DOCKED: USER    (3) Torsional Free Energy           =   +1.49 kcal/mol
DOCKED: USER    (4) Unbound System's Energy  [=(2)] =   -0.96 kcal/mol
DOCKED: USER    
DOCKED: USER    
DOCKED: USER    NEWDPF move ligand.pdbqt
DOCKED: USER    NEWDPF about 0.230000 -0.012000 -0.200000
DOCKED: USER    NEWDPF tran0 24.054647 -16.890832 -3.032119
DOCKED: USER    NEWDPF quaternion0 -0.491379 0.422692 -0.701185 0.297013
DOCKED: USER    NEWDPF axisangle0 -0.514602 0.442668 -0.734323 145.443390
DOCKED: USER    NEWDPF quat0 -0.514602 0.442668 -0.734323 145.443390
DOCKED: USER    NEWDPF dihe0 -136.97 127.38 107.21 180.00 -174.65 
DOCKED: USER  keepresnum = 1 
DOCKED: USER  
DOCKED: REMARK  Name = 
DOCKED: REMARK  5 active torsions:
DOCKED: REMARK  status: ('A' for Active; 'I' for Inactive)
DOCKED: REMARK    1  A    between atoms: S_2  and  N_3
DOCKED: REMARK    2  A    between atoms: S_2  and  C_10
DOCKED: REMARK    3  A    between atoms: N_3  and  C_4
DOCKED: REMARK    4  A    between atoms: C_12  and  C_13
DOCKED: REMARK    5  A    between atoms: C_14  and  C_15
DOCKED: REMARK                            x       y       z     vdW  Elec       q    Type
DOCKED: REMARK                         _______ _______ _______ _____ _____    ______ ____
DOCKED: USER                              x       y       z     vdW  Elec       q    Type
DOCKED: USER                           _______ _______ _______ _____ _____    ______ ____
DOCKED: ROOT
DOCKED: ATOM      1  C   UNL     1      26.044 -16.014  -2.856 -0.44 -0.00    +0.000 A 
DOCKED: ATOM      2  C   UNL     1      24.757 -16.311  -2.385 -0.29 -0.00    +0.000 A 
DOCKED: ATOM      3  C   UNL     1      24.583 -17.101  -1.229 -0.60 -0.00    +0.000 A 
DOCKED: ATOM      4  C   UNL     1      25.719 -17.598  -0.570 -0.58 -0.00    +0.000 A 
DOCKED: ATOM      5  C   UNL     1      27.001 -17.294  -1.036 -0.44 -0.00    +0.000 A 
DOCKED: ATOM      6  C   UNL     1      27.165 -16.501  -2.173 -0.31 -0.00    +0.000 A 
DOCKED: ENDROOT
DOCKED: BRANCH   1   8
DOCKED: ATOM      7  O   UNL     1      25.118 -14.063  -4.458 -0.94 -0.00    +0.000 OA
DOCKED: ATOM      8  S   UNL     1      26.247 -15.044  -4.313 -0.69 -0.00    +0.000 S 
DOCKED: ATOM      9  O   UNL     1      26.258 -15.960  -5.503 -1.10 +0.00    +0.000 OA
DOCKED: BRANCH   8  10
DOCKED: ATOM     10  N   UNL     1      27.748 -14.174  -4.247 -0.24 -0.00    +0.000 N 
DOCKED: ATOM     11  H   UNL     1      27.931 -13.627  -3.449 +0.01 -0.00    +0.000 HD
DOCKED: BRANCH  10  12
DOCKED: ATOM     12  C   UNL     1      28.741 -14.204  -5.288 -0.24 -0.00    +0.000 A 
DOCKED: ATOM     13  C   UNL     1      29.081 -13.054  -6.028 -0.17 -0.00    +0.000 A 
DOCKED: ATOM     14  C   UNL     1      30.058 -13.119  -7.025 -0.16 -0.00    +0.000 A 
DOCKED: ATOM     15  C   UNL     1      30.702 -14.328  -7.300 -0.20 -0.00    +0.000 A 
DOCKED: ATOM     16  C   UNL     1      30.367 -15.475  -6.578 -0.27 -0.00    +0.000 A 
DOCKED: ATOM     17  C   UNL     1      29.391 -15.415  -5.579 -0.29 -0.00    +0.000 A 
DOCKED: ENDBRANCH  10  12
DOCKED: ENDBRANCH   8  10
DOCKED: ENDBRANCH   1   8
DOCKED: BRANCH   3  18
DOCKED: ATOM     18  C   UNL     1      23.243 -17.464  -0.704 -0.77 -0.00    +0.000 C 
DOCKED: ATOM     19  C   UNL     1      22.526 -18.507  -1.149 -0.79 -0.00    +0.000 C 
DOCKED: BRANCH  19  20
DOCKED: ATOM     20  C   UNL     1      21.193 -18.862  -0.620 -0.86 -0.00    +0.000 C 
DOCKED: ATOM     21  N   UNL     1      20.928 -20.123   0.008 -0.65 -0.00    +0.000 N 
DOCKED: ATOM     22  O   UNL     1      19.668 -20.443   0.380 -0.96 -0.00    +0.000 OA
DOCKED: ATOM     23  O   UNL     1      20.267 -18.012  -0.706 -2.20 -0.00    +0.000 OA
DOCKED: ATOM     24  H   UNL     1      21.665 -20.757   0.168 -0.55 -0.00    +0.000 HD
DOCKED: ENDBRANCH  19  20
DOCKED: ENDBRANCH   3  18
DOCKED: TORSDOF 5
DOCKED: TER
DOCKED: ENDMDL
________________________________________________________________________________


	BEGINNING GENETIC ALGORITHM DOCKING 52 of 100
Run: 52 Seed: 286834182 321526925 [ Run 52 of 100 GA/GALS ]
Beginning LAMARCKIAN GENETIC ALGORITHM (LGA), with a maximum of 2500000 energy evaluations.

Final-Value: -15.452


	FINAL GENETIC ALGORITHM DOCKED STATE
	_______________________________________________


Detailed state:  trans 23.970 -17.671 -2.818 quatxyzw 0.513820 -0.390261 0.742120 -0.181502 center 0.230 -0.012 -0.200 ntor 5 -16.2756 116.2445 48.1942 168.6133 -151.5610
State:	 23.970 -17.671  -2.818   0.522 -0.397  0.755 -159.086    -16.28  116.24   48.19  168.61 -151.56

DOCKED: MODEL       52
DOCKED: USER    Run = 52
DOCKED: USER    DPF = ligand_dock.biased.dpf
DOCKED: USER  
DOCKED: USER    Estimated Free Energy of Binding    =  -12.94 kcal/mol  [=(1)+(2)+(3)-(4)]
DOCKED: USER    Estimated Inhibition Constant, Ki   =  326.79 pM (picomolar)  [Temperature = 298.15 K]
DOCKED: USER    
DOCKED: USER    (1) Final Intermolecular Energy     =  -14.43 kcal/mol
DOCKED: USER        vdW + Hbond + desolv Energy     =  -14.43 kcal/mol
DOCKED: USER        Electrostatic Energy            =   +0.00 kcal/mol
DOCKED: USER    (2) Final Total Internal Energy     =   -1.02 kcal/mol
DOCKED: USER    (3) Torsional Free Energy           =   +1.49 kcal/mol
DOCKED: USER    (4) Unbound System's Energy  [=(2)] =   -1.02 kcal/mol
DOCKED: USER    
DOCKED: USER    
DOCKED: USER    NEWDPF move ligand.pdbqt
DOCKED: USER    NEWDPF about 0.230000 -0.012000 -0.200000
DOCKED: USER    NEWDPF tran0 23.969650 -17.670649 -2.818097
DOCKED: USER    NEWDPF quaternion0 0.513820 -0.390261 0.742120 -0.181502
DOCKED: USER    NEWDPF axisangle0 0.522499 -0.396852 0.754655 -159.085520
DOCKED: USER    NEWDPF quat0 0.522499 -0.396852 0.754655 -159.085520
DOCKED: USER    NEWDPF dihe0 -16.28 116.24 48.19 168.61 -151.56 
DOCKED: USER  keepresnum = 1 
DOCKED: USER  
DOCKED: REMARK  Name = 
DOCKED: REMARK  5 active torsions:
DOCKED: REMARK  status: ('A' for Active; 'I' for Inactive)
DOCKED: REMARK    1  A    between atoms: S_2  and  N_3
DOCKED: REMARK    2  A    between atoms: S_2  and  C_10
DOCKED: REMARK    3  A    between atoms: N_3  and  C_4
DOCKED: REMARK    4  A    between atoms: C_12  and  C_13
DOCKED: REMARK    5  A    between atoms: C_14  and  C_15
DOCKED: REMARK                            x       y       z     vdW  Elec       q    Type
DOCKED: REMARK                         _______ _______ _______ _____ _____    ______ ____
DOCKED: USER                              x       y       z     vdW  Elec       q    Type
DOCKED: USER                           _______ _______ _______ _____ _____    ______ ____
DOCKED: ROOT
DOCKED: ATOM      1  C   UNL     1      25.673 -16.366  -2.428 -0.48 -0.00    +0.000 A 
DOCKED: ATOM      2  C   UNL     1      24.460 -16.980  -2.088 -0.36 -0.00    +0.000 A 
DOCKED: ATOM      3  C   UNL     1      24.385 -17.853  -0.983 -0.68 -0.00    +0.000 A 
DOCKED: ATOM      4  C   UNL     1      25.550 -18.109  -0.240 -0.61 -0.00    +0.000 A 
DOCKED: ATOM      5  C   UNL     1      26.756 -17.488  -0.575 -0.50 -0.00    +0.000 A 
DOCKED: ATOM      6  C   UNL     1      26.819 -16.616  -1.663 -0.40 -0.00    +0.000 A 
DOCKED: ENDROOT
DOCKED: BRANCH   1   8
DOCKED: ATOM      7  O   UNL     1      24.717 -14.214  -3.727 -1.00 -0.00    +0.000 OA
DOCKED: ATOM      8  S   UNL     1      25.758 -15.294  -3.824 -0.71 -0.00    +0.000 S 
DOCKED: ATOM      9  O   UNL     1      25.513 -16.101  -5.067 -0.92 -0.00    +0.000 OA
DOCKED: BRANCH   8  10
DOCKED: ATOM     10  N   UNL     1      27.328 -14.559  -3.920 -0.29 -0.00    +0.000 N 
DOCKED: ATOM     11  H   UNL     1      27.603 -13.958  -3.190 +0.00 -0.00    +0.000 HD
DOCKED: BRANCH  10  12
DOCKED: ATOM     12  C   UNL     1      28.252 -14.775  -5.001 -0.31 -0.00    +0.000 A 
DOCKED: ATOM     13  C   UNL     1      28.469 -13.807  -6.002 -0.28 -0.00    +0.000 A 
DOCKED: ATOM     14  C   UNL     1      29.383 -14.048  -7.032 -0.29 -0.00    +0.000 A 
DOCKED: ATOM     15  C   UNL     1      30.084 -15.255  -7.080 -0.28 -0.00    +0.000 A 
DOCKED: ATOM     16  C   UNL     1      29.870 -16.224  -6.098 -0.31 -0.00    +0.000 A 
DOCKED: ATOM     17  C   UNL     1      28.958 -15.988  -5.066 -0.30 -0.00    +0.000 A 
DOCKED: ENDBRANCH  10  12
DOCKED: ENDBRANCH   8  10
DOCKED: ENDBRANCH   1   8
DOCKED: BRANCH   3  18
DOCKED: ATOM     18  C   UNL     1      23.131 -18.548  -0.597 -0.83 -0.00    +0.000 C 
DOCKED: ATOM     19  C   UNL     1      22.138 -18.824  -1.455 -0.65 -0.00    +0.000 C 
DOCKED: BRANCH  19  20
DOCKED: ATOM     20  C   UNL     1      20.894 -19.517  -1.063 -0.83 -0.00    +0.000 C 
DOCKED: ATOM     21  N   UNL     1      20.634 -19.923   0.287 -0.70 -0.00    +0.000 N 
DOCKED: ATOM     22  O   UNL     1      19.529 -20.648   0.575 -0.89 -0.00    +0.000 OA
DOCKED: ATOM     23  O   UNL     1      20.024 -19.736  -1.949 -2.37 -0.00    +0.000 OA
DOCKED: ATOM     24  H   UNL     1      21.260 -19.675   1.004 -0.45 -0.00    +0.000 HD
DOCKED: ENDBRANCH  19  20
DOCKED: ENDBRANCH   3  18
DOCKED: TORSDOF 5
DOCKED: TER
DOCKED: ENDMDL
________________________________________________________________________________


	BEGINNING GENETIC ALGORITHM DOCKING 53 of 100
Run: 53 Seed: 847976788 261163699 [ Run 53 of 100 GA/GALS ]
Beginning LAMARCKIAN GENETIC ALGORITHM (LGA), with a maximum of 2500000 energy evaluations.

Final-Value: -15.440


	FINAL GENETIC ALGORITHM DOCKED STATE
	_______________________________________________


Detailed state:  trans 24.138 -17.909 -2.989 quatxyzw -0.499465 0.361810 -0.781430 0.094852 center 0.230 -0.012 -0.200 ntor 5 43.8386 118.8717 -16.7173 178.2155 -145.3790
State:	 24.138 -17.909  -2.989  -0.502  0.363 -0.785 169.114     43.84  118.87  -16.72  178.22 -145.38

DOCKED: MODEL       53
DOCKED: USER    Run = 53
DOCKED: USER    DPF = ligand_dock.biased.dpf
DOCKED: USER  
DOCKED: USER    Estimated Free Energy of Binding    =  -12.96 kcal/mol  [=(1)+(2)+(3)-(4)]
DOCKED: USER    Estimated Inhibition Constant, Ki   =  317.94 pM (picomolar)  [Temperature = 298.15 K]
DOCKED: USER    
DOCKED: USER    (1) Final Intermolecular Energy     =  -14.45 kcal/mol
DOCKED: USER        vdW + Hbond + desolv Energy     =  -14.45 kcal/mol
DOCKED: USER        Electrostatic Energy            =   +0.00 kcal/mol
DOCKED: USER    (2) Final Total Internal Energy     =   -0.99 kcal/mol
DOCKED: USER    (3) Torsional Free Energy           =   +1.49 kcal/mol
DOCKED: USER    (4) Unbound System's Energy  [=(2)] =   -0.99 kcal/mol
DOCKED: USER    
DOCKED: USER    
DOCKED: USER    NEWDPF move ligand.pdbqt
DOCKED: USER    NEWDPF about 0.230000 -0.012000 -0.200000
DOCKED: USER    NEWDPF tran0 24.138128 -17.909371 -2.989411
DOCKED: USER    NEWDPF quaternion0 -0.499465 0.361810 -0.781430 0.094852
DOCKED: USER    NEWDPF axisangle0 -0.501727 0.363448 -0.784969 169.114426
DOCKED: USER    NEWDPF quat0 -0.501727 0.363448 -0.784969 169.114426
DOCKED: USER    NEWDPF dihe0 43.84 118.87 -16.72 178.22 -145.38 
DOCKED: USER  keepresnum = 1 
DOCKED: USER  
DOCKED: REMARK  Name = 
DOCKED: REMARK  5 active torsions:
DOCKED: REMARK  status: ('A' for Active; 'I' for Inactive)
DOCKED: REMARK    1  A    between atoms: S_2  and  N_3
DOCKED: REMARK    2  A    between atoms: S_2  and  C_10
DOCKED: REMARK    3  A    between atoms: N_3  and  C_4
DOCKED: REMARK    4  A    between atoms: C_12  and  C_13
DOCKED: REMARK    5  A    between atoms: C_14  and  C_15
DOCKED: REMARK                            x       y       z     vdW  Elec       q    Type
DOCKED: REMARK                         _______ _______ _______ _____ _____    ______ ____
DOCKED: USER                              x       y       z     vdW  Elec       q    Type
DOCKED: USER                           _______ _______ _______ _____ _____    ______ ____
DOCKED: ROOT
DOCKED: ATOM      1  C   UNL     1      25.552 -16.358  -2.397 -0.50 -0.00    +0.000 A 
DOCKED: ATOM      2  C   UNL     1      24.422 -17.165  -2.205 -0.30 -0.00    +0.000 A 
DOCKED: ATOM      3  C   UNL     1      24.359 -18.061  -1.118 -0.68 -0.00    +0.000 A 
DOCKED: ATOM      4  C   UNL     1      25.454 -18.142  -0.242 -0.61 -0.00    +0.000 A 
DOCKED: ATOM      5  C   UNL     1      26.576 -17.331  -0.430 -0.51 -0.00    +0.000 A 
DOCKED: ATOM      6  C   UNL     1      26.625 -16.438  -1.501 -0.41 -0.00    +0.000 A 
DOCKED: ENDROOT
DOCKED: BRANCH   1   8
DOCKED: ATOM      7  O   UNL     1      24.502 -14.262  -3.715 -0.96 -0.00    +0.000 OA
DOCKED: ATOM      8  S   UNL     1      25.627 -15.258  -3.772 -0.71 -0.00    +0.000 S 
DOCKED: ATOM      9  O   UNL     1      25.509 -16.059  -5.037 -0.92 -0.00    +0.000 OA
DOCKED: BRANCH   8  10
DOCKED: ATOM     10  N   UNL     1      27.139 -14.404  -3.774 -0.29 -0.00    +0.000 N 
DOCKED: ATOM     11  H   UNL     1      27.393 -13.913  -2.960 +0.00 -0.00    +0.000 HD
DOCKED: BRANCH  10  12
DOCKED: ATOM     12  C   UNL     1      28.042 -14.373  -4.893 -0.29 -0.00    +0.000 A 
DOCKED: ATOM     13  C   UNL     1      28.202 -13.223  -5.691 -0.22 -0.00    +0.000 A 
DOCKED: ATOM     14  C   UNL     1      29.098 -13.227  -6.764 -0.23 -0.00    +0.000 A 
DOCKED: ATOM     15  C   UNL     1      29.838 -14.375  -7.057 -0.27 -0.00    +0.000 A 
DOCKED: ATOM     16  C   UNL     1      29.682 -15.522  -6.277 -0.32 -0.00    +0.000 A 
DOCKED: ATOM     17  C   UNL     1      28.788 -15.523  -5.203 -0.32 -0.00    +0.000 A 
DOCKED: ENDBRANCH  10  12
DOCKED: ENDBRANCH   8  10
DOCKED: ENDBRANCH   1   8
DOCKED: BRANCH   3  18
DOCKED: ATOM     18  C   UNL     1      23.196 -18.954  -0.885 -0.81 -0.00    +0.000 C 
DOCKED: ATOM     19  C   UNL     1      21.922 -18.581  -1.071 -0.81 -0.00    +0.000 C 
DOCKED: BRANCH  19  20
DOCKED: ATOM     20  C   UNL     1      20.770 -19.477  -0.838 -0.87 -0.00    +0.000 C 
DOCKED: ATOM     21  N   UNL     1      20.478 -20.033   0.450 -0.69 -0.00    +0.000 N 
DOCKED: ATOM     22  O   UNL     1      19.476 -20.930   0.589 -0.86 -0.00    +0.000 OA
DOCKED: ATOM     23  O   UNL     1      20.007 -19.738  -1.807 -2.38 -0.00    +0.000 OA
DOCKED: ATOM     24  H   UNL     1      21.008 -19.761   1.234 -0.50 -0.00    +0.000 HD
DOCKED: ENDBRANCH  19  20
DOCKED: ENDBRANCH   3  18
DOCKED: TORSDOF 5
DOCKED: TER
DOCKED: ENDMDL
________________________________________________________________________________


	BEGINNING GENETIC ALGORITHM DOCKING 54 of 100
Run: 54 Seed: 1516944003 1155984096 [ Run 54 of 100 GA/GALS ]
Beginning LAMARCKIAN GENETIC ALGORITHM (LGA), with a maximum of 2500000 energy evaluations.

Final-Value: -15.203


	FINAL GENETIC ALGORITHM DOCKED STATE
	_______________________________________________


Detailed state:  trans 24.095 -17.932 -2.990 quatxyzw -0.473061 0.369788 -0.791903 0.111172 center 0.230 -0.012 -0.200 ntor 5 84.7152 -78.3537 -39.8771 172.8289 -140.0747
State:	 24.095 -17.932  -2.990  -0.476  0.372 -0.797 167.234     84.72  -78.35  -39.88  172.83 -140.07

DOCKED: MODEL       54
DOCKED: USER    Run = 54
DOCKED: USER    DPF = ligand_dock.biased.dpf
DOCKED: USER  
DOCKED: USER    Estimated Free Energy of Binding    =  -12.73 kcal/mol  [=(1)+(2)+(3)-(4)]
DOCKED: USER    Estimated Inhibition Constant, Ki   =  465.59 pM (picomolar)  [Temperature = 298.15 K]
DOCKED: USER    
DOCKED: USER    (1) Final Intermolecular Energy     =  -14.22 kcal/mol
DOCKED: USER        vdW + Hbond + desolv Energy     =  -14.22 kcal/mol
DOCKED: USER        Electrostatic Energy            =   +0.00 kcal/mol
DOCKED: USER    (2) Final Total Internal Energy     =   -0.98 kcal/mol
DOCKED: USER    (3) Torsional Free Energy           =   +1.49 kcal/mol
DOCKED: USER    (4) Unbound System's Energy  [=(2)] =   -0.98 kcal/mol
DOCKED: USER    
DOCKED: USER    
DOCKED: USER    NEWDPF move ligand.pdbqt
DOCKED: USER    NEWDPF about 0.230000 -0.012000 -0.200000
DOCKED: USER    NEWDPF tran0 24.094651 -17.931664 -2.989803
DOCKED: USER    NEWDPF quaternion0 -0.473061 0.369788 -0.791903 0.111172
DOCKED: USER    NEWDPF axisangle0 -0.476012 0.372094 -0.796843 167.234269
DOCKED: USER    NEWDPF quat0 -0.476012 0.372094 -0.796843 167.234269
DOCKED: USER    NEWDPF dihe0 84.72 -78.35 -39.88 172.83 -140.07 
DOCKED: USER  keepresnum = 1 
DOCKED: USER  
DOCKED: REMARK  Name = 
DOCKED: REMARK  5 active torsions:
DOCKED: REMARK  status: ('A' for Active; 'I' for Inactive)
DOCKED: REMARK    1  A    between atoms: S_2  and  N_3
DOCKED: REMARK    2  A    between atoms: S_2  and  C_10
DOCKED: REMARK    3  A    between atoms: N_3  and  C_4
DOCKED: REMARK    4  A    between atoms: C_12  and  C_13
DOCKED: REMARK    5  A    between atoms: C_14  and  C_15
DOCKED: REMARK                            x       y       z     vdW  Elec       q    Type
DOCKED: REMARK                         _______ _______ _______ _____ _____    ______ ____
DOCKED: USER                              x       y       z     vdW  Elec       q    Type
DOCKED: USER                           _______ _______ _______ _____ _____    ______ ____
DOCKED: ROOT
DOCKED: ATOM      1  C   UNL     1      25.560 -16.443  -2.363 -0.49 -0.00    +0.000 A 
DOCKED: ATOM      2  C   UNL     1      24.384 -17.189  -2.206 -0.28 -0.00    +0.000 A 
DOCKED: ATOM      3  C   UNL     1      24.230 -18.062  -1.109 -0.68 -0.00    +0.000 A 
DOCKED: ATOM      4  C   UNL     1      25.283 -18.182  -0.187 -0.61 -0.00    +0.000 A 
DOCKED: ATOM      5  C   UNL     1      26.452 -17.432  -0.339 -0.52 -0.00    +0.000 A 
DOCKED: ATOM      6  C   UNL     1      26.590 -16.561  -1.421 -0.42 -0.00    +0.000 A 
DOCKED: ENDROOT
DOCKED: BRANCH   1   8
DOCKED: ATOM      7  O   UNL     1      24.754 -14.245  -3.687 -0.98 -0.00    +0.000 OA
DOCKED: ATOM      8  S   UNL     1      25.747 -15.372  -3.750 -0.71 -0.00    +0.000 S 
DOCKED: ATOM      9  O   UNL     1      25.511 -16.164  -5.005 -0.86 -0.00    +0.000 OA
DOCKED: BRANCH   8  10
DOCKED: ATOM     10  N   UNL     1      27.352 -14.711  -3.784 -0.29 -0.00    +0.000 N 
DOCKED: ATOM     11  H   UNL     1      27.649 -14.178  -3.011 +0.01 -0.00    +0.000 HD
DOCKED: BRANCH  10  12
DOCKED: ATOM     12  C   UNL     1      28.275 -14.896  -4.872 -0.31 -0.00    +0.000 A 
DOCKED: ATOM     13  C   UNL     1      29.176 -15.979  -4.910 -0.29 -0.00    +0.000 A 
DOCKED: ATOM     14  C   UNL     1      30.051 -16.131  -5.990 -0.29 -0.00    +0.000 A 
DOCKED: ATOM     15  C   UNL     1      30.042 -15.207  -7.037 -0.28 -0.00    +0.000 A 
DOCKED: ATOM     16  C   UNL     1      29.158 -14.127  -7.005 -0.31 -0.00    +0.000 A 
DOCKED: ATOM     17  C   UNL     1      28.281 -13.970  -5.929 -0.29 -0.00    +0.000 A 
DOCKED: ENDBRANCH  10  12
DOCKED: ENDBRANCH   8  10
DOCKED: ENDBRANCH   1   8
DOCKED: BRANCH   3  18
DOCKED: ATOM     18  C   UNL     1      23.015 -18.891  -0.911 -0.82 -0.00    +0.000 C 
DOCKED: ATOM     19  C   UNL     1      21.790 -18.382  -0.715 -0.85 -0.00    +0.000 C 
DOCKED: BRANCH  19  20
DOCKED: ATOM     20  C   UNL     1      20.585 -19.214  -0.520 -0.88 -0.00    +0.000 C 
DOCKED: ATOM     21  N   UNL     1      19.999 -19.427   0.771 -0.66 -0.00    +0.000 N 
DOCKED: ATOM     22  O   UNL     1      18.961 -20.282   0.911 -0.80 -0.00    +0.000 OA
DOCKED: ATOM     23  O   UNL     1      20.045 -19.735  -1.533 -2.28 -0.00    +0.000 OA
DOCKED: ATOM     24  H   UNL     1      20.354 -18.950   1.555 -0.31 -0.00    +0.000 HD
DOCKED: ENDBRANCH  19  20
DOCKED: ENDBRANCH   3  18
DOCKED: TORSDOF 5
DOCKED: TER
DOCKED: ENDMDL
________________________________________________________________________________


	BEGINNING GENETIC ALGORITHM DOCKING 55 of 100
Run: 55 Seed: 525993258 533766764 [ Run 55 of 100 GA/GALS ]
Beginning LAMARCKIAN GENETIC ALGORITHM (LGA), with a maximum of 2500000 energy evaluations.

Final-Value: -15.360


	FINAL GENETIC ALGORITHM DOCKED STATE
	_______________________________________________


Detailed state:  trans 23.977 -17.584 -2.880 quatxyzw 0.538420 -0.403578 0.713040 -0.196980 center 0.230 -0.012 -0.200 ntor 5 -8.6389 -58.7295 49.1114 162.4450 -157.5576
State:	 23.977 -17.584  -2.880   0.549 -0.412  0.727 -157.279     -8.64  -58.73   49.11  162.44 -157.56

DOCKED: MODEL       55
DOCKED: USER    Run = 55
DOCKED: USER    DPF = ligand_dock.biased.dpf
DOCKED: USER  
DOCKED: USER    Estimated Free Energy of Binding    =  -12.84 kcal/mol  [=(1)+(2)+(3)-(4)]
DOCKED: USER    Estimated Inhibition Constant, Ki   =  386.92 pM (picomolar)  [Temperature = 298.15 K]
DOCKED: USER    
DOCKED: USER    (1) Final Intermolecular Energy     =  -14.33 kcal/mol
DOCKED: USER        vdW + Hbond + desolv Energy     =  -14.33 kcal/mol
DOCKED: USER        Electrostatic Energy            =   +0.00 kcal/mol
DOCKED: USER    (2) Final Total Internal Energy     =   -1.03 kcal/mol
DOCKED: USER    (3) Torsional Free Energy           =   +1.49 kcal/mol
DOCKED: USER    (4) Unbound System's Energy  [=(2)] =   -1.03 kcal/mol
DOCKED: USER    
DOCKED: USER    
DOCKED: USER    NEWDPF move ligand.pdbqt
DOCKED: USER    NEWDPF about 0.230000 -0.012000 -0.200000
DOCKED: USER    NEWDPF tran0 23.976518 -17.584447 -2.879553
DOCKED: USER    NEWDPF quaternion0 0.538420 -0.403578 0.713040 -0.196980
DOCKED: USER    NEWDPF axisangle0 0.549180 -0.411643 0.727290 -157.279124
DOCKED: USER    NEWDPF quat0 0.549180 -0.411643 0.727290 -157.279124
DOCKED: USER    NEWDPF dihe0 -8.64 -58.73 49.11 162.44 -157.56 
DOCKED: USER  keepresnum = 1 
DOCKED: USER  
DOCKED: REMARK  Name = 
DOCKED: REMARK  5 active torsions:
DOCKED: REMARK  status: ('A' for Active; 'I' for Inactive)
DOCKED: REMARK    1  A    between atoms: S_2  and  N_3
DOCKED: REMARK    2  A    between atoms: S_2  and  C_10
DOCKED: REMARK    3  A    between atoms: N_3  and  C_4
DOCKED: REMARK    4  A    between atoms: C_12  and  C_13
DOCKED: REMARK    5  A    between atoms: C_14  and  C_15
DOCKED: REMARK                            x       y       z     vdW  Elec       q    Type
DOCKED: REMARK                         _______ _______ _______ _____ _____    ______ ____
DOCKED: USER                              x       y       z     vdW  Elec       q    Type
DOCKED: USER                           _______ _______ _______ _____ _____    ______ ____
DOCKED: ROOT
DOCKED: ATOM      1  C   UNL     1      25.742 -16.340  -2.572 -0.47 -0.00    +0.000 A 
DOCKED: ATOM      2  C   UNL     1      24.539 -16.934  -2.165 -0.35 -0.00    +0.000 A 
DOCKED: ATOM      3  C   UNL     1      24.519 -17.845  -1.088 -0.67 -0.00    +0.000 A 
DOCKED: ATOM      4  C   UNL     1      25.727 -18.158  -0.443 -0.60 -0.00    +0.000 A 
DOCKED: ATOM      5  C   UNL     1      26.924 -17.558  -0.844 -0.46 -0.00    +0.000 A 
DOCKED: ATOM      6  C   UNL     1      26.932 -16.649  -1.903 -0.36 -0.00    +0.000 A 
DOCKED: ENDROOT
DOCKED: BRANCH   1   8
DOCKED: ATOM      7  O   UNL     1      24.659 -14.203  -3.792 -1.01 -0.00    +0.000 OA
DOCKED: ATOM      8  S   UNL     1      25.755 -15.221  -3.933 -0.72 -0.00    +0.000 S 
DOCKED: ATOM      9  O   UNL     1      25.542 -16.000  -5.199 -1.05 -0.00    +0.000 OA
DOCKED: BRANCH   8  10
DOCKED: ATOM     10  N   UNL     1      27.283 -14.400  -4.017 -0.29 -0.00    +0.000 N 
DOCKED: ATOM     11  H   UNL     1      27.491 -13.739  -3.317 +0.00 -0.00    +0.000 HD
DOCKED: BRANCH  10  12
DOCKED: ATOM     12  C   UNL     1      28.262 -14.626  -5.046 -0.31 -0.00    +0.000 A 
DOCKED: ATOM     13  C   UNL     1      29.001 -15.823  -5.122 -0.30 -0.00    +0.000 A 
DOCKED: ATOM     14  C   UNL     1      29.937 -16.012  -6.143 -0.31 -0.00    +0.000 A 
DOCKED: ATOM     15  C   UNL     1      30.150 -15.012  -7.094 -0.27 -0.00    +0.000 A 
DOCKED: ATOM     16  C   UNL     1      29.427 -13.819  -7.025 -0.27 -0.00    +0.000 A 
DOCKED: ATOM     17  C   UNL     1      28.490 -13.626  -6.006 -0.26 -0.00    +0.000 A 
DOCKED: ENDBRANCH  10  12
DOCKED: ENDBRANCH   8  10
DOCKED: ENDBRANCH   1   8
DOCKED: BRANCH   3  18
DOCKED: ATOM     18  C   UNL     1      23.277 -18.520  -0.633 -0.82 -0.00    +0.000 C 
DOCKED: ATOM     19  C   UNL     1      22.224 -18.753  -1.430 -0.65 -0.00    +0.000 C 
DOCKED: BRANCH  19  20
DOCKED: ATOM     20  C   UNL     1      20.991 -19.427  -0.971 -0.86 -0.00    +0.000 C 
DOCKED: ATOM     21  N   UNL     1      20.743 -19.714   0.411 -0.68 -0.00    +0.000 N 
DOCKED: ATOM     22  O   UNL     1      19.650 -20.426   0.769 -0.82 -0.00    +0.000 OA
DOCKED: ATOM     23  O   UNL     1      20.121 -19.736  -1.829 -2.38 -0.00    +0.000 OA
DOCKED: ATOM     24  H   UNL     1      21.368 -19.393   1.100 -0.42 -0.00    +0.000 HD
DOCKED: ENDBRANCH  19  20
DOCKED: ENDBRANCH   3  18
DOCKED: TORSDOF 5
DOCKED: TER
DOCKED: ENDMDL
________________________________________________________________________________


	BEGINNING GENETIC ALGORITHM DOCKING 56 of 100
Run: 56 Seed: 27653840 429771655 [ Run 56 of 100 GA/GALS ]
Beginning LAMARCKIAN GENETIC ALGORITHM (LGA), with a maximum of 2500000 energy evaluations.

Final-Value: -15.363


	FINAL GENETIC ALGORITHM DOCKED STATE
	_______________________________________________


Detailed state:  trans 24.209 -18.056 -2.993 quatxyzw 0.469879 -0.356680 0.803040 -0.084383 center 0.230 -0.012 -0.200 ntor 5 60.7402 -78.8495 -38.1286 167.2737 -137.1439
State:	 24.209 -18.056  -2.993   0.472 -0.358  0.806 -170.319     60.74  -78.85  -38.13  167.27 -137.14

DOCKED: MODEL       56
DOCKED: USER    Run = 56
DOCKED: USER    DPF = ligand_dock.biased.dpf
DOCKED: USER  
DOCKED: USER    Estimated Free Energy of Binding    =  -12.88 kcal/mol  [=(1)+(2)+(3)-(4)]
DOCKED: USER    Estimated Inhibition Constant, Ki   =  364.71 pM (picomolar)  [Temperature = 298.15 K]
DOCKED: USER    
DOCKED: USER    (1) Final Intermolecular Energy     =  -14.37 kcal/mol
DOCKED: USER        vdW + Hbond + desolv Energy     =  -14.37 kcal/mol
DOCKED: USER        Electrostatic Energy            =   +0.00 kcal/mol
DOCKED: USER    (2) Final Total Internal Energy     =   -1.00 kcal/mol
DOCKED: USER    (3) Torsional Free Energy           =   +1.49 kcal/mol
DOCKED: USER    (4) Unbound System's Energy  [=(2)] =   -1.00 kcal/mol
DOCKED: USER    
DOCKED: USER    
DOCKED: USER    NEWDPF move ligand.pdbqt
DOCKED: USER    NEWDPF about 0.230000 -0.012000 -0.200000
DOCKED: USER    NEWDPF tran0 24.209120 -18.056242 -2.993214
DOCKED: USER    NEWDPF quaternion0 0.469879 -0.356680 0.803040 -0.084383
DOCKED: USER    NEWDPF axisangle0 0.471561 -0.357956 0.805914 -170.318900
DOCKED: USER    NEWDPF quat0 0.471561 -0.357956 0.805914 -170.318900
DOCKED: USER    NEWDPF dihe0 60.74 -78.85 -38.13 167.27 -137.14 
DOCKED: USER  keepresnum = 1 
DOCKED: USER  
DOCKED: REMARK  Name = 
DOCKED: REMARK  5 active torsions:
DOCKED: REMARK  status: ('A' for Active; 'I' for Inactive)
DOCKED: REMARK    1  A    between atoms: S_2  and  N_3
DOCKED: REMARK    2  A    between atoms: S_2  and  C_10
DOCKED: REMARK    3  A    between atoms: N_3  and  C_4
DOCKED: REMARK    4  A    between atoms: C_12  and  C_13
DOCKED: REMARK    5  A    between atoms: C_14  and  C_15
DOCKED: REMARK                            x       y       z     vdW  Elec       q    Type
DOCKED: REMARK                         _______ _______ _______ _____ _____    ______ ____
DOCKED: USER                              x       y       z     vdW  Elec       q    Type
DOCKED: USER                           _______ _______ _______ _____ _____    ______ ____
DOCKED: ROOT
DOCKED: ATOM      1  C   UNL     1      25.570 -16.487  -2.327 -0.49 -0.00    +0.000 A 
DOCKED: ATOM      2  C   UNL     1      24.431 -17.296  -2.204 -0.33 -0.00    +0.000 A 
DOCKED: ATOM      3  C   UNL     1      24.290 -18.172  -1.108 -0.68 -0.00    +0.000 A 
DOCKED: ATOM      4  C   UNL     1      25.318 -18.232  -0.152 -0.61 -0.00    +0.000 A 
DOCKED: ATOM      5  C   UNL     1      26.448 -17.418  -0.271 -0.51 -0.00    +0.000 A 
DOCKED: ATOM      6  C   UNL     1      26.573 -16.545  -1.352 -0.42 -0.00    +0.000 A 
DOCKED: ENDROOT
DOCKED: BRANCH   1   8
DOCKED: ATOM      7  O   UNL     1      24.733 -14.300  -3.651 -0.95 -0.00    +0.000 OA
DOCKED: ATOM      8  S   UNL     1      25.743 -15.412  -3.713 -0.70 -0.00    +0.000 S 
DOCKED: ATOM      9  O   UNL     1      25.520 -16.207  -4.969 -0.82 -0.00    +0.000 OA
DOCKED: BRANCH   8  10
DOCKED: ATOM     10  N   UNL     1      27.338 -14.728  -3.744 -0.29 -0.00    +0.000 N 
DOCKED: ATOM     11  H   UNL     1      27.596 -14.124  -3.011 +0.01 -0.00    +0.000 HD
DOCKED: BRANCH  10  12
DOCKED: ATOM     12  C   UNL     1      28.305 -14.991  -4.776 -0.31 -0.00    +0.000 A 
DOCKED: ATOM     13  C   UNL     1      29.230 -16.050  -4.679 -0.27 -0.00    +0.000 A 
DOCKED: ATOM     14  C   UNL     1      30.149 -16.281  -5.707 -0.27 -0.00    +0.000 A 
DOCKED: ATOM     15  C   UNL     1      30.161 -15.460  -6.836 -0.28 -0.00    +0.000 A 
DOCKED: ATOM     16  C   UNL     1      29.254 -14.403  -6.939 -0.31 -0.00    +0.000 A 
DOCKED: ATOM     17  C   UNL     1      28.333 -14.168  -5.914 -0.31 -0.00    +0.000 A 
DOCKED: ENDBRANCH  10  12
DOCKED: ENDBRANCH   8  10
DOCKED: ENDBRANCH   1   8
DOCKED: BRANCH   3  18
DOCKED: ATOM     18  C   UNL     1      23.117 -19.066  -0.945 -0.79 -0.00    +0.000 C 
DOCKED: ATOM     19  C   UNL     1      21.856 -18.625  -0.826 -0.84 -0.00    +0.000 C 
DOCKED: BRANCH  19  20
DOCKED: ATOM     20  C   UNL     1      20.693 -19.522  -0.665 -0.87 -0.00    +0.000 C 
DOCKED: ATOM     21  N   UNL     1      20.361 -20.132   0.589 -0.68 -0.00    +0.000 N 
DOCKED: ATOM     22  O   UNL     1      19.350 -21.028   0.660 -0.81 -0.00    +0.000 OA
DOCKED: ATOM     23  O   UNL     1      19.957 -19.736  -1.666 -2.34 -0.00    +0.000 OA
DOCKED: ATOM     24  H   UNL     1      20.870 -19.899   1.398 -0.46 -0.00    +0.000 HD
DOCKED: ENDBRANCH  19  20
DOCKED: ENDBRANCH   3  18
DOCKED: TORSDOF 5
DOCKED: TER
DOCKED: ENDMDL
________________________________________________________________________________


	BEGINNING GENETIC ALGORITHM DOCKING 57 of 100
Run: 57 Seed: 1639240409 1727356855 [ Run 57 of 100 GA/GALS ]
Beginning LAMARCKIAN GENETIC ALGORITHM (LGA), with a maximum of 2500000 energy evaluations.

Final-Value: -15.387


	FINAL GENETIC ALGORITHM DOCKED STATE
	_______________________________________________


Detailed state:  trans 23.812 -17.439 -2.808 quatxyzw 0.527943 -0.425625 0.698853 -0.227428 center 0.230 -0.012 -0.200 ntor 5 -32.2445 -66.5919 73.9323 161.6527 -159.4918
State:	 23.812 -17.439  -2.808   0.542 -0.437  0.718 -153.709    -32.24  -66.59   73.93  161.65 -159.49

DOCKED: MODEL       57
DOCKED: USER    Run = 57
DOCKED: USER    DPF = ligand_dock.biased.dpf
DOCKED: USER  
DOCKED: USER    Estimated Free Energy of Binding    =  -12.87 kcal/mol  [=(1)+(2)+(3)-(4)]
DOCKED: USER    Estimated Inhibition Constant, Ki   =  367.01 pM (picomolar)  [Temperature = 298.15 K]
DOCKED: USER    
DOCKED: USER    (1) Final Intermolecular Energy     =  -14.36 kcal/mol
DOCKED: USER        vdW + Hbond + desolv Energy     =  -14.36 kcal/mol
DOCKED: USER        Electrostatic Energy            =   +0.00 kcal/mol
DOCKED: USER    (2) Final Total Internal Energy     =   -1.02 kcal/mol
DOCKED: USER    (3) Torsional Free Energy           =   +1.49 kcal/mol
DOCKED: USER    (4) Unbound System's Energy  [=(2)] =   -1.02 kcal/mol
DOCKED: USER    
DOCKED: USER    
DOCKED: USER    NEWDPF move ligand.pdbqt
DOCKED: USER    NEWDPF about 0.230000 -0.012000 -0.200000
DOCKED: USER    NEWDPF tran0 23.812397 -17.439322 -2.807510
DOCKED: USER    NEWDPF quaternion0 0.527943 -0.425625 0.698853 -0.227428
DOCKED: USER    NEWDPF axisangle0 0.542150 -0.437078 0.717660 -153.708616
DOCKED: USER    NEWDPF quat0 0.542150 -0.437078 0.717660 -153.708616
DOCKED: USER    NEWDPF dihe0 -32.24 -66.59 73.93 161.65 -159.49 
DOCKED: USER  keepresnum = 1 
DOCKED: USER  
DOCKED: REMARK  Name = 
DOCKED: REMARK  5 active torsions:
DOCKED: REMARK  status: ('A' for Active; 'I' for Inactive)
DOCKED: REMARK    1  A    between atoms: S_2  and  N_3
DOCKED: REMARK    2  A    between atoms: S_2  and  C_10
DOCKED: REMARK    3  A    between atoms: N_3  and  C_4
DOCKED: REMARK    4  A    between atoms: C_12  and  C_13
DOCKED: REMARK    5  A    between atoms: C_14  and  C_15
DOCKED: REMARK                            x       y       z     vdW  Elec       q    Type
DOCKED: REMARK                         _______ _______ _______ _____ _____    ______ ____
DOCKED: USER                              x       y       z     vdW  Elec       q    Type
DOCKED: USER                           _______ _______ _______ _____ _____    ______ ____
DOCKED: ROOT
DOCKED: ATOM      1  C   UNL     1      25.678 -16.345  -2.523 -0.48 -0.00    +0.000 A 
DOCKED: ATOM      2  C   UNL     1      24.437 -16.842  -2.099 -0.31 -0.00    +0.000 A 
DOCKED: ATOM      3  C   UNL     1      24.361 -17.755  -1.026 -0.67 -0.00    +0.000 A 
DOCKED: ATOM      4  C   UNL     1      25.549 -18.169  -0.403 -0.61 -0.00    +0.000 A 
DOCKED: ATOM      5  C   UNL     1      26.784 -17.666  -0.821 -0.47 -0.00    +0.000 A 
DOCKED: ATOM      6  C   UNL     1      26.850 -16.753  -1.874 -0.37 -0.00    +0.000 A 
DOCKED: ENDROOT
DOCKED: BRANCH   1   8
DOCKED: ATOM      7  O   UNL     1      24.721 -14.144  -3.737 -1.01 -0.00    +0.000 OA
DOCKED: ATOM      8  S   UNL     1      25.760 -15.221  -3.878 -0.72 -0.00    +0.000 S 
DOCKED: ATOM      9  O   UNL     1      25.511 -15.981  -5.149 -1.02 -0.00    +0.000 OA
DOCKED: BRANCH   8  10
DOCKED: ATOM     10  N   UNL     1      27.331 -14.485  -3.949 -0.29 -0.00    +0.000 N 
DOCKED: ATOM     11  H   UNL     1      27.567 -13.832  -3.251 +0.00 -0.00    +0.000 HD
DOCKED: BRANCH  10  12
DOCKED: ATOM     12  C   UNL     1      28.307 -14.772  -4.966 -0.31 -0.00    +0.000 A 
DOCKED: ATOM     13  C   UNL     1      29.098 -15.939  -4.932 -0.29 -0.00    +0.000 A 
DOCKED: ATOM     14  C   UNL     1      30.030 -16.189  -5.944 -0.30 -0.00    +0.000 A 
DOCKED: ATOM     15  C   UNL     1      30.188 -15.282  -6.993 -0.28 -0.00    +0.000 A 
DOCKED: ATOM     16  C   UNL     1      29.415 -14.120  -7.032 -0.29 -0.00    +0.000 A 
DOCKED: ATOM     17  C   UNL     1      28.482 -13.865  -6.024 -0.28 -0.00    +0.000 A 
DOCKED: ENDBRANCH  10  12
DOCKED: ENDBRANCH   8  10
DOCKED: ENDBRANCH   1   8
DOCKED: BRANCH   3  18
DOCKED: ATOM     18  C   UNL     1      23.075 -18.330  -0.555 -0.82 -0.00    +0.000 C 
DOCKED: ATOM     19  C   UNL     1      22.180 -18.913  -1.365 -0.72 -0.00    +0.000 C 
DOCKED: BRANCH  19  20
DOCKED: ATOM     20  C   UNL     1      20.903 -19.484  -0.889 -0.85 -0.00    +0.000 C 
DOCKED: ATOM     21  N   UNL     1      20.644 -19.734   0.498 -0.69 -0.00    +0.000 N 
DOCKED: ATOM     22  O   UNL     1      19.503 -20.355   0.873 -0.80 -0.00    +0.000 OA
DOCKED: ATOM     23  O   UNL     1      20.005 -19.737  -1.737 -2.36 -0.00    +0.000 OA
DOCKED: ATOM     24  H   UNL     1      21.298 -19.453   1.178 -0.42 -0.00    +0.000 HD
DOCKED: ENDBRANCH  19  20
DOCKED: ENDBRANCH   3  18
DOCKED: TORSDOF 5
DOCKED: TER
DOCKED: ENDMDL
________________________________________________________________________________


	BEGINNING GENETIC ALGORITHM DOCKING 58 of 100
Run: 58 Seed: 1782954501 1289981706 [ Run 58 of 100 GA/GALS ]
Beginning LAMARCKIAN GENETIC ALGORITHM (LGA), with a maximum of 2500000 energy evaluations.

Final-Value: -14.027


	FINAL GENETIC ALGORITHM DOCKED STATE
	_______________________________________________


Detailed state:  trans 25.428 -15.050 -0.121 quatxyzw 0.572369 -0.818219 0.040119 -0.036090 center 0.230 -0.012 -0.200 ntor 5 -145.7185 -11.8586 159.9122 -88.4232 105.2067
State:	 25.428 -15.050  -0.121   0.573 -0.819  0.040 -175.863   -145.72  -11.86  159.91  -88.42  105.21

DOCKED: MODEL       58
DOCKED: USER    Run = 58
DOCKED: USER    DPF = ligand_dock.biased.dpf
DOCKED: USER  
DOCKED: USER    Estimated Free Energy of Binding    =  -11.65 kcal/mol  [=(1)+(2)+(3)-(4)]
DOCKED: USER    Estimated Inhibition Constant, Ki   =    2.91 nM (nanomolar)  [Temperature = 298.15 K]
DOCKED: USER    
DOCKED: USER    (1) Final Intermolecular Energy     =  -13.14 kcal/mol
DOCKED: USER        vdW + Hbond + desolv Energy     =  -13.14 kcal/mol
DOCKED: USER        Electrostatic Energy            =   +0.00 kcal/mol
DOCKED: USER    (2) Final Total Internal Energy     =   -0.89 kcal/mol
DOCKED: USER    (3) Torsional Free Energy           =   +1.49 kcal/mol
DOCKED: USER    (4) Unbound System's Energy  [=(2)] =   -0.89 kcal/mol
DOCKED: USER    
DOCKED: USER    
DOCKED: USER    NEWDPF move ligand.pdbqt
DOCKED: USER    NEWDPF about 0.230000 -0.012000 -0.200000
DOCKED: USER    NEWDPF tran0 25.427656 -15.050485 -0.121317
DOCKED: USER    NEWDPF quaternion0 0.572369 -0.818219 0.040119 -0.036090
DOCKED: USER    NEWDPF axisangle0 0.572742 -0.818752 0.040145 -175.863501
DOCKED: USER    NEWDPF quat0 0.572742 -0.818752 0.040145 -175.863501
DOCKED: USER    NEWDPF dihe0 -145.72 -11.86 159.91 -88.42 105.21 
DOCKED: USER  keepresnum = 1 
DOCKED: USER  
DOCKED: REMARK  Name = 
DOCKED: REMARK  5 active torsions:
DOCKED: REMARK  status: ('A' for Active; 'I' for Inactive)
DOCKED: REMARK    1  A    between atoms: S_2  and  N_3
DOCKED: REMARK    2  A    between atoms: S_2  and  C_10
DOCKED: REMARK    3  A    between atoms: N_3  and  C_4
DOCKED: REMARK    4  A    between atoms: C_12  and  C_13
DOCKED: REMARK    5  A    between atoms: C_14  and  C_15
DOCKED: REMARK                            x       y       z     vdW  Elec       q    Type
DOCKED: REMARK                         _______ _______ _______ _____ _____    ______ ____
DOCKED: USER                              x       y       z     vdW  Elec       q    Type
DOCKED: USER                           _______ _______ _______ _____ _____    ______ ____
DOCKED: ROOT
DOCKED: ATOM      1  C   UNL     1      27.590 -15.310  -0.247 -0.27 -0.00    +0.000 A 
DOCKED: ATOM      2  C   UNL     1      26.289 -15.744   0.044 +0.03 -0.00    +0.000 A 
DOCKED: ATOM      3  C   UNL     1      25.731 -16.842  -0.642 -0.49 -0.00    +0.000 A 
DOCKED: ATOM      4  C   UNL     1      26.494 -17.482  -1.632 -0.25 -0.00    +0.000 A 
DOCKED: ATOM      5  C   UNL     1      27.794 -17.054  -1.915 -0.22 -0.00    +0.000 A 
DOCKED: ATOM      6  C   UNL     1      28.343 -15.974  -1.222 -0.25 -0.00    +0.000 A 
DOCKED: ENDROOT
DOCKED: BRANCH   1   8
DOCKED: ATOM      7  O   UNL     1      27.306 -12.767   0.582 -0.23 -0.00    +0.000 OA
DOCKED: ATOM      8  S   UNL     1      28.267 -13.922   0.603 -0.26 -0.00    +0.000 S 
DOCKED: ATOM      9  O   UNL     1      29.540 -13.513  -0.081 -0.07 -0.00    +0.000 OA
DOCKED: BRANCH   8  10
DOCKED: ATOM     10  N   UNL     1      28.612 -14.341   2.252 -0.25 -0.00    +0.000 N 
DOCKED: ATOM     11  H   UNL     1      28.982 -15.235   2.434 -1.94 -0.00    +0.000 HD
DOCKED: BRANCH  10  12
DOCKED: ATOM     12  C   UNL     1      28.391 -13.460   3.368 -0.30 -0.00    +0.000 A 
DOCKED: ATOM     13  C   UNL     1      28.349 -12.060   3.216 -0.19 -0.00    +0.000 A 
DOCKED: ATOM     14  C   UNL     1      28.121 -11.236   4.322 -0.28 +0.00    +0.000 A 
DOCKED: ATOM     15  C   UNL     1      27.940 -11.796   5.589 -0.35 +0.00    +0.000 A 
DOCKED: ATOM     16  C   UNL     1      27.988 -13.181   5.752 -0.35 -0.00    +0.000 A 
DOCKED: ATOM     17  C   UNL     1      28.214 -14.010   4.649 -0.49 -0.00    +0.000 A 
DOCKED: ENDBRANCH  10  12
DOCKED: ENDBRANCH   8  10
DOCKED: ENDBRANCH   1   8
DOCKED: BRANCH   3  18
DOCKED: ATOM     18  C   UNL     1      24.350 -17.325  -0.388 -0.60 -0.00    +0.000 C 
DOCKED: ATOM     19  C   UNL     1      23.497 -17.684  -1.359 -0.70 -0.00    +0.000 C 
DOCKED: BRANCH  19  20
DOCKED: ATOM     20  C   UNL     1      22.124 -18.165  -1.099 -0.71 -0.00    +0.000 C 
DOCKED: ATOM     21  N   UNL     1      21.624 -19.391  -1.647 -0.64 -0.00    +0.000 N 
DOCKED: ATOM     22  O   UNL     1      20.329 -19.735  -1.467 -2.19 -0.00    +0.000 OA
DOCKED: ATOM     23  O   UNL     1      21.380 -17.479  -0.349 -1.59 +0.00    +0.000 OA
DOCKED: ATOM     24  H   UNL     1      22.225 -19.983  -2.155 -0.53 -0.00    +0.000 HD
DOCKED: ENDBRANCH  19  20
DOCKED: ENDBRANCH   3  18
DOCKED: TORSDOF 5
DOCKED: TER
DOCKED: ENDMDL
________________________________________________________________________________


	BEGINNING GENETIC ALGORITHM DOCKING 59 of 100
Run: 59 Seed: 1477764869 501950943 [ Run 59 of 100 GA/GALS ]
Beginning LAMARCKIAN GENETIC ALGORITHM (LGA), with a maximum of 2500000 energy evaluations.

Final-Value: -14.909


	FINAL GENETIC ALGORITHM DOCKED STATE
	_______________________________________________


Detailed state:  trans 24.912 -17.431 -3.382 quatxyzw -0.435225 0.405310 -0.791995 0.138011 center 0.230 -0.012 -0.200 ntor 5 30.0240 113.9668 -64.3934 140.5928 -123.6351
State:	 24.912 -17.431  -3.382  -0.439  0.409 -0.800 164.134     30.02  113.97  -64.39  140.59 -123.64

DOCKED: MODEL       59
DOCKED: USER    Run = 59
DOCKED: USER    DPF = ligand_dock.biased.dpf
DOCKED: USER  
DOCKED: USER    Estimated Free Energy of Binding    =  -12.35 kcal/mol  [=(1)+(2)+(3)-(4)]
DOCKED: USER    Estimated Inhibition Constant, Ki   =  885.90 pM (picomolar)  [Temperature = 298.15 K]
DOCKED: USER    
DOCKED: USER    (1) Final Intermolecular Energy     =  -13.84 kcal/mol
DOCKED: USER        vdW + Hbond + desolv Energy     =  -13.84 kcal/mol
DOCKED: USER        Electrostatic Energy            =   +0.00 kcal/mol
DOCKED: USER    (2) Final Total Internal Energy     =   -1.07 kcal/mol
DOCKED: USER    (3) Torsional Free Energy           =   +1.49 kcal/mol
DOCKED: USER    (4) Unbound System's Energy  [=(2)] =   -1.07 kcal/mol
DOCKED: USER    
DOCKED: USER    
DOCKED: USER    NEWDPF move ligand.pdbqt
DOCKED: USER    NEWDPF about 0.230000 -0.012000 -0.200000
DOCKED: USER    NEWDPF tran0 24.912180 -17.430549 -3.382332
DOCKED: USER    NEWDPF quaternion0 -0.435225 0.405310 -0.791995 0.138011
DOCKED: USER    NEWDPF axisangle0 -0.439430 0.409226 -0.799647 164.134410
DOCKED: USER    NEWDPF quat0 -0.439430 0.409226 -0.799647 164.134410
DOCKED: USER    NEWDPF dihe0 30.02 113.97 -64.39 140.59 -123.64 
DOCKED: USER  keepresnum = 1 
DOCKED: USER  
DOCKED: REMARK  Name = 
DOCKED: REMARK  5 active torsions:
DOCKED: REMARK  status: ('A' for Active; 'I' for Inactive)
DOCKED: REMARK    1  A    between atoms: S_2  and  N_3
DOCKED: REMARK    2  A    between atoms: S_2  and  C_10
DOCKED: REMARK    3  A    between atoms: N_3  and  C_4
DOCKED: REMARK    4  A    between atoms: C_12  and  C_13
DOCKED: REMARK    5  A    between atoms: C_14  and  C_15
DOCKED: REMARK                            x       y       z     vdW  Elec       q    Type
DOCKED: REMARK                         _______ _______ _______ _____ _____    ______ ____
DOCKED: USER                              x       y       z     vdW  Elec       q    Type
DOCKED: USER                           _______ _______ _______ _____ _____    ______ ____
DOCKED: ROOT
DOCKED: ATOM      1  C   UNL     1      26.491 -16.116  -2.651 -0.37 -0.00    +0.000 A 
DOCKED: ATOM      2  C   UNL     1      25.238 -16.737  -2.568 -0.45 -0.00    +0.000 A 
DOCKED: ATOM      3  C   UNL     1      24.941 -17.611  -1.501 -0.59 -0.00    +0.000 A 
DOCKED: ATOM      4  C   UNL     1      25.929 -17.860  -0.534 -0.58 -0.00    +0.000 A 
DOCKED: ATOM      5  C   UNL     1      27.175 -17.232  -0.613 -0.44 -0.00    +0.000 A 
DOCKED: ATOM      6  C   UNL     1      27.456 -16.359  -1.665 -0.33 -0.00    +0.000 A 
DOCKED: ENDROOT
DOCKED: BRANCH   1   8
DOCKED: ATOM      7  O   UNL     1      26.296 -13.670  -3.753 -0.38 -0.00    +0.000 OA
DOCKED: ATOM      8  S   UNL     1      26.856 -15.043  -4.001 -0.57 -0.00    +0.000 S 
DOCKED: ATOM      9  O   UNL     1      26.235 -15.608  -5.246 -1.20 +0.00    +0.000 OA
DOCKED: BRANCH   8  10
DOCKED: ATOM     10  N   UNL     1      28.574 -14.922  -4.222 -0.22 -0.00    +0.000 N 
DOCKED: ATOM     11  H   UNL     1      29.049 -14.195  -3.759 +0.01 -0.00    +0.000 HD
DOCKED: BRANCH  10  12
DOCKED: ATOM     12  C   UNL     1      29.344 -15.821  -5.040 -0.28 -0.00    +0.000 A 
DOCKED: ATOM     13  C   UNL     1      29.782 -15.463  -6.331 -0.31 -0.00    +0.000 A 
DOCKED: ATOM     14  C   UNL     1      30.538 -16.359  -7.093 -0.28 -0.00    +0.000 A 
DOCKED: ATOM     15  C   UNL     1      30.859 -17.619  -6.582 -0.30 -0.00    +0.000 A 
DOCKED: ATOM     16  C   UNL     1      30.423 -17.985  -5.307 -0.29 -0.00    +0.000 A 
DOCKED: ATOM     17  C   UNL     1      29.668 -17.093  -4.541 -0.23 -0.00    +0.000 A 
DOCKED: ENDBRANCH  10  12
DOCKED: ENDBRANCH   8  10
DOCKED: ENDBRANCH   1   8
DOCKED: BRANCH   3  18
DOCKED: ATOM     18  C   UNL     1      23.639 -18.313  -1.380 -0.78 -0.00    +0.000 C 
DOCKED: ATOM     19  C   UNL     1      22.562 -17.787  -0.778 -0.79 -0.00    +0.000 C 
DOCKED: BRANCH  19  20
DOCKED: ATOM     20  C   UNL     1      21.268 -18.491  -0.663 -0.82 -0.00    +0.000 C 
DOCKED: ATOM     21  N   UNL     1      21.171 -19.850  -0.218 -0.67 -0.00    +0.000 N 
DOCKED: ATOM     22  O   UNL     1      19.976 -20.483  -0.232 -1.28 -0.00    +0.000 OA
DOCKED: ATOM     23  O   UNL     1      20.215 -17.861  -0.948 -2.14 -0.00    +0.000 OA
DOCKED: ATOM     24  H   UNL     1      21.975 -20.322   0.098 -0.56 -0.00    +0.000 HD
DOCKED: ENDBRANCH  19  20
DOCKED: ENDBRANCH   3  18
DOCKED: TORSDOF 5
DOCKED: TER
DOCKED: ENDMDL
________________________________________________________________________________


	BEGINNING GENETIC ALGORITHM DOCKING 60 of 100
Run: 60 Seed: 1594494172 1708366711 [ Run 60 of 100 GA/GALS ]
Beginning LAMARCKIAN GENETIC ALGORITHM (LGA), with a maximum of 2500000 energy evaluations.

Final-Value: -15.082


	FINAL GENETIC ALGORITHM DOCKED STATE
	_______________________________________________


Detailed state:  trans 23.803 -17.361 -2.832 quatxyzw 0.461322 -0.461993 0.721151 -0.231699 center 0.230 -0.012 -0.200 ntor 5 -83.1516 95.3412 115.8593 177.8422 -148.3981
State:	 23.803 -17.361  -2.832   0.474 -0.475  0.741 -153.206    -83.15   95.34  115.86  177.84 -148.40

DOCKED: MODEL       60
DOCKED: USER    Run = 60
DOCKED: USER    DPF = ligand_dock.biased.dpf
DOCKED: USER  
DOCKED: USER    Estimated Free Energy of Binding    =  -12.61 kcal/mol  [=(1)+(2)+(3)-(4)]
DOCKED: USER    Estimated Inhibition Constant, Ki   =  567.79 pM (picomolar)  [Temperature = 298.15 K]
DOCKED: USER    
DOCKED: USER    (1) Final Intermolecular Energy     =  -14.10 kcal/mol
DOCKED: USER        vdW + Hbond + desolv Energy     =  -14.10 kcal/mol
DOCKED: USER        Electrostatic Energy            =   +0.00 kcal/mol
DOCKED: USER    (2) Final Total Internal Energy     =   -0.98 kcal/mol
DOCKED: USER    (3) Torsional Free Energy           =   +1.49 kcal/mol
DOCKED: USER    (4) Unbound System's Energy  [=(2)] =   -0.98 kcal/mol
DOCKED: USER    
DOCKED: USER    
DOCKED: USER    NEWDPF move ligand.pdbqt
DOCKED: USER    NEWDPF about 0.230000 -0.012000 -0.200000
DOCKED: USER    NEWDPF tran0 23.802793 -17.360596 -2.832205
DOCKED: USER    NEWDPF quaternion0 0.461322 -0.461993 0.721151 -0.231699
DOCKED: USER    NEWDPF axisangle0 0.474227 -0.474917 0.741325 -153.205760
DOCKED: USER    NEWDPF quat0 0.474227 -0.474917 0.741325 -153.205760
DOCKED: USER    NEWDPF dihe0 -83.15 95.34 115.86 177.84 -148.40 
DOCKED: USER  keepresnum = 1 
DOCKED: USER  
DOCKED: REMARK  Name = 
DOCKED: REMARK  5 active torsions:
DOCKED: REMARK  status: ('A' for Active; 'I' for Inactive)
DOCKED: REMARK    1  A    between atoms: S_2  and  N_3
DOCKED: REMARK    2  A    between atoms: S_2  and  C_10
DOCKED: REMARK    3  A    between atoms: N_3  and  C_4
DOCKED: REMARK    4  A    between atoms: C_12  and  C_13
DOCKED: REMARK    5  A    between atoms: C_14  and  C_15
DOCKED: REMARK                            x       y       z     vdW  Elec       q    Type
DOCKED: REMARK                         _______ _______ _______ _____ _____    ______ ____
DOCKED: USER                              x       y       z     vdW  Elec       q    Type
DOCKED: USER                           _______ _______ _______ _____ _____    ______ ____
DOCKED: ROOT
DOCKED: ATOM      1  C   UNL     1      25.707 -16.437  -2.305 -0.48 -0.00    +0.000 A 
DOCKED: ATOM      2  C   UNL     1      24.382 -16.816  -2.047 -0.32 -0.00    +0.000 A 
DOCKED: ATOM      3  C   UNL     1      24.086 -17.709  -0.996 -0.68 -0.00    +0.000 A 
DOCKED: ATOM      4  C   UNL     1      25.142 -18.223  -0.225 -0.62 -0.00    +0.000 A 
DOCKED: ATOM      5  C   UNL     1      26.460 -17.837  -0.478 -0.54 -0.00    +0.000 A 
DOCKED: ATOM      6  C   UNL     1      26.744 -16.944  -1.512 -0.42 -0.00    +0.000 A 
DOCKED: ENDROOT
DOCKED: BRANCH   1   8
DOCKED: ATOM      7  O   UNL     1      25.309 -14.048  -3.475 -0.62 -0.00    +0.000 OA
DOCKED: ATOM      8  S   UNL     1      26.066 -15.337  -3.635 -0.68 -0.00    +0.000 S 
DOCKED: ATOM      9  O   UNL     1      25.656 -15.990  -4.924 -0.92 -0.00    +0.000 OA
DOCKED: BRANCH   8  10
DOCKED: ATOM     10  N   UNL     1      27.767 -14.992  -3.684 -0.26 -0.00    +0.000 N 
DOCKED: ATOM     11  H   UNL     1      28.191 -14.644  -2.866 +0.01 -0.00    +0.000 HD
DOCKED: BRANCH  10  12
DOCKED: ATOM     12  C   UNL     1      28.592 -15.185  -4.846 -0.30 -0.00    +0.000 A 
DOCKED: ATOM     13  C   UNL     1      28.676 -14.220  -5.869 -0.30 -0.00    +0.000 A 
DOCKED: ATOM     14  C   UNL     1      29.498 -14.438  -6.979 -0.30 -0.00    +0.000 A 
DOCKED: ATOM     15  C   UNL     1      30.239 -15.618  -7.085 -0.27 -0.00    +0.000 A 
DOCKED: ATOM     16  C   UNL     1      30.157 -16.583  -6.079 -0.30 -0.00    +0.000 A 
DOCKED: ATOM     17  C   UNL     1      29.337 -16.370  -4.967 -0.28 -0.00    +0.000 A 
DOCKED: ENDBRANCH  10  12
DOCKED: ENDBRANCH   8  10
DOCKED: ENDBRANCH   1   8
DOCKED: BRANCH   3  18
DOCKED: ATOM     18  C   UNL     1      22.704 -18.161  -0.697 -0.83 -0.00    +0.000 C 
DOCKED: ATOM     19  C   UNL     1      22.162 -19.281  -1.197 -0.71 -0.00    +0.000 C 
DOCKED: BRANCH  19  20
DOCKED: ATOM     20  C   UNL     1      20.786 -19.725  -0.894 -0.81 -0.00    +0.000 C 
DOCKED: ATOM     21  N   UNL     1      20.379 -20.116   0.423 -0.70 -0.00    +0.000 N 
DOCKED: ATOM     22  O   UNL     1      19.138 -20.615   0.629 -0.86 -0.00    +0.000 OA
DOCKED: ATOM     23  O   UNL     1      19.939 -19.735  -1.827 -2.40 -0.00    +0.000 OA
DOCKED: ATOM     24  H   UNL     1      21.003 -20.022   1.179 -0.53 -0.00    +0.000 HD
DOCKED: ENDBRANCH  19  20
DOCKED: ENDBRANCH   3  18
DOCKED: TORSDOF 5
DOCKED: TER
DOCKED: ENDMDL
________________________________________________________________________________


	BEGINNING GENETIC ALGORITHM DOCKING 61 of 100
Run: 61 Seed: 1985805113 1431563577 [ Run 61 of 100 GA/GALS ]
Beginning LAMARCKIAN GENETIC ALGORITHM (LGA), with a maximum of 2500000 energy evaluations.

Final-Value: -14.722


	FINAL GENETIC ALGORITHM DOCKED STATE
	_______________________________________________


Detailed state:  trans 24.198 -17.490 -3.126 quatxyzw 0.458404 -0.442512 0.769069 -0.050808 center 0.230 -0.012 -0.200 ntor 5 115.8542 55.6640 -81.2685 -35.3708 -52.4490
State:	 24.198 -17.490  -3.126   0.459 -0.443  0.770 -174.175    115.85   55.66  -81.27  -35.37  -52.45

DOCKED: MODEL       61
DOCKED: USER    Run = 61
DOCKED: USER    DPF = ligand_dock.biased.dpf
DOCKED: USER  
DOCKED: USER    Estimated Free Energy of Binding    =  -12.19 kcal/mol  [=(1)+(2)+(3)-(4)]
DOCKED: USER    Estimated Inhibition Constant, Ki   =    1.16 nM (nanomolar)  [Temperature = 298.15 K]
DOCKED: USER    
DOCKED: USER    (1) Final Intermolecular Energy     =  -13.68 kcal/mol
DOCKED: USER        vdW + Hbond + desolv Energy     =  -13.68 kcal/mol
DOCKED: USER        Electrostatic Energy            =   +0.00 kcal/mol
DOCKED: USER    (2) Final Total Internal Energy     =   -1.04 kcal/mol
DOCKED: USER    (3) Torsional Free Energy           =   +1.49 kcal/mol
DOCKED: USER    (4) Unbound System's Energy  [=(2)] =   -1.04 kcal/mol
DOCKED: USER    
DOCKED: USER    
DOCKED: USER    NEWDPF move ligand.pdbqt
DOCKED: USER    NEWDPF about 0.230000 -0.012000 -0.200000
DOCKED: USER    NEWDPF tran0 24.198200 -17.490430 -3.126070
DOCKED: USER    NEWDPF quaternion0 0.458404 -0.442512 0.769069 -0.050808
DOCKED: USER    NEWDPF axisangle0 0.458997 -0.443085 0.770064 -174.175359
DOCKED: USER    NEWDPF quat0 0.458997 -0.443085 0.770064 -174.175359
DOCKED: USER    NEWDPF dihe0 115.85 55.66 -81.27 -35.37 -52.45 
DOCKED: USER  keepresnum = 1 
DOCKED: USER  
DOCKED: REMARK  Name = 
DOCKED: REMARK  5 active torsions:
DOCKED: REMARK  status: ('A' for Active; 'I' for Inactive)
DOCKED: REMARK    1  A    between atoms: S_2  and  N_3
DOCKED: REMARK    2  A    between atoms: S_2  and  C_10
DOCKED: REMARK    3  A    between atoms: N_3  and  C_4
DOCKED: REMARK    4  A    between atoms: C_12  and  C_13
DOCKED: REMARK    5  A    between atoms: C_14  and  C_15
DOCKED: REMARK                            x       y       z     vdW  Elec       q    Type
DOCKED: REMARK                         _______ _______ _______ _____ _____    ______ ____
DOCKED: USER                              x       y       z     vdW  Elec       q    Type
DOCKED: USER                           _______ _______ _______ _____ _____    ______ ____
DOCKED: ROOT
DOCKED: ATOM      1  C   UNL     1      25.598 -16.136  -2.144 -0.49 -0.00    +0.000 A 
DOCKED: ATOM      2  C   UNL     1      24.426 -16.904  -2.202 -0.24 -0.00    +0.000 A 
DOCKED: ATOM      3  C   UNL     1      24.221 -17.966  -1.297 -0.67 -0.00    +0.000 A 
DOCKED: ATOM      4  C   UNL     1      25.217 -18.250  -0.348 -0.63 -0.00    +0.000 A 
DOCKED: ATOM      5  C   UNL     1      26.380 -17.479  -0.286 -0.53 -0.00    +0.000 A 
DOCKED: ATOM      6  C   UNL     1      26.570 -16.422  -1.177 -0.42 -0.00    +0.000 A 
DOCKED: ENDROOT
DOCKED: BRANCH   1   8
DOCKED: ATOM      7  O   UNL     1      26.748 -13.772  -2.709 -0.27 -0.00    +0.000 OA
DOCKED: ATOM      8  S   UNL     1      25.851 -14.826  -3.295 -0.63 -0.00    +0.000 S 
DOCKED: ATOM      9  O   UNL     1      24.521 -14.211  -3.624 -0.93 -0.00    +0.000 OA
DOCKED: BRANCH   8  10
DOCKED: ATOM     10  N   UNL     1      26.574 -15.439  -4.749 -0.53 -0.00    +0.000 N 
DOCKED: ATOM     11  H   UNL     1      25.977 -15.713  -5.482 -0.08 +0.00    +0.000 HD
DOCKED: BRANCH  10  12
DOCKED: ATOM     12  C   UNL     1      27.993 -15.571  -4.948 -0.33 -0.00    +0.000 A 
DOCKED: ATOM     13  C   UNL     1      28.840 -16.091  -3.949 -0.23 -0.00    +0.000 A 
DOCKED: ATOM     14  C   UNL     1      30.214 -16.214  -4.182 -0.18 -0.00    +0.000 A 
DOCKED: ATOM     15  C   UNL     1      30.757 -15.817  -5.406 -0.16 -0.00    +0.000 A 
DOCKED: ATOM     16  C   UNL     1      29.927 -15.294  -6.399 -0.29 -0.00    +0.000 A 
DOCKED: ATOM     17  C   UNL     1      28.553 -15.169  -6.172 -0.34 -0.00    +0.000 A 
DOCKED: ENDBRANCH  10  12
DOCKED: ENDBRANCH   8  10
DOCKED: ENDBRANCH   1   8
DOCKED: BRANCH   3  18
DOCKED: ATOM     18  C   UNL     1      23.010 -18.824  -1.332 -0.78 -0.00    +0.000 C 
DOCKED: ATOM     19  C   UNL     1      21.998 -18.720  -0.458 -0.84 -0.00    +0.000 C 
DOCKED: BRANCH  19  20
DOCKED: ATOM     20  C   UNL     1      20.795 -19.577  -0.501 -0.85 -0.00    +0.000 C 
DOCKED: ATOM     21  N   UNL     1      20.257 -20.204   0.670 -0.69 -0.00    +0.000 N 
DOCKED: ATOM     22  O   UNL     1      19.218 -21.063   0.562 -0.83 -0.00    +0.000 OA
DOCKED: ATOM     23  O   UNL     1      20.213 -19.740  -1.607 -2.30 -0.00    +0.000 OA
DOCKED: ATOM     24  H   UNL     1      20.644 -20.008   1.554 -0.44 -0.00    +0.000 HD
DOCKED: ENDBRANCH  19  20
DOCKED: ENDBRANCH   3  18
DOCKED: TORSDOF 5
DOCKED: TER
DOCKED: ENDMDL
________________________________________________________________________________


	BEGINNING GENETIC ALGORITHM DOCKING 62 of 100
Run: 62 Seed: 1871796600 1162610391 [ Run 62 of 100 GA/GALS ]
Beginning LAMARCKIAN GENETIC ALGORITHM (LGA), with a maximum of 2500000 energy evaluations.

Final-Value: -14.609


	FINAL GENETIC ALGORITHM DOCKED STATE
	_______________________________________________


Detailed state:  trans 24.899 -16.687 -3.304 quatxyzw 0.456279 -0.432166 0.720817 -0.292342 center 0.230 -0.012 -0.200 ntor 5 147.5953 121.5232 110.9022 147.9102 -144.4258
State:	 24.899 -16.687  -3.304   0.477 -0.452  0.754 -146.004    147.60  121.52  110.90  147.91 -144.43

DOCKED: MODEL       62
DOCKED: USER    Run = 62
DOCKED: USER    DPF = ligand_dock.biased.dpf
DOCKED: USER  
DOCKED: USER    Estimated Free Energy of Binding    =  -12.08 kcal/mol  [=(1)+(2)+(3)-(4)]
DOCKED: USER    Estimated Inhibition Constant, Ki   =    1.39 nM (nanomolar)  [Temperature = 298.15 K]
DOCKED: USER    
DOCKED: USER    (1) Final Intermolecular Energy     =  -13.58 kcal/mol
DOCKED: USER        vdW + Hbond + desolv Energy     =  -13.58 kcal/mol
DOCKED: USER        Electrostatic Energy            =   +0.00 kcal/mol
DOCKED: USER    (2) Final Total Internal Energy     =   -1.03 kcal/mol
DOCKED: USER    (3) Torsional Free Energy           =   +1.49 kcal/mol
DOCKED: USER    (4) Unbound System's Energy  [=(2)] =   -1.03 kcal/mol
DOCKED: USER    
DOCKED: USER    
DOCKED: USER    NEWDPF move ligand.pdbqt
DOCKED: USER    NEWDPF about 0.230000 -0.012000 -0.200000
DOCKED: USER    NEWDPF tran0 24.899150 -16.687030 -3.304474
DOCKED: USER    NEWDPF quaternion0 0.456279 -0.432166 0.720817 -0.292342
DOCKED: USER    NEWDPF axisangle0 0.477123 -0.451908 0.753746 -146.003559
DOCKED: USER    NEWDPF quat0 0.477123 -0.451908 0.753746 -146.003559
DOCKED: USER    NEWDPF dihe0 147.60 121.52 110.90 147.91 -144.43 
DOCKED: USER  keepresnum = 1 
DOCKED: USER  
DOCKED: REMARK  Name = 
DOCKED: REMARK  5 active torsions:
DOCKED: REMARK  status: ('A' for Active; 'I' for Inactive)
DOCKED: REMARK    1  A    between atoms: S_2  and  N_3
DOCKED: REMARK    2  A    between atoms: S_2  and  C_10
DOCKED: REMARK    3  A    between atoms: N_3  and  C_4
DOCKED: REMARK    4  A    between atoms: C_12  and  C_13
DOCKED: REMARK    5  A    between atoms: C_14  and  C_15
DOCKED: REMARK                            x       y       z     vdW  Elec       q    Type
DOCKED: REMARK                         _______ _______ _______ _____ _____    ______ ____
DOCKED: USER                              x       y       z     vdW  Elec       q    Type
DOCKED: USER                           _______ _______ _______ _____ _____    ______ ____
DOCKED: ROOT
DOCKED: ATOM      1  C   UNL     1      26.887 -15.847  -2.989 -0.34 -0.00    +0.000 A 
DOCKED: ATOM      2  C   UNL     1      25.562 -16.108  -2.615 -0.49 -0.00    +0.000 A 
DOCKED: ATOM      3  C   UNL     1      25.281 -16.871  -1.462 -0.55 -0.00    +0.000 A 
DOCKED: ATOM      4  C   UNL     1      26.352 -17.377  -0.707 -0.52 -0.00    +0.000 A 
DOCKED: ATOM      5  C   UNL     1      27.672 -17.108  -1.076 -0.38 -0.00    +0.000 A 
DOCKED: ATOM      6  C   UNL     1      27.941 -16.342  -2.212 -0.28 -0.00    +0.000 A 
DOCKED: ENDROOT
DOCKED: BRANCH   1   8
DOCKED: ATOM      7  O   UNL     1      26.642 -13.530  -4.332 -0.35 -0.00    +0.000 OA
DOCKED: ATOM      8  S   UNL     1      27.224 -14.911  -4.444 -0.54 -0.00    +0.000 S 
DOCKED: ATOM      9  O   UNL     1      26.606 -15.610  -5.621 -1.19 +0.00    +0.000 OA
DOCKED: BRANCH   8  10
DOCKED: ATOM     10  N   UNL     1      28.938 -14.784  -4.690 -0.21 -0.00    +0.000 N 
DOCKED: ATOM     11  H   UNL     1      29.421 -14.068  -4.217 +0.00 -0.00    +0.000 HD
DOCKED: BRANCH  10  12
DOCKED: ATOM     12  C   UNL     1      29.695 -15.661  -5.543 -0.27 -0.00    +0.000 A 
DOCKED: ATOM     13  C   UNL     1      30.246 -15.223  -6.763 -0.27 -0.00    +0.000 A 
DOCKED: ATOM     14  C   UNL     1      30.984 -16.103  -7.561 -0.25 -0.00    +0.000 A 
DOCKED: ATOM     15  C   UNL     1      31.177 -17.425  -7.155 -0.28 -0.00    +0.000 A 
DOCKED: ATOM     16  C   UNL     1      30.629 -17.871  -5.951 -0.30 -0.00    +0.000 A 
DOCKED: ATOM     17  C   UNL     1      29.890 -16.996  -5.150 -0.28 -0.00    +0.000 A 
DOCKED: ENDBRANCH  10  12
DOCKED: ENDBRANCH   8  10
DOCKED: ENDBRANCH   1   8
DOCKED: BRANCH   3  18
DOCKED: ATOM     18  C   UNL     1      23.896 -17.196  -1.037 -0.71 -0.00    +0.000 C 
DOCKED: ATOM     19  C   UNL     1      23.220 -18.273  -1.463 -0.74 -0.00    +0.000 C 
DOCKED: BRANCH  19  20
DOCKED: ATOM     20  C   UNL     1      21.843 -18.591  -1.033 -0.81 -0.00    +0.000 C 
DOCKED: ATOM     21  N   UNL     1      21.030 -19.556  -1.713 -0.70 -0.00    +0.000 N 
DOCKED: ATOM     22  O   UNL     1      19.740 -19.734  -1.347 -2.13 -0.00    +0.000 OA
DOCKED: ATOM     23  O   UNL     1      21.380 -18.005  -0.017 -1.41 -0.00    +0.000 OA
DOCKED: ATOM     24  H   UNL     1      21.412 -20.089  -2.448 -0.57 -0.00    +0.000 HD
DOCKED: ENDBRANCH  19  20
DOCKED: ENDBRANCH   3  18
DOCKED: TORSDOF 5
DOCKED: TER
DOCKED: ENDMDL
________________________________________________________________________________


	BEGINNING GENETIC ALGORITHM DOCKING 63 of 100
Run: 63 Seed: 1583076452 1349427321 [ Run 63 of 100 GA/GALS ]
Beginning LAMARCKIAN GENETIC ALGORITHM (LGA), with a maximum of 2500000 energy evaluations.

Final-Value: -15.457


	FINAL GENETIC ALGORITHM DOCKED STATE
	_______________________________________________


Detailed state:  trans 24.117 -17.951 -2.869 quatxyzw 0.507768 -0.368441 0.766366 -0.138223 center 0.230 -0.012 -0.200 ntor 5 20.1727 111.1575 8.9129 170.6890 -146.3213
State:	 24.117 -17.951  -2.869   0.513 -0.372  0.774 -164.110     20.17  111.16    8.91  170.69 -146.32

DOCKED: MODEL       63
DOCKED: USER    Run = 63
DOCKED: USER    DPF = ligand_dock.biased.dpf
DOCKED: USER  
DOCKED: USER    Estimated Free Energy of Binding    =  -12.95 kcal/mol  [=(1)+(2)+(3)-(4)]
DOCKED: USER    Estimated Inhibition Constant, Ki   =  319.41 pM (picomolar)  [Temperature = 298.15 K]
DOCKED: USER    
DOCKED: USER    (1) Final Intermolecular Energy     =  -14.45 kcal/mol
DOCKED: USER        vdW + Hbond + desolv Energy     =  -14.45 kcal/mol
DOCKED: USER        Electrostatic Energy            =   +0.00 kcal/mol
DOCKED: USER    (2) Final Total Internal Energy     =   -1.01 kcal/mol
DOCKED: USER    (3) Torsional Free Energy           =   +1.49 kcal/mol
DOCKED: USER    (4) Unbound System's Energy  [=(2)] =   -1.01 kcal/mol
DOCKED: USER    
DOCKED: USER    
DOCKED: USER    NEWDPF move ligand.pdbqt
DOCKED: USER    NEWDPF about 0.230000 -0.012000 -0.200000
DOCKED: USER    NEWDPF tran0 24.116781 -17.950700 -2.868724
DOCKED: USER    NEWDPF quaternion0 0.507768 -0.368441 0.766366 -0.138223
DOCKED: USER    NEWDPF axisangle0 0.512689 -0.372012 0.773794 -164.109972
DOCKED: USER    NEWDPF quat0 0.512689 -0.372012 0.773794 -164.109972
DOCKED: USER    NEWDPF dihe0 20.17 111.16 8.91 170.69 -146.32 
DOCKED: USER  keepresnum = 1 
DOCKED: USER  
DOCKED: REMARK  Name = 
DOCKED: REMARK  5 active torsions:
DOCKED: REMARK  status: ('A' for Active; 'I' for Inactive)
DOCKED: REMARK    1  A    between atoms: S_2  and  N_3
DOCKED: REMARK    2  A    between atoms: S_2  and  C_10
DOCKED: REMARK    3  A    between atoms: N_3  and  C_4
DOCKED: REMARK    4  A    between atoms: C_12  and  C_13
DOCKED: REMARK    5  A    between atoms: C_14  and  C_15
DOCKED: REMARK                            x       y       z     vdW  Elec       q    Type
DOCKED: REMARK                         _______ _______ _______ _____ _____    ______ ____
DOCKED: USER                              x       y       z     vdW  Elec       q    Type
DOCKED: USER                           _______ _______ _______ _____ _____    ______ ____
DOCKED: ROOT
DOCKED: ATOM      1  C   UNL     1      25.669 -16.494  -2.394 -0.47 -0.00    +0.000 A 
DOCKED: ATOM      2  C   UNL     1      24.498 -17.214  -2.119 -0.40 -0.00    +0.000 A 
DOCKED: ATOM      3  C   UNL     1      24.436 -18.083  -1.010 -0.68 -0.00    +0.000 A 
DOCKED: ATOM      4  C   UNL     1      25.572 -18.227  -0.197 -0.61 -0.00    +0.000 A 
DOCKED: ATOM      5  C   UNL     1      26.736 -17.502  -0.467 -0.50 -0.00    +0.000 A 
DOCKED: ATOM      6  C   UNL     1      26.785 -16.634  -1.559 -0.40 -0.00    +0.000 A 
DOCKED: ENDROOT
DOCKED: BRANCH   1   8
DOCKED: ATOM      7  O   UNL     1      24.679 -14.366  -3.708 -0.96 -0.00    +0.000 OA
DOCKED: ATOM      8  S   UNL     1      25.740 -15.428  -3.795 -0.71 -0.00    +0.000 S 
DOCKED: ATOM      9  O   UNL     1      25.515 -16.246  -5.034 -0.84 -0.00    +0.000 OA
DOCKED: BRANCH   8  10
DOCKED: ATOM     10  N   UNL     1      27.297 -14.665  -3.888 -0.30 -0.00    +0.000 N 
DOCKED: ATOM     11  H   UNL     1      27.570 -14.080  -3.144 +0.00 -0.00    +0.000 HD
DOCKED: BRANCH  10  12
DOCKED: ATOM     12  C   UNL     1      28.212 -14.836  -4.985 -0.32 -0.00    +0.000 A 
DOCKED: ATOM     13  C   UNL     1      28.325 -13.883  -6.017 -0.28 -0.00    +0.000 A 
DOCKED: ATOM     14  C   UNL     1      29.233 -14.079  -7.062 -0.31 -0.00    +0.000 A 
DOCKED: ATOM     15  C   UNL     1      30.031 -15.224  -7.094 -0.28 -0.00    +0.000 A 
DOCKED: ATOM     16  C   UNL     1      29.921 -16.178  -6.080 -0.31 -0.00    +0.000 A 
DOCKED: ATOM     17  C   UNL     1      29.016 -15.987  -5.033 -0.30 -0.00    +0.000 A 
DOCKED: ENDBRANCH  10  12
DOCKED: ENDBRANCH   8  10
DOCKED: ENDBRANCH   1   8
DOCKED: BRANCH   3  18
DOCKED: ATOM     18  C   UNL     1      23.229 -18.887  -0.691 -0.81 -0.00    +0.000 C 
DOCKED: ATOM     19  C   UNL     1      22.024 -18.671  -1.240 -0.71 -0.00    +0.000 C 
DOCKED: BRANCH  19  20
DOCKED: ATOM     20  C   UNL     1      20.828 -19.476  -0.918 -0.86 -0.00    +0.000 C 
DOCKED: ATOM     21  N   UNL     1      20.555 -19.949   0.408 -0.69 -0.00    +0.000 N 
DOCKED: ATOM     22  O   UNL     1      19.504 -20.770   0.630 -0.86 -0.00    +0.000 OA
DOCKED: ATOM     23  O   UNL     1      20.010 -19.732  -1.842 -2.39 -0.00    +0.000 OA
DOCKED: ATOM     24  H   UNL     1      21.134 -19.675   1.155 -0.46 -0.00    +0.000 HD
DOCKED: ENDBRANCH  19  20
DOCKED: ENDBRANCH   3  18
DOCKED: TORSDOF 5
DOCKED: TER
DOCKED: ENDMDL
________________________________________________________________________________


	BEGINNING GENETIC ALGORITHM DOCKING 64 of 100
Run: 64 Seed: 878500806 457374189 [ Run 64 of 100 GA/GALS ]
Beginning LAMARCKIAN GENETIC ALGORITHM (LGA), with a maximum of 2500000 energy evaluations.

Final-Value: -14.576


	FINAL GENETIC ALGORITHM DOCKED STATE
	_______________________________________________


Detailed state:  trans 24.084 -17.490 -2.995 quatxyzw 0.460939 -0.488293 0.738009 -0.066689 center 0.230 -0.012 -0.200 ntor 5 116.4945 -25.2081 -53.7816 -99.4116 -57.0822
State:	 24.084 -17.490  -2.995   0.462 -0.489  0.740 -172.352    116.49  -25.21  -53.78  -99.41  -57.08

DOCKED: MODEL       64
DOCKED: USER    Run = 64
DOCKED: USER    DPF = ligand_dock.biased.dpf
DOCKED: USER  
DOCKED: USER    Estimated Free Energy of Binding    =  -12.17 kcal/mol  [=(1)+(2)+(3)-(4)]
DOCKED: USER    Estimated Inhibition Constant, Ki   =    1.20 nM (nanomolar)  [Temperature = 298.15 K]
DOCKED: USER    
DOCKED: USER    (1) Final Intermolecular Energy     =  -13.66 kcal/mol
DOCKED: USER        vdW + Hbond + desolv Energy     =  -13.66 kcal/mol
DOCKED: USER        Electrostatic Energy            =   +0.00 kcal/mol
DOCKED: USER    (2) Final Total Internal Energy     =   -0.91 kcal/mol
DOCKED: USER    (3) Torsional Free Energy           =   +1.49 kcal/mol
DOCKED: USER    (4) Unbound System's Energy  [=(2)] =   -0.91 kcal/mol
DOCKED: USER    
DOCKED: USER    
DOCKED: USER    NEWDPF move ligand.pdbqt
DOCKED: USER    NEWDPF about 0.230000 -0.012000 -0.200000
DOCKED: USER    NEWDPF tran0 24.084451 -17.489975 -2.995475
DOCKED: USER    NEWDPF quaternion0 0.460939 -0.488293 0.738009 -0.066689
DOCKED: USER    NEWDPF axisangle0 0.461968 -0.489382 0.739656 -172.352356
DOCKED: USER    NEWDPF quat0 0.461968 -0.489382 0.739656 -172.352356
DOCKED: USER    NEWDPF dihe0 116.49 -25.21 -53.78 -99.41 -57.08 
DOCKED: USER  keepresnum = 1 
DOCKED: USER  
DOCKED: REMARK  Name = 
DOCKED: REMARK  5 active torsions:
DOCKED: REMARK  status: ('A' for Active; 'I' for Inactive)
DOCKED: REMARK    1  A    between atoms: S_2  and  N_3
DOCKED: REMARK    2  A    between atoms: S_2  and  C_10
DOCKED: REMARK    3  A    between atoms: N_3  and  C_4
DOCKED: REMARK    4  A    between atoms: C_12  and  C_13
DOCKED: REMARK    5  A    between atoms: C_14  and  C_15
DOCKED: REMARK                            x       y       z     vdW  Elec       q    Type
DOCKED: REMARK                         _______ _______ _______ _____ _____    ______ ____
DOCKED: USER                              x       y       z     vdW  Elec       q    Type
DOCKED: USER                           _______ _______ _______ _____ _____    ______ ____
DOCKED: ROOT
DOCKED: ATOM      1  C   UNL     1      25.611 -16.319  -1.969 -0.50 -0.00    +0.000 A 
DOCKED: ATOM      2  C   UNL     1      24.388 -17.000  -2.037 -0.37 -0.00    +0.000 A 
DOCKED: ATOM      3  C   UNL     1      24.145 -18.120  -1.214 -0.68 -0.00    +0.000 A 
DOCKED: ATOM      4  C   UNL     1      25.156 -18.548  -0.337 -0.55 -0.00    +0.000 A 
DOCKED: ATOM      5  C   UNL     1      26.371 -17.862  -0.263 -0.55 -0.00    +0.000 A 
DOCKED: ATOM      6  C   UNL     1      26.598 -16.748  -1.073 -0.44 -0.00    +0.000 A 
DOCKED: ENDROOT
DOCKED: BRANCH   1   8
DOCKED: ATOM      7  O   UNL     1      26.811 -13.941  -2.341 -0.26 -0.00    +0.000 OA
DOCKED: ATOM      8  S   UNL     1      25.909 -14.935  -3.018 -0.60 -0.00    +0.000 S 
DOCKED: ATOM      9  O   UNL     1      24.597 -14.275  -3.329 -0.76 -0.00    +0.000 OA
DOCKED: BRANCH   8  10
DOCKED: ATOM     10  N   UNL     1      26.653 -15.456  -4.499 -0.50 -0.00    +0.000 N 
DOCKED: ATOM     11  H   UNL     1      26.462 -16.369  -4.814 -0.03 +0.00    +0.000 HD
DOCKED: BRANCH  10  12
DOCKED: ATOM     12  C   UNL     1      27.528 -14.635  -5.291 -0.37 -0.00    +0.000 A 
DOCKED: ATOM     13  C   UNL     1      27.313 -13.251  -5.447 -0.20 -0.00    +0.000 A 
DOCKED: ATOM     14  C   UNL     1      28.192 -12.483  -6.217 -0.18 -0.00    +0.000 A 
DOCKED: ATOM     15  C   UNL     1      29.288 -13.083  -6.842 -0.21 -0.00    +0.000 A 
DOCKED: ATOM     16  C   UNL     1      29.505 -14.455  -6.699 -0.30 -0.00    +0.000 A 
DOCKED: ATOM     17  C   UNL     1      28.630 -15.227  -5.930 -0.37 -0.00    +0.000 A 
DOCKED: ENDBRANCH  10  12
DOCKED: ENDBRANCH   8  10
DOCKED: ENDBRANCH   1   8
DOCKED: BRANCH   3  18
DOCKED: ATOM     18  C   UNL     1      22.878 -18.890  -1.266 -0.79 -0.00    +0.000 C 
DOCKED: ATOM     19  C   UNL     1      21.728 -18.470  -0.719 -0.86 -0.00    +0.000 C 
DOCKED: BRANCH  19  20
DOCKED: ATOM     20  C   UNL     1      20.470 -19.242  -0.776 -0.90 -0.00    +0.000 C 
DOCKED: ATOM     21  N   UNL     1      19.630 -19.428   0.371 -0.72 -0.00    +0.000 N 
DOCKED: ATOM     22  O   UNL     1      18.545 -20.231   0.292 -0.90 -0.00    +0.000 OA
DOCKED: ATOM     23  O   UNL     1      20.116 -19.733  -1.882 -2.37 -0.00    +0.000 OA
DOCKED: ATOM     24  H   UNL     1      19.845 -18.971   1.216 -0.25 -0.00    +0.000 HD
DOCKED: ENDBRANCH  19  20
DOCKED: ENDBRANCH   3  18
DOCKED: TORSDOF 5
DOCKED: TER
DOCKED: ENDMDL
________________________________________________________________________________


	BEGINNING GENETIC ALGORITHM DOCKING 65 of 100
Run: 65 Seed: 170935122 108258995 [ Run 65 of 100 GA/GALS ]
Beginning LAMARCKIAN GENETIC ALGORITHM (LGA), with a maximum of 2500000 energy evaluations.

Final-Value: -15.077


	FINAL GENETIC ALGORITHM DOCKED STATE
	_______________________________________________


Detailed state:  trans 23.723 -17.058 -2.814 quatxyzw 0.500419 -0.427410 0.695991 -0.287226 center 0.230 -0.012 -0.200 ntor 5 -122.1122 115.4110 99.1062 172.1555 -167.6784
State:	 23.723 -17.058  -2.814   0.522 -0.446  0.727 -146.616   -122.11  115.41   99.11  172.16 -167.68

DOCKED: MODEL       65
DOCKED: USER    Run = 65
DOCKED: USER    DPF = ligand_dock.biased.dpf
DOCKED: USER  
DOCKED: USER    Estimated Free Energy of Binding    =  -12.60 kcal/mol  [=(1)+(2)+(3)-(4)]
DOCKED: USER    Estimated Inhibition Constant, Ki   =  582.02 pM (picomolar)  [Temperature = 298.15 K]
DOCKED: USER    
DOCKED: USER    (1) Final Intermolecular Energy     =  -14.09 kcal/mol
DOCKED: USER        vdW + Hbond + desolv Energy     =  -14.09 kcal/mol
DOCKED: USER        Electrostatic Energy            =   +0.00 kcal/mol
DOCKED: USER    (2) Final Total Internal Energy     =   -0.99 kcal/mol
DOCKED: USER    (3) Torsional Free Energy           =   +1.49 kcal/mol
DOCKED: USER    (4) Unbound System's Energy  [=(2)] =   -0.99 kcal/mol
DOCKED: USER    
DOCKED: USER    
DOCKED: USER    NEWDPF move ligand.pdbqt
DOCKED: USER    NEWDPF about 0.230000 -0.012000 -0.200000
DOCKED: USER    NEWDPF tran0 23.722905 -17.057739 -2.813724
DOCKED: USER    NEWDPF quaternion0 0.500419 -0.427410 0.695991 -0.287226
DOCKED: USER    NEWDPF axisangle0 0.522433 -0.446212 0.726608 -146.616123
DOCKED: USER    NEWDPF quat0 0.522433 -0.446212 0.726608 -146.616123
DOCKED: USER    NEWDPF dihe0 -122.11 115.41 99.11 172.16 -167.68 
DOCKED: USER  keepresnum = 1 
DOCKED: USER  
DOCKED: REMARK  Name = 
DOCKED: REMARK  5 active torsions:
DOCKED: REMARK  status: ('A' for Active; 'I' for Inactive)
DOCKED: REMARK    1  A    between atoms: S_2  and  N_3
DOCKED: REMARK    2  A    between atoms: S_2  and  C_10
DOCKED: REMARK    3  A    between atoms: N_3  and  C_4
DOCKED: REMARK    4  A    between atoms: C_12  and  C_13
DOCKED: REMARK    5  A    between atoms: C_14  and  C_15
DOCKED: REMARK                            x       y       z     vdW  Elec       q    Type
DOCKED: REMARK                         _______ _______ _______ _____ _____    ______ ____
DOCKED: USER                              x       y       z     vdW  Elec       q    Type
DOCKED: USER                           _______ _______ _______ _____ _____    ______ ____
DOCKED: ROOT
DOCKED: ATOM      1  C   UNL     1      25.702 -16.159  -2.628 -0.48 -0.00    +0.000 A 
DOCKED: ATOM      2  C   UNL     1      24.422 -16.485  -2.156 -0.19 -0.00    +0.000 A 
DOCKED: ATOM      3  C   UNL     1      24.266 -17.307  -1.020 -0.63 -0.00    +0.000 A 
DOCKED: ATOM      4  C   UNL     1      25.414 -17.806  -0.382 -0.61 -0.00    +0.000 A 
DOCKED: ATOM      5  C   UNL     1      26.688 -17.472  -0.848 -0.49 -0.00    +0.000 A 
DOCKED: ATOM      6  C   UNL     1      26.834 -16.648  -1.965 -0.36 -0.00    +0.000 A 
DOCKED: ENDROOT
DOCKED: BRANCH   1   8
DOCKED: ATOM      7  O   UNL     1      24.835 -14.070  -4.083 -1.07 -0.00    +0.000 OA
DOCKED: ATOM      8  S   UNL     1      25.882 -15.148  -4.060 -0.74 -0.00    +0.000 S 
DOCKED: ATOM      9  O   UNL     1      25.725 -16.010  -5.280 -1.07 +0.00    +0.000 OA
DOCKED: BRANCH   8  10
DOCKED: ATOM     10  N   UNL     1      27.454 -14.411  -4.079 -0.28 -0.00    +0.000 N 
DOCKED: ATOM     11  H   UNL     1      27.695 -13.820  -3.330 +0.00 -0.00    +0.000 HD
DOCKED: BRANCH  10  12
DOCKED: ATOM     12  C   UNL     1      28.424 -14.614  -5.121 -0.30 -0.00    +0.000 A 
DOCKED: ATOM     13  C   UNL     1      28.671 -13.640  -6.109 -0.25 -0.00    +0.000 A 
DOCKED: ATOM     14  C   UNL     1      29.629 -13.868  -7.101 -0.26 -0.00    +0.000 A 
DOCKED: ATOM     15  C   UNL     1      30.346 -15.066  -7.124 -0.26 -0.00    +0.000 A 
DOCKED: ATOM     16  C   UNL     1      30.103 -16.041  -6.154 -0.30 -0.00    +0.000 A 
DOCKED: ATOM     17  C   UNL     1      29.147 -15.818  -5.160 -0.30 -0.00    +0.000 A 
DOCKED: ENDBRANCH  10  12
DOCKED: ENDBRANCH   8  10
DOCKED: ENDBRANCH   1   8
DOCKED: BRANCH   3  18
DOCKED: ATOM     18  C   UNL     1      22.935 -17.702  -0.496 -0.78 -0.00    +0.000 C 
DOCKED: ATOM     19  C   UNL     1      22.161 -18.640  -1.061 -0.82 -0.00    +0.000 C 
DOCKED: BRANCH  19  20
DOCKED: ATOM     20  C   UNL     1      20.837 -19.029  -0.532 -0.87 -0.00    +0.000 C 
DOCKED: ATOM     21  N   UNL     1      20.627 -20.249   0.189 -0.67 -0.00    +0.000 N 
DOCKED: ATOM     22  O   UNL     1      19.377 -20.610   0.560 -0.89 -0.00    +0.000 OA
DOCKED: ATOM     23  O   UNL     1      19.867 -18.243  -0.706 -1.87 -0.00    +0.000 OA
DOCKED: ATOM     24  H   UNL     1      21.393 -20.825   0.415 -0.61 -0.00    +0.000 HD
DOCKED: ENDBRANCH  19  20
DOCKED: ENDBRANCH   3  18
DOCKED: TORSDOF 5
DOCKED: TER
DOCKED: ENDMDL
________________________________________________________________________________


	BEGINNING GENETIC ALGORITHM DOCKING 66 of 100
Run: 66 Seed: 283350945 1541486549 [ Run 66 of 100 GA/GALS ]
Beginning LAMARCKIAN GENETIC ALGORITHM (LGA), with a maximum of 2500000 energy evaluations.

Final-Value: -15.271


	FINAL GENETIC ALGORITHM DOCKED STATE
	_______________________________________________


Detailed state:  trans 24.186 -17.769 -2.869 quatxyzw 0.513566 -0.357609 0.766714 -0.143232 center 0.230 -0.012 -0.200 ntor 5 44.2531 116.5853 1.4083 159.4352 -145.0550
State:	 24.186 -17.769  -2.869   0.519 -0.361  0.775 -163.530     44.25  116.59    1.41  159.44 -145.05

DOCKED: MODEL       66
DOCKED: USER    Run = 66
DOCKED: USER    DPF = ligand_dock.biased.dpf
DOCKED: USER  
DOCKED: USER    Estimated Free Energy of Binding    =  -12.75 kcal/mol  [=(1)+(2)+(3)-(4)]
DOCKED: USER    Estimated Inhibition Constant, Ki   =  450.55 pM (picomolar)  [Temperature = 298.15 K]
DOCKED: USER    
DOCKED: USER    (1) Final Intermolecular Energy     =  -14.24 kcal/mol
DOCKED: USER        vdW + Hbond + desolv Energy     =  -14.24 kcal/mol
DOCKED: USER        Electrostatic Energy            =   +0.00 kcal/mol
DOCKED: USER    (2) Final Total Internal Energy     =   -1.03 kcal/mol
DOCKED: USER    (3) Torsional Free Energy           =   +1.49 kcal/mol
DOCKED: USER    (4) Unbound System's Energy  [=(2)] =   -1.03 kcal/mol
DOCKED: USER    
DOCKED: USER    
DOCKED: USER    NEWDPF move ligand.pdbqt
DOCKED: USER    NEWDPF about 0.230000 -0.012000 -0.200000
DOCKED: USER    NEWDPF tran0 24.186409 -17.768580 -2.869359
DOCKED: USER    NEWDPF quaternion0 0.513566 -0.357609 0.766714 -0.143232
DOCKED: USER    NEWDPF axisangle0 0.518916 -0.361335 0.774702 -163.530168
DOCKED: USER    NEWDPF quat0 0.518916 -0.361335 0.774702 -163.530168
DOCKED: USER    NEWDPF dihe0 44.25 116.59 1.41 159.44 -145.05 
DOCKED: USER  keepresnum = 1 
DOCKED: USER  
DOCKED: REMARK  Name = 
DOCKED: REMARK  5 active torsions:
DOCKED: REMARK  status: ('A' for Active; 'I' for Inactive)
DOCKED: REMARK    1  A    between atoms: S_2  and  N_3
DOCKED: REMARK    2  A    between atoms: S_2  and  C_10
DOCKED: REMARK    3  A    between atoms: N_3  and  C_4
DOCKED: REMARK    4  A    between atoms: C_12  and  C_13
DOCKED: REMARK    5  A    between atoms: C_14  and  C_15
DOCKED: REMARK                            x       y       z     vdW  Elec       q    Type
DOCKED: REMARK                         _______ _______ _______ _____ _____    ______ ____
DOCKED: USER                              x       y       z     vdW  Elec       q    Type
DOCKED: USER                           _______ _______ _______ _____ _____    ______ ____
DOCKED: ROOT
DOCKED: ATOM      1  C   UNL     1      25.734 -16.291  -2.448 -0.48 -0.00    +0.000 A 
DOCKED: ATOM      2  C   UNL     1      24.573 -17.014  -2.141 -0.40 -0.00    +0.000 A 
DOCKED: ATOM      3  C   UNL     1      24.535 -17.861  -1.014 -0.67 -0.00    +0.000 A 
DOCKED: ATOM      4  C   UNL     1      25.684 -17.979  -0.215 -0.59 -0.00    +0.000 A 
DOCKED: ATOM      5  C   UNL     1      26.838 -17.251  -0.517 -0.47 -0.00    +0.000 A 
DOCKED: ATOM      6  C   UNL     1      26.863 -16.406  -1.627 -0.38 -0.00    +0.000 A 
DOCKED: ENDROOT
DOCKED: BRANCH   1   8
DOCKED: ATOM      7  O   UNL     1      24.728 -14.179  -3.775 -1.02 -0.00    +0.000 OA
DOCKED: ATOM      8  S   UNL     1      25.776 -15.253  -3.871 -0.72 -0.00    +0.000 S 
DOCKED: ATOM      9  O   UNL     1      25.507 -16.092  -5.087 -0.94 -0.00    +0.000 OA
DOCKED: BRANCH   8  10
DOCKED: ATOM     10  N   UNL     1      27.337 -14.508  -4.023 -0.30 -0.00    +0.000 N 
DOCKED: ATOM     11  H   UNL     1      27.568 -13.787  -3.394 +0.00 -0.00    +0.000 HD
DOCKED: BRANCH  10  12
DOCKED: ATOM     12  C   UNL     1      28.312 -14.881  -5.013 -0.32 -0.00    +0.000 A 
DOCKED: ATOM     13  C   UNL     1      28.564 -14.085  -6.148 -0.31 -0.00    +0.000 A 
DOCKED: ATOM     14  C   UNL     1      29.527 -14.475  -7.084 -0.30 -0.00    +0.000 A 
DOCKED: ATOM     15  C   UNL     1      30.244 -15.660  -6.902 -0.28 -0.00    +0.000 A 
DOCKED: ATOM     16  C   UNL     1      29.996 -16.459  -5.785 -0.30 -0.00    +0.000 A 
DOCKED: ATOM     17  C   UNL     1      29.035 -16.074  -4.846 -0.28 -0.00    +0.000 A 
DOCKED: ENDBRANCH  10  12
DOCKED: ENDBRANCH   8  10
DOCKED: ENDBRANCH   1   8
DOCKED: BRANCH   3  18
DOCKED: ATOM     18  C   UNL     1      23.339 -18.667  -0.659 -0.82 -0.00    +0.000 C 
DOCKED: ATOM     19  C   UNL     1      22.098 -18.382  -1.081 -0.78 -0.00    +0.000 C 
DOCKED: BRANCH  19  20
DOCKED: ATOM     20  C   UNL     1      20.913 -19.190  -0.726 -0.89 -0.00    +0.000 C 
DOCKED: ATOM     21  N   UNL     1      20.470 -19.348   0.628 -0.68 -0.00    +0.000 N 
DOCKED: ATOM     22  O   UNL     1      19.444 -20.183   0.912 -0.79 -0.00    +0.000 OA
DOCKED: ATOM     23  O   UNL     1      20.259 -19.737  -1.654 -2.31 -0.00    +0.000 OA
DOCKED: ATOM     24  H   UNL     1      20.914 -18.849   1.351 -0.23 -0.00    +0.000 HD
DOCKED: ENDBRANCH  19  20
DOCKED: ENDBRANCH   3  18
DOCKED: TORSDOF 5
DOCKED: TER
DOCKED: ENDMDL
________________________________________________________________________________


	BEGINNING GENETIC ALGORITHM DOCKING 67 of 100
Run: 67 Seed: 1483630390 2145296685 [ Run 67 of 100 GA/GALS ]
Beginning LAMARCKIAN GENETIC ALGORITHM (LGA), with a maximum of 2500000 energy evaluations.

Final-Value: -14.574


	FINAL GENETIC ALGORITHM DOCKED STATE
	_______________________________________________


Detailed state:  trans 23.883 -17.092 -2.906 quatxyzw -0.428912 0.535455 -0.704087 0.183258 center 0.230 -0.012 -0.200 ntor 5 -141.0235 -79.3230 179.6794 54.4338 156.4133
State:	 23.883 -17.092  -2.906  -0.436  0.545 -0.716 158.881   -141.02  -79.32  179.68   54.43  156.41

DOCKED: MODEL       67
DOCKED: USER    Run = 67
DOCKED: USER    DPF = ligand_dock.biased.dpf
DOCKED: USER  
DOCKED: USER    Estimated Free Energy of Binding    =  -11.84 kcal/mol  [=(1)+(2)+(3)-(4)]
DOCKED: USER    Estimated Inhibition Constant, Ki   =    2.11 nM (nanomolar)  [Temperature = 298.15 K]
DOCKED: USER    
DOCKED: USER    (1) Final Intermolecular Energy     =  -13.33 kcal/mol
DOCKED: USER        vdW + Hbond + desolv Energy     =  -13.33 kcal/mol
DOCKED: USER        Electrostatic Energy            =   +0.00 kcal/mol
DOCKED: USER    (2) Final Total Internal Energy     =   -1.25 kcal/mol
DOCKED: USER    (3) Torsional Free Energy           =   +1.49 kcal/mol
DOCKED: USER    (4) Unbound System's Energy  [=(2)] =   -1.25 kcal/mol
DOCKED: USER    
DOCKED: USER    
DOCKED: USER    NEWDPF move ligand.pdbqt
DOCKED: USER    NEWDPF about 0.230000 -0.012000 -0.200000
DOCKED: USER    NEWDPF tran0 23.883271 -17.092149 -2.906086
DOCKED: USER    NEWDPF quaternion0 -0.428912 0.535455 -0.704087 0.183258
DOCKED: USER    NEWDPF axisangle0 -0.436301 0.544679 -0.716216 158.880881
DOCKED: USER    NEWDPF quat0 -0.436301 0.544679 -0.716216 158.880881
DOCKED: USER    NEWDPF dihe0 -141.02 -79.32 179.68 54.43 156.41 
DOCKED: USER  keepresnum = 1 
DOCKED: USER  
DOCKED: REMARK  Name = 
DOCKED: REMARK  5 active torsions:
DOCKED: REMARK  status: ('A' for Active; 'I' for Inactive)
DOCKED: REMARK    1  A    between atoms: S_2  and  N_3
DOCKED: REMARK    2  A    between atoms: S_2  and  C_10
DOCKED: REMARK    3  A    between atoms: N_3  and  C_4
DOCKED: REMARK    4  A    between atoms: C_12  and  C_13
DOCKED: REMARK    5  A    between atoms: C_14  and  C_15
DOCKED: REMARK                            x       y       z     vdW  Elec       q    Type
DOCKED: REMARK                         _______ _______ _______ _____ _____    ______ ____
DOCKED: USER                              x       y       z     vdW  Elec       q    Type
DOCKED: USER                           _______ _______ _______ _____ _____    ______ ____
DOCKED: ROOT
DOCKED: ATOM      1  C   UNL     1      25.741 -16.341  -2.044 -0.49 -0.00    +0.000 A 
DOCKED: ATOM      2  C   UNL     1      24.386 -16.696  -1.989 -0.35 -0.00    +0.000 A 
DOCKED: ATOM      3  C   UNL     1      23.949 -17.722  -1.125 -0.68 -0.00    +0.000 A 
DOCKED: ATOM      4  C   UNL     1      24.898 -18.391  -0.334 -0.60 -0.00    +0.000 A 
DOCKED: ATOM      5  C   UNL     1      26.246 -18.030  -0.383 -0.56 -0.00    +0.000 A 
DOCKED: ATOM      6  C   UNL     1      26.668 -17.006  -1.232 -0.45 -0.00    +0.000 A 
DOCKED: ENDROOT
DOCKED: BRANCH   1   8
DOCKED: ATOM      7  O   UNL     1      25.107 -14.486  -3.885 -0.96 -0.00    +0.000 OA
DOCKED: ATOM      8  S   UNL     1      26.276 -15.073  -3.145 -0.58 -0.00    +0.000 S 
DOCKED: ATOM      9  O   UNL     1      27.235 -15.669  -4.136 -0.48 -0.00    +0.000 OA
DOCKED: BRANCH   8  10
DOCKED: ATOM     10  N   UNL     1      27.077 -13.812  -2.260 -0.20 -0.00    +0.000 N 
DOCKED: ATOM     11  H   UNL     1      27.399 -13.028  -2.761 +0.00 -0.00    +0.000 HD
DOCKED: BRANCH  10  12
DOCKED: ATOM     12  C   UNL     1      27.299 -13.844  -0.839 -0.20 -0.00    +0.000 A 
DOCKED: ATOM     13  C   UNL     1      26.377 -13.294   0.073 -0.25 -0.00    +0.000 A 
DOCKED: ATOM     14  C   UNL     1      26.622 -13.353   1.448 -0.26 -0.00    +0.000 A 
DOCKED: ATOM     15  C   UNL     1      27.787 -13.954   1.929 -0.27 -0.00    +0.000 A 
DOCKED: ATOM     16  C   UNL     1      28.711 -14.496   1.033 -0.18 -0.00    +0.000 A 
DOCKED: ATOM     17  C   UNL     1      28.471 -14.440  -0.342 -0.15 -0.00    +0.000 A 
DOCKED: ENDBRANCH  10  12
DOCKED: ENDBRANCH   8  10
DOCKED: ENDBRANCH   1   8
DOCKED: BRANCH   3  18
DOCKED: ATOM     18  C   UNL     1      22.530 -18.152  -1.047 -0.79 -0.00    +0.000 C 
DOCKED: ATOM     19  C   UNL     1      22.142 -19.359  -0.612 -0.75 -0.00    +0.000 C 
DOCKED: BRANCH  19  20
DOCKED: ATOM     20  C   UNL     1      20.727 -19.780  -0.536 -0.81 -0.00    +0.000 C 
DOCKED: ATOM     21  N   UNL     1      20.124 -20.228   0.684 -0.70 -0.00    +0.000 N 
DOCKED: ATOM     22  O   UNL     1      18.857 -20.702   0.679 -0.84 -0.00    +0.000 OA
DOCKED: ATOM     23  O   UNL     1      20.025 -19.717  -1.581 -2.29 -0.00    +0.000 OA
DOCKED: ATOM     24  H   UNL     1      20.633 -20.192   1.526 -0.49 -0.00    +0.000 HD
DOCKED: ENDBRANCH  19  20
DOCKED: ENDBRANCH   3  18
DOCKED: TORSDOF 5
DOCKED: TER
DOCKED: ENDMDL
________________________________________________________________________________


	BEGINNING GENETIC ALGORITHM DOCKING 68 of 100
Run: 68 Seed: 124708460 1542260120 [ Run 68 of 100 GA/GALS ]
Beginning LAMARCKIAN GENETIC ALGORITHM (LGA), with a maximum of 2500000 energy evaluations.

Final-Value: -14.382


	FINAL GENETIC ALGORITHM DOCKED STATE
	_______________________________________________


Detailed state:  trans 24.292 -17.683 -3.120 quatxyzw -0.368501 0.440872 -0.802784 0.159301 center 0.230 -0.012 -0.200 ntor 5 -179.9846 71.0338 -157.4339 -171.8348 -121.4167
State:	 24.292 -17.683  -3.120  -0.373  0.447 -0.813 161.667   -179.98   71.03 -157.43 -171.83 -121.42

DOCKED: MODEL       68
DOCKED: USER    Run = 68
DOCKED: USER    DPF = ligand_dock.biased.dpf
DOCKED: USER  
DOCKED: USER    Estimated Free Energy of Binding    =  -11.96 kcal/mol  [=(1)+(2)+(3)-(4)]
DOCKED: USER    Estimated Inhibition Constant, Ki   =    1.70 nM (nanomolar)  [Temperature = 298.15 K]
DOCKED: USER    
DOCKED: USER    (1) Final Intermolecular Energy     =  -13.46 kcal/mol
DOCKED: USER        vdW + Hbond + desolv Energy     =  -13.46 kcal/mol
DOCKED: USER        Electrostatic Energy            =   +0.00 kcal/mol
DOCKED: USER    (2) Final Total Internal Energy     =   -0.93 kcal/mol
DOCKED: USER    (3) Torsional Free Energy           =   +1.49 kcal/mol
DOCKED: USER    (4) Unbound System's Energy  [=(2)] =   -0.93 kcal/mol
DOCKED: USER    
DOCKED: USER    
DOCKED: USER    NEWDPF move ligand.pdbqt
DOCKED: USER    NEWDPF about 0.230000 -0.012000 -0.200000
DOCKED: USER    NEWDPF tran0 24.292290 -17.683398 -3.119892
DOCKED: USER    NEWDPF quaternion0 -0.368501 0.440872 -0.802784 0.159301
DOCKED: USER    NEWDPF axisangle0 -0.373267 0.446575 -0.813168 161.667380
DOCKED: USER    NEWDPF quat0 -0.373267 0.446575 -0.813168 161.667380
DOCKED: USER    NEWDPF dihe0 -179.98 71.03 -157.43 -171.83 -121.42 
DOCKED: USER  keepresnum = 1 
DOCKED: USER  
DOCKED: REMARK  Name = 
DOCKED: REMARK  5 active torsions:
DOCKED: REMARK  status: ('A' for Active; 'I' for Inactive)
DOCKED: REMARK    1  A    between atoms: S_2  and  N_3
DOCKED: REMARK    2  A    between atoms: S_2  and  C_10
DOCKED: REMARK    3  A    between atoms: N_3  and  C_4
DOCKED: REMARK    4  A    between atoms: C_12  and  C_13
DOCKED: REMARK    5  A    between atoms: C_14  and  C_15
DOCKED: REMARK                            x       y       z     vdW  Elec       q    Type
DOCKED: REMARK                         _______ _______ _______ _____ _____    ______ ____
DOCKED: USER                              x       y       z     vdW  Elec       q    Type
DOCKED: USER                           _______ _______ _______ _____ _____    ______ ____
DOCKED: ROOT
DOCKED: ATOM      1  C   UNL     1      25.924 -16.564  -2.202 -0.46 -0.00    +0.000 A 
DOCKED: ATOM      2  C   UNL     1      24.605 -17.036  -2.264 -0.29 -0.00    +0.000 A 
DOCKED: ATOM      3  C   UNL     1      24.097 -17.874  -1.249 -0.68 -0.00    +0.000 A 
DOCKED: ATOM      4  C   UNL     1      24.940 -18.240  -0.187 -0.62 -0.00    +0.000 A 
DOCKED: ATOM      5  C   UNL     1      26.251 -17.761  -0.122 -0.54 -0.00    +0.000 A 
DOCKED: ATOM      6  C   UNL     1      26.742 -16.922  -1.123 -0.44 -0.00    +0.000 A 
DOCKED: ENDROOT
DOCKED: BRANCH   1   8
DOCKED: ATOM      7  O   UNL     1      26.176 -14.099  -3.248 -0.39 -0.00    +0.000 OA
DOCKED: ATOM      8  S   UNL     1      26.552 -15.535  -3.487 -0.58 -0.00    +0.000 S 
DOCKED: ATOM      9  O   UNL     1      25.966 -15.985  -4.795 -0.93 -0.00    +0.000 OA
DOCKED: BRANCH   8  10
DOCKED: ATOM     10  N   UNL     1      28.283 -15.661  -3.562 -0.26 -0.00    +0.000 N 
DOCKED: ATOM     11  H   UNL     1      28.785 -15.638  -2.715 +0.00 -0.00    +0.000 HD
DOCKED: BRANCH  10  12
DOCKED: ATOM     12  C   UNL     1      29.026 -15.798  -4.786 -0.28 -0.00    +0.000 A 
DOCKED: ATOM     13  C   UNL     1      28.959 -14.834  -5.811 -0.32 -0.00    +0.000 A 
DOCKED: ATOM     14  C   UNL     1      29.704 -14.996  -6.983 -0.28 -0.00    +0.000 A 
DOCKED: ATOM     15  C   UNL     1      30.517 -16.119  -7.149 -0.27 -0.00    +0.000 A 
DOCKED: ATOM     16  C   UNL     1      30.585 -17.084  -6.142 -0.29 -0.00    +0.000 A 
DOCKED: ATOM     17  C   UNL     1      29.842 -16.927  -4.968 -0.27 -0.00    +0.000 A 
DOCKED: ENDBRANCH  10  12
DOCKED: ENDBRANCH   8  10
DOCKED: ENDBRANCH   1   8
DOCKED: BRANCH   3  18
DOCKED: ATOM     18  C   UNL     1      22.717 -18.421  -1.280 -0.74 -0.00    +0.000 C 
DOCKED: ATOM     19  C   UNL     1      22.213 -19.224  -0.332 -0.73 -0.00    +0.000 C 
DOCKED: BRANCH  19  20
DOCKED: ATOM     20  C   UNL     1      20.838 -19.763  -0.369 -0.80 -0.00    +0.000 C 
DOCKED: ATOM     21  N   UNL     1      20.190 -20.294   0.794 -0.68 -0.00    +0.000 N 
DOCKED: ATOM     22  O   UNL     1      18.972 -20.872   0.686 -0.84 -0.00    +0.000 OA
DOCKED: ATOM     23  O   UNL     1      20.210 -19.730  -1.461 -2.24 -0.00    +0.000 OA
DOCKED: ATOM     24  H   UNL     1      20.633 -20.239   1.671 -0.52 -0.00    +0.000 HD
DOCKED: ENDBRANCH  19  20
DOCKED: ENDBRANCH   3  18
DOCKED: TORSDOF 5
DOCKED: TER
DOCKED: ENDMDL
________________________________________________________________________________


	BEGINNING GENETIC ALGORITHM DOCKING 69 of 100
Run: 69 Seed: 413128942 2115333557 [ Run 69 of 100 GA/GALS ]
Beginning LAMARCKIAN GENETIC ALGORITHM (LGA), with a maximum of 2500000 energy evaluations.

Final-Value: -14.418


	FINAL GENETIC ALGORITHM DOCKED STATE
	_______________________________________________


Detailed state:  trans 23.993 -17.195 -2.986 quatxyzw -0.426767 0.425118 -0.768904 0.214316 center 0.230 -0.012 -0.200 ntor 5 -98.7244 -5.5160 130.1927 -166.8841 78.6448
State:	 23.993 -17.195  -2.986  -0.437  0.435 -0.787 155.249    -98.72   -5.52  130.19 -166.88   78.64

DOCKED: MODEL       69
DOCKED: USER    Run = 69
DOCKED: USER    DPF = ligand_dock.biased.dpf
DOCKED: USER  
DOCKED: USER    Estimated Free Energy of Binding    =  -12.10 kcal/mol  [=(1)+(2)+(3)-(4)]
DOCKED: USER    Estimated Inhibition Constant, Ki   =    1.35 nM (nanomolar)  [Temperature = 298.15 K]
DOCKED: USER    
DOCKED: USER    (1) Final Intermolecular Energy     =  -13.59 kcal/mol
DOCKED: USER        vdW + Hbond + desolv Energy     =  -13.59 kcal/mol
DOCKED: USER        Electrostatic Energy            =   +0.00 kcal/mol
DOCKED: USER    (2) Final Total Internal Energy     =   -0.82 kcal/mol
DOCKED: USER    (3) Torsional Free Energy           =   +1.49 kcal/mol
DOCKED: USER    (4) Unbound System's Energy  [=(2)] =   -0.82 kcal/mol
DOCKED: USER    
DOCKED: USER    
DOCKED: USER    NEWDPF move ligand.pdbqt
DOCKED: USER    NEWDPF about 0.230000 -0.012000 -0.200000
DOCKED: USER    NEWDPF tran0 23.993463 -17.194713 -2.986115
DOCKED: USER    NEWDPF quaternion0 -0.426767 0.425118 -0.768904 0.214316
DOCKED: USER    NEWDPF axisangle0 -0.436919 0.435230 -0.787195 155.249254
DOCKED: USER    NEWDPF quat0 -0.436919 0.435230 -0.787195 155.249254
DOCKED: USER    NEWDPF dihe0 -98.72 -5.52 130.19 -166.88 78.64 
DOCKED: USER  keepresnum = 1 
DOCKED: USER  
DOCKED: REMARK  Name = 
DOCKED: REMARK  5 active torsions:
DOCKED: REMARK  status: ('A' for Active; 'I' for Inactive)
DOCKED: REMARK    1  A    between atoms: S_2  and  N_3
DOCKED: REMARK    2  A    between atoms: S_2  and  C_10
DOCKED: REMARK    3  A    between atoms: N_3  and  C_4
DOCKED: REMARK    4  A    between atoms: C_12  and  C_13
DOCKED: REMARK    5  A    between atoms: C_14  and  C_15
DOCKED: REMARK                            x       y       z     vdW  Elec       q    Type
DOCKED: REMARK                         _______ _______ _______ _____ _____    ______ ____
DOCKED: USER                              x       y       z     vdW  Elec       q    Type
DOCKED: USER                           _______ _______ _______ _____ _____    ______ ____
DOCKED: ROOT
DOCKED: ATOM      1  C   UNL     1      25.796 -16.124  -2.384 -0.47 -0.00    +0.000 A 
DOCKED: ATOM      2  C   UNL     1      24.471 -16.548  -2.209 -0.20 -0.00    +0.000 A 
DOCKED: ATOM      3  C   UNL     1      24.116 -17.352  -1.106 -0.64 -0.00    +0.000 A 
DOCKED: ATOM      4  C   UNL     1      25.116 -17.734  -0.196 -0.55 -0.00    +0.000 A 
DOCKED: ATOM      5  C   UNL     1      26.434 -17.303  -0.366 -0.51 -0.00    +0.000 A 
DOCKED: ATOM      6  C   UNL     1      26.774 -16.497  -1.454 -0.40 -0.00    +0.000 A 
DOCKED: ENDROOT
DOCKED: BRANCH   1   8
DOCKED: ATOM      7  O   UNL     1      26.300 -15.980  -5.022 -1.00 +0.00    +0.000 OA
DOCKED: ATOM      8  S   UNL     1      26.230 -15.138  -3.778 -0.66 -0.00    +0.000 S 
DOCKED: ATOM      9  O   UNL     1      27.575 -14.517  -3.530 -0.25 -0.00    +0.000 OA
DOCKED: BRANCH   8  10
DOCKED: ATOM     10  N   UNL     1      25.054 -13.881  -4.011 -0.52 -0.00    +0.000 N 
DOCKED: ATOM     11  H   UNL     1      24.106 -14.103  -3.867 -0.19 -0.00    +0.000 HD
DOCKED: BRANCH  10  12
DOCKED: ATOM     12  C   UNL     1      25.383 -12.536  -4.401 -0.27 -0.00    +0.000 A 
DOCKED: ATOM     13  C   UNL     1      26.690 -12.023  -4.283 -0.22 -0.00    +0.000 A 
DOCKED: ATOM     14  C   UNL     1      26.973 -10.714  -4.682 -0.14 -0.00    +0.000 A 
DOCKED: ATOM     15  C   UNL     1      25.960  -9.902  -5.197 -0.19 -0.00    +0.000 A 
DOCKED: ATOM     16  C   UNL     1      24.660 -10.398  -5.312 -0.37 -0.00    +0.000 A 
DOCKED: ATOM     17  C   UNL     1      24.372 -11.707  -4.915 -0.20 -0.00    +0.000 A 
DOCKED: ENDBRANCH  10  12
DOCKED: ENDBRANCH   8  10
DOCKED: ENDBRANCH   1   8
DOCKED: BRANCH   3  18
DOCKED: ATOM     18  C   UNL     1      22.733 -17.847  -0.890 -0.78 -0.00    +0.000 C 
DOCKED: ATOM     19  C   UNL     1      22.363 -19.123  -1.069 -0.78 -0.00    +0.000 C 
DOCKED: BRANCH  19  20
DOCKED: ATOM     20  C   UNL     1      20.985 -19.609  -0.849 -0.81 -0.00    +0.000 C 
DOCKED: ATOM     21  N   UNL     1      20.479 -19.920   0.455 -0.70 -0.00    +0.000 N 
DOCKED: ATOM     22  O   UNL     1      19.247 -20.461   0.592 -0.88 -0.00    +0.000 OA
DOCKED: ATOM     23  O   UNL     1      20.225 -19.729  -1.848 -2.37 -0.00    +0.000 OA
DOCKED: ATOM     24  H   UNL     1      21.029 -19.739   1.251 -0.50 -0.00    +0.000 HD
DOCKED: ENDBRANCH  19  20
DOCKED: ENDBRANCH   3  18
DOCKED: TORSDOF 5
DOCKED: TER
DOCKED: ENDMDL
________________________________________________________________________________


	BEGINNING GENETIC ALGORITHM DOCKING 70 of 100
Run: 70 Seed: 18063668 1209012648 [ Run 70 of 100 GA/GALS ]
Beginning LAMARCKIAN GENETIC ALGORITHM (LGA), with a maximum of 2500000 energy evaluations.

Final-Value: -14.809


	FINAL GENETIC ALGORITHM DOCKED STATE
	_______________________________________________


Detailed state:  trans 24.090 -17.604 -2.953 quatxyzw -0.497945 0.443676 -0.739859 0.088380 center 0.230 -0.012 -0.200 ntor 5 85.7506 114.1534 -28.1842 -60.3625 -58.3603
State:	 24.090 -17.604  -2.953  -0.500  0.445 -0.743 169.859     85.75  114.15  -28.18  -60.36  -58.36

DOCKED: MODEL       70
DOCKED: USER    Run = 70
DOCKED: USER    DPF = ligand_dock.biased.dpf
DOCKED: USER  
DOCKED: USER    Estimated Free Energy of Binding    =  -12.32 kcal/mol  [=(1)+(2)+(3)-(4)]
DOCKED: USER    Estimated Inhibition Constant, Ki   =  926.55 pM (picomolar)  [Temperature = 298.15 K]
DOCKED: USER    
DOCKED: USER    (1) Final Intermolecular Energy     =  -13.81 kcal/mol
DOCKED: USER        vdW + Hbond + desolv Energy     =  -13.81 kcal/mol
DOCKED: USER        Electrostatic Energy            =   +0.00 kcal/mol
DOCKED: USER    (2) Final Total Internal Energy     =   -0.99 kcal/mol
DOCKED: USER    (3) Torsional Free Energy           =   +1.49 kcal/mol
DOCKED: USER    (4) Unbound System's Energy  [=(2)] =   -0.99 kcal/mol
DOCKED: USER    
DOCKED: USER    
DOCKED: USER    NEWDPF move ligand.pdbqt
DOCKED: USER    NEWDPF about 0.230000 -0.012000 -0.200000
DOCKED: USER    NEWDPF tran0 24.089566 -17.603972 -2.953476
DOCKED: USER    NEWDPF quaternion0 -0.497945 0.443676 -0.739859 0.088380
DOCKED: USER    NEWDPF axisangle0 -0.499902 0.445419 -0.742765 169.859147
DOCKED: USER    NEWDPF quat0 -0.499902 0.445419 -0.742765 169.859147
DOCKED: USER    NEWDPF dihe0 85.75 114.15 -28.18 -60.36 -58.36 
DOCKED: USER  keepresnum = 1 
DOCKED: USER  
DOCKED: REMARK  Name = 
DOCKED: REMARK  5 active torsions:
DOCKED: REMARK  status: ('A' for Active; 'I' for Inactive)
DOCKED: REMARK    1  A    between atoms: S_2  and  N_3
DOCKED: REMARK    2  A    between atoms: S_2  and  C_10
DOCKED: REMARK    3  A    between atoms: N_3  and  C_4
DOCKED: REMARK    4  A    between atoms: C_12  and  C_13
DOCKED: REMARK    5  A    between atoms: C_14  and  C_15
DOCKED: REMARK                            x       y       z     vdW  Elec       q    Type
DOCKED: REMARK                         _______ _______ _______ _____ _____    ______ ____
DOCKED: USER                              x       y       z     vdW  Elec       q    Type
DOCKED: USER                           _______ _______ _______ _____ _____    ______ ____
DOCKED: ROOT
DOCKED: ATOM      1  C   UNL     1      25.633 -16.287  -2.153 -0.49 -0.00    +0.000 A 
DOCKED: ATOM      2  C   UNL     1      24.443 -17.023  -2.066 -0.38 -0.00    +0.000 A 
DOCKED: ATOM      3  C   UNL     1      24.320 -18.078  -1.138 -0.68 -0.00    +0.000 A 
DOCKED: ATOM      4  C   UNL     1      25.416 -18.388  -0.315 -0.59 -0.00    +0.000 A 
DOCKED: ATOM      5  C   UNL     1      26.598 -17.648  -0.397 -0.52 -0.00    +0.000 A 
DOCKED: ATOM      6  C   UNL     1      26.707 -16.597  -1.309 -0.42 -0.00    +0.000 A 
DOCKED: ENDROOT
DOCKED: BRANCH   1   8
DOCKED: ATOM      7  O   UNL     1      26.658 -13.886  -2.801 -0.29 -0.00    +0.000 OA
DOCKED: ATOM      8  S   UNL     1      25.781 -14.985  -3.332 -0.66 -0.00    +0.000 S 
DOCKED: ATOM      9  O   UNL     1      24.413 -14.430  -3.610 -0.84 -0.00    +0.000 OA
DOCKED: BRANCH   8  10
DOCKED: ATOM     10  N   UNL     1      26.464 -15.591  -4.809 -0.55 -0.00    +0.000 N 
DOCKED: ATOM     11  H   UNL     1      25.929 -16.225  -5.339 -0.09 +0.00    +0.000 HD
DOCKED: BRANCH  10  12
DOCKED: ATOM     12  C   UNL     1      27.763 -15.222  -5.303 -0.39 -0.00    +0.000 A 
DOCKED: ATOM     13  C   UNL     1      28.879 -16.072  -5.175 -0.28 -0.00    +0.000 A 
DOCKED: ATOM     14  C   UNL     1      30.125 -15.684  -5.677 -0.24 -0.00    +0.000 A 
DOCKED: ATOM     15  C   UNL     1      30.273 -14.446  -6.307 -0.19 -0.00    +0.000 A 
DOCKED: ATOM     16  C   UNL     1      29.175 -13.593  -6.433 -0.23 -0.00    +0.000 A 
DOCKED: ATOM     17  C   UNL     1      27.928 -13.977  -5.932 -0.26 -0.00    +0.000 A 
DOCKED: ENDBRANCH  10  12
DOCKED: ENDBRANCH   8  10
DOCKED: ENDBRANCH   1   8
DOCKED: BRANCH   3  18
DOCKED: ATOM     18  C   UNL     1      23.091 -18.903  -1.024 -0.81 -0.00    +0.000 C 
DOCKED: ATOM     19  C   UNL     1      21.859 -18.389  -0.892 -0.81 -0.00    +0.000 C 
DOCKED: BRANCH  19  20
DOCKED: ATOM     20  C   UNL     1      20.641 -19.217  -0.781 -0.90 -0.00    +0.000 C 
DOCKED: ATOM     21  N   UNL     1      19.967 -19.427   0.467 -0.70 -0.00    +0.000 N 
DOCKED: ATOM     22  O   UNL     1      18.918 -20.279   0.535 -0.87 -0.00    +0.000 OA
DOCKED: ATOM     23  O   UNL     1      20.169 -19.736  -1.828 -2.38 -0.00    +0.000 OA
DOCKED: ATOM     24  H   UNL     1      20.269 -18.952   1.274 -0.25 -0.00    +0.000 HD
DOCKED: ENDBRANCH  19  20
DOCKED: ENDBRANCH   3  18
DOCKED: TORSDOF 5
DOCKED: TER
DOCKED: ENDMDL
________________________________________________________________________________


	BEGINNING GENETIC ALGORITHM DOCKING 71 of 100
Run: 71 Seed: 1680275813 842511374 [ Run 71 of 100 GA/GALS ]
Beginning LAMARCKIAN GENETIC ALGORITHM (LGA), with a maximum of 2500000 energy evaluations.

Final-Value: -14.325


	FINAL GENETIC ALGORITHM DOCKED STATE
	_______________________________________________


Detailed state:  trans 23.663 -16.972 -2.793 quatxyzw -0.447717 0.542012 -0.689839 0.172903 center 0.230 -0.012 -0.200 ntor 5 -141.6855 55.6767 -179.6065 -46.1720 -67.2375
State:	 23.663 -16.972  -2.793  -0.455  0.550 -0.700 160.087   -141.69   55.68 -179.61  -46.17  -67.24

DOCKED: MODEL       71
DOCKED: USER    Run = 71
DOCKED: USER    DPF = ligand_dock.biased.dpf
DOCKED: USER  
DOCKED: USER    Estimated Free Energy of Binding    =  -11.83 kcal/mol  [=(1)+(2)+(3)-(4)]
DOCKED: USER    Estimated Inhibition Constant, Ki   =    2.13 nM (nanomolar)  [Temperature = 298.15 K]
DOCKED: USER    
DOCKED: USER    (1) Final Intermolecular Energy     =  -13.32 kcal/mol
DOCKED: USER        vdW + Hbond + desolv Energy     =  -13.32 kcal/mol
DOCKED: USER        Electrostatic Energy            =   +0.00 kcal/mol
DOCKED: USER    (2) Final Total Internal Energy     =   -1.00 kcal/mol
DOCKED: USER    (3) Torsional Free Energy           =   +1.49 kcal/mol
DOCKED: USER    (4) Unbound System's Energy  [=(2)] =   -1.00 kcal/mol
DOCKED: USER    
DOCKED: USER    
DOCKED: USER    NEWDPF move ligand.pdbqt
DOCKED: USER    NEWDPF about 0.230000 -0.012000 -0.200000
DOCKED: USER    NEWDPF tran0 23.663483 -16.971804 -2.793076
DOCKED: USER    NEWDPF quaternion0 -0.447717 0.542012 -0.689839 0.172903
DOCKED: USER    NEWDPF axisangle0 -0.454563 0.550300 -0.700387 160.086735
DOCKED: USER    NEWDPF quat0 -0.454563 0.550300 -0.700387 160.086735
DOCKED: USER    NEWDPF dihe0 -141.69 55.68 -179.61 -46.17 -67.24 
DOCKED: USER  keepresnum = 1 
DOCKED: USER  
DOCKED: REMARK  Name = 
DOCKED: REMARK  5 active torsions:
DOCKED: REMARK  status: ('A' for Active; 'I' for Inactive)
DOCKED: REMARK    1  A    between atoms: S_2  and  N_3
DOCKED: REMARK    2  A    between atoms: S_2  and  C_10
DOCKED: REMARK    3  A    between atoms: N_3  and  C_4
DOCKED: REMARK    4  A    between atoms: C_12  and  C_13
DOCKED: REMARK    5  A    between atoms: C_14  and  C_15
DOCKED: REMARK                            x       y       z     vdW  Elec       q    Type
DOCKED: REMARK                         _______ _______ _______ _____ _____    ______ ____
DOCKED: USER                              x       y       z     vdW  Elec       q    Type
DOCKED: USER                           _______ _______ _______ _____ _____    ______ ____
DOCKED: ROOT
DOCKED: ATOM      1  C   UNL     1      25.525 -16.211  -1.948 -0.50 -0.00    +0.000 A 
DOCKED: ATOM      2  C   UNL     1      24.180 -16.601  -1.874 -0.23 -0.00    +0.000 A 
DOCKED: ATOM      3  C   UNL     1      23.790 -17.670  -1.041 -0.68 -0.00    +0.000 A 
DOCKED: ATOM      4  C   UNL     1      24.774 -18.347  -0.301 -0.61 -0.00    +0.000 A 
DOCKED: ATOM      5  C   UNL     1      26.112 -17.952  -0.369 -0.58 -0.00    +0.000 A 
DOCKED: ATOM      6  C   UNL     1      26.488 -16.885  -1.186 -0.46 -0.00    +0.000 A 
DOCKED: ENDROOT
DOCKED: BRANCH   1   8
DOCKED: ATOM      7  O   UNL     1      27.006 -13.999  -2.329 -0.24 -0.00    +0.000 OA
DOCKED: ATOM      8  S   UNL     1      26.002 -14.887  -3.009 -0.59 -0.00    +0.000 S 
DOCKED: ATOM      9  O   UNL     1      24.782 -14.078  -3.347 -0.74 -0.00    +0.000 OA
DOCKED: BRANCH   8  10
DOCKED: ATOM     10  N   UNL     1      26.698 -15.514  -4.471 -0.49 -0.00    +0.000 N 
DOCKED: ATOM     11  H   UNL     1      26.086 -15.814  -5.181 -0.08 +0.00    +0.000 HD
DOCKED: BRANCH  10  12
DOCKED: ATOM     12  C   UNL     1      28.113 -15.619  -4.707 -0.33 -0.00    +0.000 A 
DOCKED: ATOM     13  C   UNL     1      28.999 -16.100  -3.722 -0.23 -0.00    +0.000 A 
DOCKED: ATOM     14  C   UNL     1      30.367 -16.198  -3.992 -0.15 -0.00    +0.000 A 
DOCKED: ATOM     15  C   UNL     1      30.867 -15.813  -5.238 -0.14 -0.00    +0.000 A 
DOCKED: ATOM     16  C   UNL     1      29.999 -15.328  -6.217 -0.28 -0.00    +0.000 A 
DOCKED: ATOM     17  C   UNL     1      28.630 -15.229  -5.953 -0.37 -0.00    +0.000 A 
DOCKED: ENDBRANCH  10  12
DOCKED: ENDBRANCH   8  10
DOCKED: ENDBRANCH   1   8
DOCKED: BRANCH   3  18
DOCKED: ATOM     18  C   UNL     1      22.384 -18.138  -0.946 -0.79 -0.00    +0.000 C 
DOCKED: ATOM     19  C   UNL     1      22.034 -19.366  -0.537 -0.75 -0.00    +0.000 C 
DOCKED: BRANCH  19  20
DOCKED: ATOM     20  C   UNL     1      20.632 -19.824  -0.444 -0.81 -0.00    +0.000 C 
DOCKED: ATOM     21  N   UNL     1      20.071 -20.334   0.772 -0.69 -0.00    +0.000 N 
DOCKED: ATOM     22  O   UNL     1      18.816 -20.838   0.779 -0.82 -0.00    +0.000 OA
DOCKED: ATOM     23  O   UNL     1      19.903 -19.737  -1.468 -2.27 -0.00    +0.000 OA
DOCKED: ATOM     24  H   UNL     1      20.600 -20.318   1.602 -0.50 -0.00    +0.000 HD
DOCKED: ENDBRANCH  19  20
DOCKED: ENDBRANCH   3  18
DOCKED: TORSDOF 5
DOCKED: TER
DOCKED: ENDMDL
________________________________________________________________________________


	BEGINNING GENETIC ALGORITHM DOCKING 72 of 100
Run: 72 Seed: 882862073 834267899 [ Run 72 of 100 GA/GALS ]
Beginning LAMARCKIAN GENETIC ALGORITHM (LGA), with a maximum of 2500000 energy evaluations.

Final-Value: -14.754


	FINAL GENETIC ALGORITHM DOCKED STATE
	_______________________________________________


Detailed state:  trans 24.547 -16.827 -3.168 quatxyzw -0.405327 0.473624 -0.732362 0.273927 center 0.230 -0.012 -0.200 ntor 5 169.4081 98.1592 158.0687 174.3948 -137.3706
State:	 24.547 -16.827  -3.168  -0.421  0.492 -0.761 148.204    169.41   98.16  158.07  174.39 -137.37

DOCKED: MODEL       72
DOCKED: USER    Run = 72
DOCKED: USER    DPF = ligand_dock.biased.dpf
DOCKED: USER  
DOCKED: USER    Estimated Free Energy of Binding    =  -12.30 kcal/mol  [=(1)+(2)+(3)-(4)]
DOCKED: USER    Estimated Inhibition Constant, Ki   =  961.50 pM (picomolar)  [Temperature = 298.15 K]
DOCKED: USER    
DOCKED: USER    (1) Final Intermolecular Energy     =  -13.79 kcal/mol
DOCKED: USER        vdW + Hbond + desolv Energy     =  -13.79 kcal/mol
DOCKED: USER        Electrostatic Energy            =   +0.00 kcal/mol
DOCKED: USER    (2) Final Total Internal Energy     =   -0.96 kcal/mol
DOCKED: USER    (3) Torsional Free Energy           =   +1.49 kcal/mol
DOCKED: USER    (4) Unbound System's Energy  [=(2)] =   -0.96 kcal/mol
DOCKED: USER    
DOCKED: USER    
DOCKED: USER    NEWDPF move ligand.pdbqt
DOCKED: USER    NEWDPF about 0.230000 -0.012000 -0.200000
DOCKED: USER    NEWDPF tran0 24.547107 -16.826503 -3.167644
DOCKED: USER    NEWDPF quaternion0 -0.405327 0.473624 -0.732362 0.273927
DOCKED: USER    NEWDPF axisangle0 -0.421447 0.492461 -0.761489 148.203862
DOCKED: USER    NEWDPF quat0 -0.421447 0.492461 -0.761489 148.203862
DOCKED: USER    NEWDPF dihe0 169.41 98.16 158.07 174.39 -137.37 
DOCKED: USER  keepresnum = 1 
DOCKED: USER  
DOCKED: REMARK  Name = 
DOCKED: REMARK  5 active torsions:
DOCKED: REMARK  status: ('A' for Active; 'I' for Inactive)
DOCKED: REMARK    1  A    between atoms: S_2  and  N_3
DOCKED: REMARK    2  A    between atoms: S_2  and  C_10
DOCKED: REMARK    3  A    between atoms: N_3  and  C_4
DOCKED: REMARK    4  A    between atoms: C_12  and  C_13
DOCKED: REMARK    5  A    between atoms: C_14  and  C_15
DOCKED: REMARK                            x       y       z     vdW  Elec       q    Type
DOCKED: REMARK                         _______ _______ _______ _____ _____    ______ ____
DOCKED: USER                              x       y       z     vdW  Elec       q    Type
DOCKED: USER                           _______ _______ _______ _____ _____    ______ ____
DOCKED: ROOT
DOCKED: ATOM      1  C   UNL     1      26.517 -16.099  -2.577 -0.38 -0.00    +0.000 A 
DOCKED: ATOM      2  C   UNL     1      25.145 -16.305  -2.379 -0.49 -0.00    +0.000 A 
DOCKED: ATOM      3  C   UNL     1      24.687 -17.091  -1.301 -0.60 -0.00    +0.000 A 
DOCKED: ATOM      4  C   UNL     1      25.631 -17.676  -0.441 -0.59 -0.00    +0.000 A 
DOCKED: ATOM      5  C   UNL     1      26.998 -17.463  -0.634 -0.47 -0.00    +0.000 A 
DOCKED: ATOM      6  C   UNL     1      27.441 -16.673  -1.696 -0.35 -0.00    +0.000 A 
DOCKED: ENDROOT
DOCKED: BRANCH   1   8
DOCKED: ATOM      7  O   UNL     1      26.693 -13.691  -3.761 -0.32 -0.00    +0.000 OA
DOCKED: ATOM      8  S   UNL     1      27.076 -15.133  -3.941 -0.53 -0.00    +0.000 S 
DOCKED: ATOM      9  O   UNL     1      26.437 -15.657  -5.196 -1.16 +0.00    +0.000 OA
DOCKED: BRANCH   8  10
DOCKED: ATOM     10  N   UNL     1      28.802 -15.247  -4.088 -0.22 -0.00    +0.000 N 
DOCKED: ATOM     11  H   UNL     1      29.350 -14.973  -3.317 +0.00 -0.00    +0.000 HD
DOCKED: BRANCH  10  12
DOCKED: ATOM     12  C   UNL     1      29.479 -15.718  -5.266 -0.28 -0.00    +0.000 A 
DOCKED: ATOM     13  C   UNL     1      29.798 -14.859  -6.337 -0.28 -0.00    +0.000 A 
DOCKED: ATOM     14  C   UNL     1      30.466 -15.351  -7.462 -0.24 -0.00    +0.000 A 
DOCKED: ATOM     15  C   UNL     1      30.818 -16.700  -7.536 -0.27 -0.00    +0.000 A 
DOCKED: ATOM     16  C   UNL     1      30.500 -17.562  -6.484 -0.31 -0.00    +0.000 A 
DOCKED: ATOM     17  C   UNL     1      29.833 -17.075  -5.356 -0.27 -0.00    +0.000 A 
DOCKED: ENDBRANCH  10  12
DOCKED: ENDBRANCH   8  10
DOCKED: ENDBRANCH   1   8
DOCKED: BRANCH   3  18
DOCKED: ATOM     18  C   UNL     1      23.247 -17.360  -1.062 -0.71 -0.00    +0.000 C 
DOCKED: ATOM     19  C   UNL     1      22.756 -18.570  -0.755 -0.83 -0.00    +0.000 C 
DOCKED: BRANCH  19  20
DOCKED: ATOM     20  C   UNL     1      21.321 -18.829  -0.517 -0.85 -0.00    +0.000 C 
DOCKED: ATOM     21  N   UNL     1      20.838 -20.092  -0.042 -0.68 -0.00    +0.000 N 
DOCKED: ATOM     22  O   UNL     1      19.507 -20.314   0.059 -1.15 -0.00    +0.000 OA
DOCKED: ATOM     23  O   UNL     1      20.501 -17.894  -0.719 -2.29 -0.00    +0.000 OA
DOCKED: ATOM     24  H   UNL     1      21.475 -20.799   0.211 -0.53 -0.00    +0.000 HD
DOCKED: ENDBRANCH  19  20
DOCKED: ENDBRANCH   3  18
DOCKED: TORSDOF 5
DOCKED: TER
DOCKED: ENDMDL
________________________________________________________________________________


	BEGINNING GENETIC ALGORITHM DOCKING 73 of 100
Run: 73 Seed: 520361567 326044855 [ Run 73 of 100 GA/GALS ]
Beginning LAMARCKIAN GENETIC ALGORITHM (LGA), with a maximum of 2500000 energy evaluations.

Final-Value: -14.572


	FINAL GENETIC ALGORITHM DOCKED STATE
	_______________________________________________


Detailed state:  trans 24.371 -17.786 -3.109 quatxyzw -0.468420 0.439688 -0.763304 0.067998 center 0.230 -0.012 -0.200 ntor 5 93.0371 157.4342 -56.0459 19.6034 -169.4249
State:	 24.371 -17.786  -3.109  -0.470  0.441 -0.765 172.202     93.04  157.43  -56.05   19.60 -169.42

DOCKED: MODEL       73
DOCKED: USER    Run = 73
DOCKED: USER    DPF = ligand_dock.biased.dpf
DOCKED: USER  
DOCKED: USER    Estimated Free Energy of Binding    =  -11.96 kcal/mol  [=(1)+(2)+(3)-(4)]
DOCKED: USER    Estimated Inhibition Constant, Ki   =    1.71 nM (nanomolar)  [Temperature = 298.15 K]
DOCKED: USER    
DOCKED: USER    (1) Final Intermolecular Energy     =  -13.45 kcal/mol
DOCKED: USER        vdW + Hbond + desolv Energy     =  -13.45 kcal/mol
DOCKED: USER        Electrostatic Energy            =   +0.00 kcal/mol
DOCKED: USER    (2) Final Total Internal Energy     =   -1.12 kcal/mol
DOCKED: USER    (3) Torsional Free Energy           =   +1.49 kcal/mol
DOCKED: USER    (4) Unbound System's Energy  [=(2)] =   -1.12 kcal/mol
DOCKED: USER    
DOCKED: USER    
DOCKED: USER    NEWDPF move ligand.pdbqt
DOCKED: USER    NEWDPF about 0.230000 -0.012000 -0.200000
DOCKED: USER    NEWDPF tran0 24.371009 -17.786028 -3.108667
DOCKED: USER    NEWDPF quaternion0 -0.468420 0.439688 -0.763304 0.067998
DOCKED: USER    NEWDPF axisangle0 -0.469507 0.440708 -0.765075 172.201984
DOCKED: USER    NEWDPF quat0 -0.469507 0.440708 -0.765075 172.201984
DOCKED: USER    NEWDPF dihe0 93.04 157.43 -56.05 19.60 -169.42 
DOCKED: USER  keepresnum = 1 
DOCKED: USER  
DOCKED: REMARK  Name = 
DOCKED: REMARK  5 active torsions:
DOCKED: REMARK  status: ('A' for Active; 'I' for Inactive)
DOCKED: REMARK    1  A    between atoms: S_2  and  N_3
DOCKED: REMARK    2  A    between atoms: S_2  and  C_10
DOCKED: REMARK    3  A    between atoms: N_3  and  C_4
DOCKED: REMARK    4  A    between atoms: C_12  and  C_13
DOCKED: REMARK    5  A    between atoms: C_14  and  C_15
DOCKED: REMARK                            x       y       z     vdW  Elec       q    Type
DOCKED: REMARK                         _______ _______ _______ _____ _____    ______ ____
DOCKED: USER                              x       y       z     vdW  Elec       q    Type
DOCKED: USER                           _______ _______ _______ _____ _____    ______ ____
DOCKED: ROOT
DOCKED: ATOM      1  C   UNL     1      25.826 -16.441  -2.197 -0.48 -0.00    +0.000 A 
DOCKED: ATOM      2  C   UNL     1      24.641 -17.191  -2.202 -0.43 -0.00    +0.000 A 
DOCKED: ATOM      3  C   UNL     1      24.453 -18.237  -1.275 -0.63 -0.00    +0.000 A 
DOCKED: ATOM      4  C   UNL     1      25.479 -18.524  -0.359 -0.55 -0.00    +0.000 A 
DOCKED: ATOM      5  C   UNL     1      26.655 -17.770  -0.349 -0.52 -0.00    +0.000 A 
DOCKED: ATOM      6  C   UNL     1      26.828 -16.728  -1.262 -0.42 -0.00    +0.000 A 
DOCKED: ENDROOT
DOCKED: BRANCH   1   8
DOCKED: ATOM      7  O   UNL     1      24.760 -14.443  -3.648 -0.94 -0.00    +0.000 OA
DOCKED: ATOM      8  S   UNL     1      26.058 -15.151  -3.375 -0.64 -0.00    +0.000 S 
DOCKED: ATOM      9  O   UNL     1      26.566 -15.752  -4.654 -0.81 -0.00    +0.000 OA
DOCKED: BRANCH   8  10
DOCKED: ATOM     10  N   UNL     1      27.216 -14.001  -2.783 -0.21 -0.00    +0.000 N 
DOCKED: ATOM     11  H   UNL     1      27.796 -13.550  -3.438 +0.01 -0.00    +0.000 HD
DOCKED: BRANCH  10  12
DOCKED: ATOM     12  C   UNL     1      27.379 -13.667  -1.393 -0.17 -0.00    +0.000 A 
DOCKED: ATOM     13  C   UNL     1      28.638 -13.356  -0.843 -0.08 -0.00    +0.000 A 
DOCKED: ATOM     14  C   UNL     1      28.756 -13.027   0.511 -0.09 -0.00    +0.000 A 
DOCKED: ATOM     15  C   UNL     1      27.625 -13.009   1.330 -0.22 -0.00    +0.000 A 
DOCKED: ATOM     16  C   UNL     1      26.374 -13.323   0.797 -0.28 -0.00    +0.000 A 
DOCKED: ATOM     17  C   UNL     1      26.250 -13.652  -0.556 -0.17 -0.00    +0.000 A 
DOCKED: ENDBRANCH  10  12
DOCKED: ENDBRANCH   8  10
DOCKED: ENDBRANCH   1   8
DOCKED: BRANCH   3  18
DOCKED: ATOM     18  C   UNL     1      23.228 -19.076  -1.254 -0.77 -0.00    +0.000 C 
DOCKED: ATOM     19  C   UNL     1      22.066 -18.683  -0.713 -0.85 -0.00    +0.000 C 
DOCKED: BRANCH  19  20
DOCKED: ATOM     20  C   UNL     1      20.851 -19.524  -0.698 -0.86 -0.00    +0.000 C 
DOCKED: ATOM     21  N   UNL     1      20.320 -20.084   0.509 -0.70 -0.00    +0.000 N 
DOCKED: ATOM     22  O   UNL     1      19.268 -20.933   0.457 -0.90 -0.00    +0.000 OA
DOCKED: ATOM     23  O   UNL     1      20.251 -19.732  -1.787 -2.35 -0.00    +0.000 OA
DOCKED: ATOM     24  H   UNL     1      20.722 -19.851   1.377 -0.37 -0.00    +0.000 HD
DOCKED: ENDBRANCH  19  20
DOCKED: ENDBRANCH   3  18
DOCKED: TORSDOF 5
DOCKED: TER
DOCKED: ENDMDL
________________________________________________________________________________


	BEGINNING GENETIC ALGORITHM DOCKING 74 of 100
Run: 74 Seed: 1944214798 641870725 [ Run 74 of 100 GA/GALS ]
Beginning LAMARCKIAN GENETIC ALGORITHM (LGA), with a maximum of 2500000 energy evaluations.

Final-Value: -14.655


	FINAL GENETIC ALGORITHM DOCKED STATE
	_______________________________________________


Detailed state:  trans 25.036 -16.876 -3.355 quatxyzw 0.367302 -0.417590 0.780826 -0.284638 center 0.230 -0.012 -0.200 ntor 5 131.1975 -103.7795 127.6256 -52.5140 124.0212
State:	 25.036 -16.876  -3.355   0.383 -0.436  0.815 -146.926    131.20 -103.78  127.63  -52.51  124.02

DOCKED: MODEL       74
DOCKED: USER    Run = 74
DOCKED: USER    DPF = ligand_dock.biased.dpf
DOCKED: USER  
DOCKED: USER    Estimated Free Energy of Binding    =  -12.13 kcal/mol  [=(1)+(2)+(3)-(4)]
DOCKED: USER    Estimated Inhibition Constant, Ki   =    1.28 nM (nanomolar)  [Temperature = 298.15 K]
DOCKED: USER    
DOCKED: USER    (1) Final Intermolecular Energy     =  -13.62 kcal/mol
DOCKED: USER        vdW + Hbond + desolv Energy     =  -13.62 kcal/mol
DOCKED: USER        Electrostatic Energy            =   +0.00 kcal/mol
DOCKED: USER    (2) Final Total Internal Energy     =   -1.03 kcal/mol
DOCKED: USER    (3) Torsional Free Energy           =   +1.49 kcal/mol
DOCKED: USER    (4) Unbound System's Energy  [=(2)] =   -1.03 kcal/mol
DOCKED: USER    
DOCKED: USER    
DOCKED: USER    NEWDPF move ligand.pdbqt
DOCKED: USER    NEWDPF about 0.230000 -0.012000 -0.200000
DOCKED: USER    NEWDPF tran0 25.035508 -16.875951 -3.354535
DOCKED: USER    NEWDPF quaternion0 0.367302 -0.417590 0.780826 -0.284638
DOCKED: USER    NEWDPF axisangle0 0.383151 -0.435609 0.814518 -146.925536
DOCKED: USER    NEWDPF quat0 0.383151 -0.435609 0.814518 -146.925536
DOCKED: USER    NEWDPF dihe0 131.20 -103.78 127.63 -52.51 124.02 
DOCKED: USER  keepresnum = 1 
DOCKED: USER  
DOCKED: REMARK  Name = 
DOCKED: REMARK  5 active torsions:
DOCKED: REMARK  status: ('A' for Active; 'I' for Inactive)
DOCKED: REMARK    1  A    between atoms: S_2  and  N_3
DOCKED: REMARK    2  A    between atoms: S_2  and  C_10
DOCKED: REMARK    3  A    between atoms: N_3  and  C_4
DOCKED: REMARK    4  A    between atoms: C_12  and  C_13
DOCKED: REMARK    5  A    between atoms: C_14  and  C_15
DOCKED: REMARK                            x       y       z     vdW  Elec       q    Type
DOCKED: REMARK                         _______ _______ _______ _____ _____    ______ ____
DOCKED: USER                              x       y       z     vdW  Elec       q    Type
DOCKED: USER                           _______ _______ _______ _____ _____    ______ ____
DOCKED: ROOT
DOCKED: ATOM      1  C   UNL     1      26.958 -16.017  -2.784 -0.32 -0.00    +0.000 A 
DOCKED: ATOM      2  C   UNL     1      25.580 -16.223  -2.628 -0.49 -0.00    +0.000 A 
DOCKED: ATOM      3  C   UNL     1      25.076 -16.842  -1.465 -0.56 -0.00    +0.000 A 
DOCKED: ATOM      4  C   UNL     1      25.979 -17.262  -0.475 -0.53 -0.00    +0.000 A 
DOCKED: ATOM      5  C   UNL     1      27.351 -17.048  -0.628 -0.41 -0.00    +0.000 A 
DOCKED: ATOM      6  C   UNL     1      27.841 -16.424  -1.776 -0.30 -0.00    +0.000 A 
DOCKED: ENDROOT
DOCKED: BRANCH   1   8
DOCKED: ATOM      7  O   UNL     1      26.692 -15.584  -5.425 -1.18 +0.00    +0.000 OA
DOCKED: ATOM      8  S   UNL     1      27.576 -15.263  -4.252 -0.49 -0.00    +0.000 S 
DOCKED: ATOM      9  O   UNL     1      28.957 -15.790  -4.519 -0.31 -0.00    +0.000 OA
DOCKED: BRANCH   8  10
DOCKED: ATOM     10  N   UNL     1      27.649 -13.540  -4.053 -0.20 -0.00    +0.000 N 
DOCKED: ATOM     11  H   UNL     1      28.372 -13.169  -3.496 +0.01 -0.00    +0.000 HD
DOCKED: BRANCH  10  12
DOCKED: ATOM     12  C   UNL     1      26.719 -12.621  -4.653 -0.25 -0.00    +0.000 A 
DOCKED: ATOM     13  C   UNL     1      27.122 -11.674  -5.616 -0.18 -0.00    +0.000 A 
DOCKED: ATOM     14  C   UNL     1      26.187 -10.805  -6.185 -0.20 -0.00    +0.000 A 
DOCKED: ATOM     15  C   UNL     1      24.846 -10.864  -5.800 -0.34 -0.00    +0.000 A 
DOCKED: ATOM     16  C   UNL     1      24.438 -11.794  -4.842 -0.24 -0.00    +0.000 A 
DOCKED: ATOM     17  C   UNL     1      25.369 -12.666  -4.270 -0.21 -0.00    +0.000 A 
DOCKED: ENDBRANCH  10  12
DOCKED: ENDBRANCH   8  10
DOCKED: ENDBRANCH   1   8
DOCKED: BRANCH   3  18
DOCKED: ATOM     18  C   UNL     1      23.629 -17.105  -1.262 -0.64 -0.00    +0.000 C 
DOCKED: ATOM     19  C   UNL     1      23.071 -18.320  -1.373 -0.75 -0.00    +0.000 C 
DOCKED: BRANCH  19  20
DOCKED: ATOM     20  C   UNL     1      21.630 -18.574  -1.169 -0.68 -0.00    +0.000 C 
DOCKED: ATOM     21  N   UNL     1      20.927 -19.612  -1.865 -0.67 -0.00    +0.000 N 
DOCKED: ATOM     22  O   UNL     1      19.588 -19.736  -1.722 -2.18 -0.00    +0.000 OA
DOCKED: ATOM     23  O   UNL     1      21.007 -17.864  -0.333 -1.94 +0.00    +0.000 OA
DOCKED: ATOM     24  H   UNL     1      21.420 -20.234  -2.447 -0.58 -0.00    +0.000 HD
DOCKED: ENDBRANCH  19  20
DOCKED: ENDBRANCH   3  18
DOCKED: TORSDOF 5
DOCKED: TER
DOCKED: ENDMDL
________________________________________________________________________________


	BEGINNING GENETIC ALGORITHM DOCKING 75 of 100
Run: 75 Seed: 1263752461 1991355281 [ Run 75 of 100 GA/GALS ]
Beginning LAMARCKIAN GENETIC ALGORITHM (LGA), with a maximum of 2500000 energy evaluations.

Final-Value: -15.410


	FINAL GENETIC ALGORITHM DOCKED STATE
	_______________________________________________


Detailed state:  trans 24.332 -17.899 -3.128 quatxyzw 0.484435 -0.361252 0.792649 -0.080787 center 0.230 -0.012 -0.200 ntor 5 62.9801 110.7638 -34.4576 166.6554 -135.8800
State:	 24.332 -17.899  -3.128   0.486 -0.362  0.795 -170.732     62.98  110.76  -34.46  166.66 -135.88

DOCKED: MODEL       75
DOCKED: USER    Run = 75
DOCKED: USER    DPF = ligand_dock.biased.dpf
DOCKED: USER  
DOCKED: USER    Estimated Free Energy of Binding    =  -12.92 kcal/mol  [=(1)+(2)+(3)-(4)]
DOCKED: USER    Estimated Inhibition Constant, Ki   =  339.11 pM (picomolar)  [Temperature = 298.15 K]
DOCKED: USER    
DOCKED: USER    (1) Final Intermolecular Energy     =  -14.41 kcal/mol
DOCKED: USER        vdW + Hbond + desolv Energy     =  -14.41 kcal/mol
DOCKED: USER        Electrostatic Energy            =   +0.00 kcal/mol
DOCKED: USER    (2) Final Total Internal Energy     =   -1.00 kcal/mol
DOCKED: USER    (3) Torsional Free Energy           =   +1.49 kcal/mol
DOCKED: USER    (4) Unbound System's Energy  [=(2)] =   -1.00 kcal/mol
DOCKED: USER    
DOCKED: USER    
DOCKED: USER    NEWDPF move ligand.pdbqt
DOCKED: USER    NEWDPF about 0.230000 -0.012000 -0.200000
DOCKED: USER    NEWDPF tran0 24.332296 -17.898956 -3.127966
DOCKED: USER    NEWDPF quaternion0 0.484435 -0.361252 0.792649 -0.080787
DOCKED: USER    NEWDPF axisangle0 0.486024 -0.362437 0.795249 -170.732360
DOCKED: USER    NEWDPF quat0 0.486024 -0.362437 0.795249 -170.732360
DOCKED: USER    NEWDPF dihe0 62.98 110.76 -34.46 166.66 -135.88 
DOCKED: USER  keepresnum = 1 
DOCKED: USER  
DOCKED: REMARK  Name = 
DOCKED: REMARK  5 active torsions:
DOCKED: REMARK  status: ('A' for Active; 'I' for Inactive)
DOCKED: REMARK    1  A    between atoms: S_2  and  N_3
DOCKED: REMARK    2  A    between atoms: S_2  and  C_10
DOCKED: REMARK    3  A    between atoms: N_3  and  C_4
DOCKED: REMARK    4  A    between atoms: C_12  and  C_13
DOCKED: REMARK    5  A    between atoms: C_14  and  C_15
DOCKED: REMARK                            x       y       z     vdW  Elec       q    Type
DOCKED: REMARK                         _______ _______ _______ _____ _____    ______ ____
DOCKED: USER                              x       y       z     vdW  Elec       q    Type
DOCKED: USER                           _______ _______ _______ _____ _____    ______ ____
DOCKED: ROOT
DOCKED: ATOM      1  C   UNL     1      25.697 -16.329  -2.470 -0.48 -0.00    +0.000 A 
DOCKED: ATOM      2  C   UNL     1      24.570 -17.152  -2.331 -0.16 -0.00    +0.000 A 
DOCKED: ATOM      3  C   UNL     1      24.471 -18.052  -1.249 -0.65 -0.00    +0.000 A 
DOCKED: ATOM      4  C   UNL     1      25.527 -18.121  -0.325 -0.62 -0.00    +0.000 A 
DOCKED: ATOM      5  C   UNL     1      26.645 -17.293  -0.460 -0.50 -0.00    +0.000 A 
DOCKED: ATOM      6  C   UNL     1      26.729 -16.397  -1.527 -0.40 -0.00    +0.000 A 
DOCKED: ENDROOT
DOCKED: BRANCH   1   8
DOCKED: ATOM      7  O   UNL     1      24.821 -14.108  -3.707 -0.97 -0.00    +0.000 OA
DOCKED: ATOM      8  S   UNL     1      25.818 -15.225  -3.838 -0.72 -0.00    +0.000 S 
DOCKED: ATOM      9  O   UNL     1      25.535 -15.989  -5.100 -1.00 -0.00    +0.000 OA
DOCKED: BRANCH   8  10
DOCKED: ATOM     10  N   UNL     1      27.415 -14.551  -3.923 -0.28 -0.00    +0.000 N 
DOCKED: ATOM     11  H   UNL     1      27.706 -13.957  -3.193 +0.01 -0.00    +0.000 HD
DOCKED: BRANCH  10  12
DOCKED: ATOM     12  C   UNL     1      28.340 -14.807  -4.995 -0.31 -0.00    +0.000 A 
DOCKED: ATOM     13  C   UNL     1      28.518 -13.900  -6.059 -0.29 -0.00    +0.000 A 
DOCKED: ATOM     14  C   UNL     1      29.434 -14.179  -7.078 -0.29 -0.00    +0.000 A 
DOCKED: ATOM     15  C   UNL     1      30.175 -15.362  -7.052 -0.27 -0.00    +0.000 A 
DOCKED: ATOM     16  C   UNL     1      30.000 -16.271  -6.007 -0.30 -0.00    +0.000 A 
DOCKED: ATOM     17  C   UNL     1      29.087 -15.997  -4.985 -0.29 -0.00    +0.000 A 
DOCKED: ENDBRANCH  10  12
DOCKED: ENDBRANCH   8  10
DOCKED: ENDBRANCH   1   8
DOCKED: BRANCH   3  18
DOCKED: ATOM     18  C   UNL     1      23.312 -18.962  -1.070 -0.81 -0.00    +0.000 C 
DOCKED: ATOM     19  C   UNL     1      22.042 -18.540  -0.975 -0.82 -0.00    +0.000 C 
DOCKED: BRANCH  19  20
DOCKED: ATOM     20  C   UNL     1      20.893 -19.452  -0.798 -0.86 -0.00    +0.000 C 
DOCKED: ATOM     21  N   UNL     1      20.533 -19.993   0.479 -0.68 -0.00    +0.000 N 
DOCKED: ATOM     22  O   UNL     1      19.539 -20.906   0.572 -0.87 -0.00    +0.000 OA
DOCKED: ATOM     23  O   UNL     1      20.196 -19.742  -1.807 -2.37 -0.00    +0.000 OA
DOCKED: ATOM     24  H   UNL     1      21.009 -19.700   1.289 -0.48 -0.00    +0.000 HD
DOCKED: ENDBRANCH  19  20
DOCKED: ENDBRANCH   3  18
DOCKED: TORSDOF 5
DOCKED: TER
DOCKED: ENDMDL
________________________________________________________________________________


	BEGINNING GENETIC ALGORITHM DOCKING 76 of 100
Run: 76 Seed: 1676376824 780402434 [ Run 76 of 100 GA/GALS ]
Beginning LAMARCKIAN GENETIC ALGORITHM (LGA), with a maximum of 2500000 energy evaluations.

Final-Value: -14.372


	FINAL GENETIC ALGORITHM DOCKED STATE
	_______________________________________________


Detailed state:  trans 23.954 -16.732 -2.900 quatxyzw -0.475149 0.512429 -0.658878 0.278443 center 0.230 -0.012 -0.200 ntor 5 -156.7081 120.5136 140.9229 59.4298 144.8135
State:	 23.954 -16.732  -2.900  -0.495  0.534 -0.686 147.665   -156.71  120.51  140.92   59.43  144.81

DOCKED: MODEL       76
DOCKED: USER    Run = 76
DOCKED: USER    DPF = ligand_dock.biased.dpf
DOCKED: USER  
DOCKED: USER    Estimated Free Energy of Binding    =  -11.57 kcal/mol  [=(1)+(2)+(3)-(4)]
DOCKED: USER    Estimated Inhibition Constant, Ki   =    3.30 nM (nanomolar)  [Temperature = 298.15 K]
DOCKED: USER    
DOCKED: USER    (1) Final Intermolecular Energy     =  -13.06 kcal/mol
DOCKED: USER        vdW + Hbond + desolv Energy     =  -13.06 kcal/mol
DOCKED: USER        Electrostatic Energy            =   +0.00 kcal/mol
DOCKED: USER    (2) Final Total Internal Energy     =   -1.31 kcal/mol
DOCKED: USER    (3) Torsional Free Energy           =   +1.49 kcal/mol
DOCKED: USER    (4) Unbound System's Energy  [=(2)] =   -1.31 kcal/mol
DOCKED: USER    
DOCKED: USER    
DOCKED: USER    NEWDPF move ligand.pdbqt
DOCKED: USER    NEWDPF about 0.230000 -0.012000 -0.200000
DOCKED: USER    NEWDPF tran0 23.953552 -16.732325 -2.900105
DOCKED: USER    NEWDPF quaternion0 -0.475149 0.512429 -0.658878 0.278443
DOCKED: USER    NEWDPF axisangle0 -0.494714 0.533528 -0.686007 147.665387
DOCKED: USER    NEWDPF quat0 -0.494714 0.533528 -0.686007 147.665387
DOCKED: USER    NEWDPF dihe0 -156.71 120.51 140.92 59.43 144.81 
DOCKED: USER  keepresnum = 1 
DOCKED: USER  
DOCKED: REMARK  Name = 
DOCKED: REMARK  5 active torsions:
DOCKED: REMARK  status: ('A' for Active; 'I' for Inactive)
DOCKED: REMARK    1  A    between atoms: S_2  and  N_3
DOCKED: REMARK    2  A    between atoms: S_2  and  C_10
DOCKED: REMARK    3  A    between atoms: N_3  and  C_4
DOCKED: REMARK    4  A    between atoms: C_12  and  C_13
DOCKED: REMARK    5  A    between atoms: C_14  and  C_15
DOCKED: REMARK                            x       y       z     vdW  Elec       q    Type
DOCKED: REMARK                         _______ _______ _______ _____ _____    ______ ____
DOCKED: USER                              x       y       z     vdW  Elec       q    Type
DOCKED: USER                           _______ _______ _______ _____ _____    ______ ____
DOCKED: ROOT
DOCKED: ATOM      1  C   UNL     1      26.005 -16.111  -2.494 -0.45 -0.00    +0.000 A 
DOCKED: ATOM      2  C   UNL     1      24.670 -16.345  -2.134 -0.38 -0.00    +0.000 A 
DOCKED: ATOM      3  C   UNL     1      24.353 -17.294  -1.140 -0.63 -0.00    +0.000 A 
DOCKED: ATOM      4  C   UNL     1      25.395 -18.011  -0.529 -0.62 -0.00    +0.000 A 
DOCKED: ATOM      5  C   UNL     1      26.726 -17.769  -0.882 -0.45 -0.00    +0.000 A 
DOCKED: ATOM      6  C   UNL     1      27.031 -16.819  -1.859 -0.34 -0.00    +0.000 A 
DOCKED: ENDROOT
DOCKED: BRANCH   1   8
DOCKED: ATOM      7  O   UNL     1      25.134 -14.490  -4.455 -1.04 -0.00    +0.000 OA
DOCKED: ATOM      8  S   UNL     1      26.385 -14.938  -3.753 -0.61 -0.00    +0.000 S 
DOCKED: ATOM      9  O   UNL     1      27.304 -15.583  -4.750 -0.76 -0.00    +0.000 OA
DOCKED: BRANCH   8  10
DOCKED: ATOM     10  N   UNL     1      27.173 -13.553  -3.062 -0.20 -0.00    +0.000 N 
DOCKED: ATOM     11  H   UNL     1      27.344 -12.779  -3.646 +0.00 -0.00    +0.000 HD
DOCKED: BRANCH  10  12
DOCKED: ATOM     12  C   UNL     1      27.590 -13.468  -1.688 -0.15 -0.00    +0.000 A 
DOCKED: ATOM     13  C   UNL     1      28.948 -13.508  -1.317 -0.07 -0.00    +0.000 A 
DOCKED: ATOM     14  C   UNL     1      29.316 -13.412   0.029 -0.07 -0.00    +0.000 A 
DOCKED: ATOM     15  C   UNL     1      28.338 -13.282   1.017 -0.15 -0.00    +0.000 A 
DOCKED: ATOM     16  C   UNL     1      26.988 -13.249   0.660 -0.26 -0.00    +0.000 A 
DOCKED: ATOM     17  C   UNL     1      26.615 -13.344  -0.683 -0.17 -0.00    +0.000 A 
DOCKED: ENDBRANCH  10  12
DOCKED: ENDBRANCH   8  10
DOCKED: ENDBRANCH   1   8
DOCKED: BRANCH   3  18
DOCKED: ATOM     18  C   UNL     1      22.955 -17.597  -0.740 -0.78 -0.00    +0.000 C 
DOCKED: ATOM     19  C   UNL     1      22.387 -18.804  -0.878 -0.83 -0.00    +0.000 C 
DOCKED: BRANCH  19  20
DOCKED: ATOM     20  C   UNL     1      20.996 -19.099  -0.476 -0.87 -0.00    +0.000 C 
DOCKED: ATOM     21  N   UNL     1      20.629 -20.316   0.186 -0.66 -0.00    +0.000 N 
DOCKED: ATOM     22  O   UNL     1      19.328 -20.585   0.437 -0.93 -0.00    +0.000 OA
DOCKED: ATOM     23  O   UNL     1      20.109 -18.234  -0.707 -2.06 -0.00    +0.000 OA
DOCKED: ATOM     24  H   UNL     1      21.326 -20.956   0.457 -0.59 -0.00    +0.000 HD
DOCKED: ENDBRANCH  19  20
DOCKED: ENDBRANCH   3  18
DOCKED: TORSDOF 5
DOCKED: TER
DOCKED: ENDMDL
________________________________________________________________________________


	BEGINNING GENETIC ALGORITHM DOCKING 77 of 100
Run: 77 Seed: 1113862702 1048193694 [ Run 77 of 100 GA/GALS ]
Beginning LAMARCKIAN GENETIC ALGORITHM (LGA), with a maximum of 2500000 energy evaluations.

Final-Value: -15.054


	FINAL GENETIC ALGORITHM DOCKED STATE
	_______________________________________________


Detailed state:  trans 25.045 -14.690 -0.723 quatxyzw -0.505978 0.851353 -0.131006 -0.044965 center 0.230 -0.012 -0.200 ntor 5 132.5288 -180.0000 -112.5152 -90.1615 134.6324
State:	 25.045 -14.690  -0.723  -0.506  0.852 -0.131 -174.846    132.53 -180.00 -112.52  -90.16  134.63

DOCKED: MODEL       77
DOCKED: USER    Run = 77
DOCKED: USER    DPF = ligand_dock.biased.dpf
DOCKED: USER  
DOCKED: USER    Estimated Free Energy of Binding    =  -12.75 kcal/mol  [=(1)+(2)+(3)-(4)]
DOCKED: USER    Estimated Inhibition Constant, Ki   =  454.46 pM (picomolar)  [Temperature = 298.15 K]
DOCKED: USER    
DOCKED: USER    (1) Final Intermolecular Energy     =  -14.24 kcal/mol
DOCKED: USER        vdW + Hbond + desolv Energy     =  -14.24 kcal/mol
DOCKED: USER        Electrostatic Energy            =   +0.00 kcal/mol
DOCKED: USER    (2) Final Total Internal Energy     =   -0.82 kcal/mol
DOCKED: USER    (3) Torsional Free Energy           =   +1.49 kcal/mol
DOCKED: USER    (4) Unbound System's Energy  [=(2)] =   -0.82 kcal/mol
DOCKED: USER    
DOCKED: USER    
DOCKED: USER    NEWDPF move ligand.pdbqt
DOCKED: USER    NEWDPF about 0.230000 -0.012000 -0.200000
DOCKED: USER    NEWDPF tran0 25.045263 -14.690182 -0.723240
DOCKED: USER    NEWDPF quaternion0 -0.505978 0.851353 -0.131006 -0.044965
DOCKED: USER    NEWDPF axisangle0 -0.506490 0.852215 -0.131139 -174.845633
DOCKED: USER    NEWDPF quat0 -0.506490 0.852215 -0.131139 -174.845633
DOCKED: USER    NEWDPF dihe0 132.53 -180.00 -112.52 -90.16 134.63 
DOCKED: USER  keepresnum = 1 
DOCKED: USER  
DOCKED: REMARK  Name = 
DOCKED: REMARK  5 active torsions:
DOCKED: REMARK  status: ('A' for Active; 'I' for Inactive)
DOCKED: REMARK    1  A    between atoms: S_2  and  N_3
DOCKED: REMARK    2  A    between atoms: S_2  and  C_10
DOCKED: REMARK    3  A    between atoms: N_3  and  C_4
DOCKED: REMARK    4  A    between atoms: C_12  and  C_13
DOCKED: REMARK    5  A    between atoms: C_14  and  C_15
DOCKED: REMARK                            x       y       z     vdW  Elec       q    Type
DOCKED: REMARK                         _______ _______ _______ _____ _____    ______ ____
DOCKED: USER                              x       y       z     vdW  Elec       q    Type
DOCKED: USER                           _______ _______ _______ _____ _____    ______ ____
DOCKED: ROOT
DOCKED: ATOM      1  C   UNL     1      27.117 -15.226  -0.303 -0.29 -0.00    +0.000 A 
DOCKED: ATOM      2  C   UNL     1      25.737 -15.472  -0.322 -0.06 -0.00    +0.000 A 
DOCKED: ATOM      3  C   UNL     1      25.211 -16.539  -1.079 -0.52 -0.00    +0.000 A 
DOCKED: ATOM      4  C   UNL     1      26.092 -17.341  -1.824 -0.33 -0.00    +0.000 A 
DOCKED: ATOM      5  C   UNL     1      27.468 -17.101  -1.796 -0.27 -0.00    +0.000 A 
DOCKED: ATOM      6  C   UNL     1      27.981 -16.050  -1.035 -0.29 -0.00    +0.000 A 
DOCKED: ENDROOT
DOCKED: BRANCH   1   8
DOCKED: ATOM      7  O   UNL     1      26.681 -12.867   0.912 -0.33 -0.00    +0.000 OA
DOCKED: ATOM      8  S   UNL     1      27.759 -13.876   0.630 -0.30 -0.00    +0.000 S 
DOCKED: ATOM      9  O   UNL     1      28.851 -13.218  -0.165 -0.09 -0.00    +0.000 OA
DOCKED: BRANCH   8  10
DOCKED: ATOM     10  N   UNL     1      28.411 -14.444   2.135 -0.27 -0.00    +0.000 N 
DOCKED: ATOM     11  H   UNL     1      28.882 -15.309   2.138 -1.75 -0.00    +0.000 HD
DOCKED: BRANCH  10  12
DOCKED: ATOM     12  C   UNL     1      28.304 -13.728   3.378 -0.33 -0.00    +0.000 A 
DOCKED: ATOM     13  C   UNL     1      28.623 -14.326   4.614 -0.47 -0.00    +0.000 A 
DOCKED: ATOM     14  C   UNL     1      28.517 -13.595   5.801 -0.39 -0.00    +0.000 A 
DOCKED: ATOM     15  C   UNL     1      28.088 -12.267   5.771 -0.38 +0.00    +0.000 A 
DOCKED: ATOM     16  C   UNL     1      27.762 -11.666   4.553 -0.32 +0.00    +0.000 A 
DOCKED: ATOM     17  C   UNL     1      27.867 -12.393   3.364 -0.27 -0.00    +0.000 A 
DOCKED: ENDBRANCH  10  12
DOCKED: ENDBRANCH   8  10
DOCKED: ENDBRANCH   1   8
DOCKED: BRANCH   3  18
DOCKED: ATOM     18  C   UNL     1      23.756 -16.826  -1.153 -0.58 -0.00    +0.000 C 
DOCKED: ATOM     19  C   UNL     1      23.234 -18.057  -1.047 -0.80 -0.00    +0.000 C 
DOCKED: BRANCH  19  20
DOCKED: ATOM     20  C   UNL     1      21.784 -18.334  -1.120 -0.68 -0.00    +0.000 C 
DOCKED: ATOM     21  N   UNL     1      21.264 -19.574  -1.617 -0.65 -0.00    +0.000 N 
DOCKED: ATOM     22  O   UNL     1      19.929 -19.738  -1.763 -2.37 -0.00    +0.000 OA
DOCKED: ATOM     23  O   UNL     1      20.983 -17.452  -0.708 -2.05 +0.00    +0.000 OA
DOCKED: ATOM     24  H   UNL     1      21.879 -20.306  -1.851 -0.45 -0.00    +0.000 HD
DOCKED: ENDBRANCH  19  20
DOCKED: ENDBRANCH   3  18
DOCKED: TORSDOF 5
DOCKED: TER
DOCKED: ENDMDL
________________________________________________________________________________


	BEGINNING GENETIC ALGORITHM DOCKING 78 of 100
Run: 78 Seed: 1814038944 2079015999 [ Run 78 of 100 GA/GALS ]
Beginning LAMARCKIAN GENETIC ALGORITHM (LGA), with a maximum of 2500000 energy evaluations.

Final-Value: -14.697


	FINAL GENETIC ALGORITHM DOCKED STATE
	_______________________________________________


Detailed state:  trans 24.190 -16.774 -3.145 quatxyzw -0.437039 0.505542 -0.690581 0.276626 center 0.230 -0.012 -0.200 ntor 5 177.8815 103.4002 160.2346 149.8206 -149.4333
State:	 24.190 -16.774  -3.145  -0.455  0.526 -0.719 147.882    177.88  103.40  160.23  149.82 -149.43

DOCKED: MODEL       78
DOCKED: USER    Run = 78
DOCKED: USER    DPF = ligand_dock.biased.dpf
DOCKED: USER  
DOCKED: USER    Estimated Free Energy of Binding    =  -12.19 kcal/mol  [=(1)+(2)+(3)-(4)]
DOCKED: USER    Estimated Inhibition Constant, Ki   =    1.16 nM (nanomolar)  [Temperature = 298.15 K]
DOCKED: USER    
DOCKED: USER    (1) Final Intermolecular Energy     =  -13.68 kcal/mol
DOCKED: USER        vdW + Hbond + desolv Energy     =  -13.68 kcal/mol
DOCKED: USER        Electrostatic Energy            =   +0.00 kcal/mol
DOCKED: USER    (2) Final Total Internal Energy     =   -1.02 kcal/mol
DOCKED: USER    (3) Torsional Free Energy           =   +1.49 kcal/mol
DOCKED: USER    (4) Unbound System's Energy  [=(2)] =   -1.02 kcal/mol
DOCKED: USER    
DOCKED: USER    
DOCKED: USER    NEWDPF move ligand.pdbqt
DOCKED: USER    NEWDPF about 0.230000 -0.012000 -0.200000
DOCKED: USER    NEWDPF tran0 24.190058 -16.773819 -3.145396
DOCKED: USER    NEWDPF quaternion0 -0.437039 0.505542 -0.690581 0.276626
DOCKED: USER    NEWDPF axisangle0 -0.454785 0.526071 -0.718624 147.882123
DOCKED: USER    NEWDPF quat0 -0.454785 0.526071 -0.718624 147.882123
DOCKED: USER    NEWDPF dihe0 177.88 103.40 160.23 149.82 -149.43 
DOCKED: USER  keepresnum = 1 
DOCKED: USER  
DOCKED: REMARK  Name = 
DOCKED: REMARK  5 active torsions:
DOCKED: REMARK  status: ('A' for Active; 'I' for Inactive)
DOCKED: REMARK    1  A    between atoms: S_2  and  N_3
DOCKED: REMARK    2  A    between atoms: S_2  and  C_10
DOCKED: REMARK    3  A    between atoms: N_3  and  C_4
DOCKED: REMARK    4  A    between atoms: C_12  and  C_13
DOCKED: REMARK    5  A    between atoms: C_14  and  C_15
DOCKED: REMARK                            x       y       z     vdW  Elec       q    Type
DOCKED: REMARK                         _______ _______ _______ _____ _____    ______ ____
DOCKED: USER                              x       y       z     vdW  Elec       q    Type
DOCKED: USER                           _______ _______ _______ _____ _____    ______ ____
DOCKED: ROOT
DOCKED: ATOM      1  C   UNL     1      26.212 -16.149  -2.617 -0.41 -0.00    +0.000 A 
DOCKED: ATOM      2  C   UNL     1      24.850 -16.347  -2.350 -0.36 -0.00    +0.000 A 
DOCKED: ATOM      3  C   UNL     1      24.442 -17.230  -1.328 -0.62 -0.00    +0.000 A 
DOCKED: ATOM      4  C   UNL     1      25.424 -17.918  -0.596 -0.61 -0.00    +0.000 A 
DOCKED: ATOM      5  C   UNL     1      26.781 -17.712  -0.857 -0.45 -0.00    +0.000 A 
DOCKED: ATOM      6  C   UNL     1      27.176 -16.828  -1.862 -0.33 -0.00    +0.000 A 
DOCKED: ENDROOT
DOCKED: BRANCH   1   8
DOCKED: ATOM      7  O   UNL     1      26.121 -13.691  -3.704 -0.41 -0.00    +0.000 OA
DOCKED: ATOM      8  S   UNL     1      26.707 -15.060  -3.911 -0.59 -0.00    +0.000 S 
DOCKED: ATOM      9  O   UNL     1      26.215 -15.611  -5.219 -1.20 +0.00    +0.000 OA
DOCKED: BRANCH   8  10
DOCKED: ATOM     10  N   UNL     1      28.438 -14.934  -3.958 -0.22 -0.00    +0.000 N 
DOCKED: ATOM     11  H   UNL     1      28.872 -14.305  -3.337 +0.01 -0.00    +0.000 HD
DOCKED: BRANCH  10  12
DOCKED: ATOM     12  C   UNL     1      29.275 -15.693  -4.848 -0.27 -0.00    +0.000 A 
DOCKED: ATOM     13  C   UNL     1      29.649 -15.206  -6.116 -0.30 -0.00    +0.000 A 
DOCKED: ATOM     14  C   UNL     1      30.473 -15.968  -6.950 -0.28 -0.00    +0.000 A 
DOCKED: ATOM     15  C   UNL     1      30.927 -17.221  -6.533 -0.28 -0.00    +0.000 A 
DOCKED: ATOM     16  C   UNL     1      30.557 -17.716  -5.281 -0.27 -0.00    +0.000 A 
DOCKED: ATOM     17  C   UNL     1      29.734 -16.958  -4.444 -0.23 -0.00    +0.000 A 
DOCKED: ENDBRANCH  10  12
DOCKED: ENDBRANCH   8  10
DOCKED: ENDBRANCH   1   8
DOCKED: BRANCH   3  18
DOCKED: ATOM     18  C   UNL     1      23.014 -17.494  -1.023 -0.72 -0.00    +0.000 C 
DOCKED: ATOM     19  C   UNL     1      22.521 -18.715  -0.765 -0.83 -0.00    +0.000 C 
DOCKED: BRANCH  19  20
DOCKED: ATOM     20  C   UNL     1      21.098 -18.969  -0.460 -0.86 -0.00    +0.000 C 
DOCKED: ATOM     21  N   UNL     1      20.646 -20.196   0.127 -0.68 -0.00    +0.000 N 
DOCKED: ATOM     22  O   UNL     1      19.323 -20.423   0.289 -1.00 -0.00    +0.000 OA
DOCKED: ATOM     23  O   UNL     1      20.259 -18.061  -0.707 -2.19 -0.00    +0.000 OA
DOCKED: ATOM     24  H   UNL     1      21.301 -20.874   0.413 -0.58 -0.00    +0.000 HD
DOCKED: ENDBRANCH  19  20
DOCKED: ENDBRANCH   3  18
DOCKED: TORSDOF 5
DOCKED: TER
DOCKED: ENDMDL
________________________________________________________________________________


	BEGINNING GENETIC ALGORITHM DOCKING 79 of 100
Run: 79 Seed: 461515873 788260408 [ Run 79 of 100 GA/GALS ]
Beginning LAMARCKIAN GENETIC ALGORITHM (LGA), with a maximum of 2500000 energy evaluations.

Final-Value: -14.104


	FINAL GENETIC ALGORITHM DOCKED STATE
	_______________________________________________


Detailed state:  trans 26.091 -16.258 0.302 quatxyzw 0.487652 -0.709549 -0.508477 -0.013662 center 0.230 -0.012 -0.200 ntor 5 -116.4200 59.5696 178.7309 -0.6621 -20.5329
State:	 26.091 -16.258   0.302   0.488 -0.710 -0.509 -178.434   -116.42   59.57  178.73   -0.66  -20.53

DOCKED: MODEL       79
DOCKED: USER    Run = 79
DOCKED: USER    DPF = ligand_dock.biased.dpf
DOCKED: USER  
DOCKED: USER    Estimated Free Energy of Binding    =  -11.43 kcal/mol  [=(1)+(2)+(3)-(4)]
DOCKED: USER    Estimated Inhibition Constant, Ki   =    4.22 nM (nanomolar)  [Temperature = 298.15 K]
DOCKED: USER    
DOCKED: USER    (1) Final Intermolecular Energy     =  -12.92 kcal/mol
DOCKED: USER        vdW + Hbond + desolv Energy     =  -12.92 kcal/mol
DOCKED: USER        Electrostatic Energy            =   +0.00 kcal/mol
DOCKED: USER    (2) Final Total Internal Energy     =   -1.19 kcal/mol
DOCKED: USER    (3) Torsional Free Energy           =   +1.49 kcal/mol
DOCKED: USER    (4) Unbound System's Energy  [=(2)] =   -1.19 kcal/mol
DOCKED: USER    
DOCKED: USER    
DOCKED: USER    NEWDPF move ligand.pdbqt
DOCKED: USER    NEWDPF about 0.230000 -0.012000 -0.200000
DOCKED: USER    NEWDPF tran0 26.091028 -16.257576 0.301629
DOCKED: USER    NEWDPF quaternion0 0.487652 -0.709549 -0.508477 -0.013662
DOCKED: USER    NEWDPF axisangle0 0.487698 -0.709615 -0.508525 -178.434458
DOCKED: USER    NEWDPF quat0 0.487698 -0.709615 -0.508525 -178.434458
DOCKED: USER    NEWDPF dihe0 -116.42 59.57 178.73 -0.66 -20.53 
DOCKED: USER  keepresnum = 1 
DOCKED: USER  
DOCKED: REMARK  Name = 
DOCKED: REMARK  5 active torsions:
DOCKED: REMARK  status: ('A' for Active; 'I' for Inactive)
DOCKED: REMARK    1  A    between atoms: S_2  and  N_3
DOCKED: REMARK    2  A    between atoms: S_2  and  C_10
DOCKED: REMARK    3  A    between atoms: N_3  and  C_4
DOCKED: REMARK    4  A    between atoms: C_12  and  C_13
DOCKED: REMARK    5  A    between atoms: C_14  and  C_15
DOCKED: REMARK                            x       y       z     vdW  Elec       q    Type
DOCKED: REMARK                         _______ _______ _______ _____ _____    ______ ____
DOCKED: USER                              x       y       z     vdW  Elec       q    Type
DOCKED: USER                           _______ _______ _______ _____ _____    ______ ____
DOCKED: ROOT
DOCKED: ATOM      1  C   UNL     1      27.731 -15.824  -1.070 -0.28 -0.00    +0.000 A 
DOCKED: ATOM      2  C   UNL     1      26.662 -16.599  -0.597 -0.43 -0.00    +0.000 A 
DOCKED: ATOM      3  C   UNL     1      25.533 -16.834  -1.410 -0.53 -0.00    +0.000 A 
DOCKED: ATOM      4  C   UNL     1      25.493 -16.266  -2.694 -0.48 -0.00    +0.000 A 
DOCKED: ATOM      5  C   UNL     1      26.563 -15.502  -3.168 -0.41 -0.00    +0.000 A 
DOCKED: ATOM      6  C   UNL     1      27.681 -15.284  -2.361 -0.24 -0.00    +0.000 A 
DOCKED: ENDROOT
DOCKED: BRANCH   1   8
DOCKED: ATOM      7  O   UNL     1      30.083 -14.574  -0.703 -0.08 -0.00    +0.000 OA
DOCKED: ATOM      8  S   UNL     1      29.124 -15.520  -0.036 -0.25 -0.00    +0.000 S 
DOCKED: ATOM      9  O   UNL     1      29.824 -16.824   0.224 -0.11 -0.00    +0.000 OA
DOCKED: BRANCH   8  10
DOCKED: ATOM     10  N   UNL     1      28.611 -14.835   1.474 -0.18 -0.00    +0.000 N 
DOCKED: ATOM     11  H   UNL     1      28.909 -15.271   2.305 -1.89 -0.00    +0.000 HD
DOCKED: BRANCH  10  12
DOCKED: ATOM     12  C   UNL     1      27.776 -13.669   1.584 -0.24 -0.00    +0.000 A 
DOCKED: ATOM     13  C   UNL     1      26.597 -13.521   0.826 -0.27 -0.00    +0.000 A 
DOCKED: ATOM     14  C   UNL     1      25.805 -12.378   0.968 -0.29 +0.00    +0.000 A 
DOCKED: ATOM     15  C   UNL     1      26.180 -11.369   1.859 -0.33 +0.00    +0.000 A 
DOCKED: ATOM     16  C   UNL     1      27.350 -11.502   2.609 -0.26 +0.00    +0.000 A 
DOCKED: ATOM     17  C   UNL     1      28.145 -12.644   2.471 -0.20 -0.00    +0.000 A 
DOCKED: ENDBRANCH  10  12
DOCKED: ENDBRANCH   8  10
DOCKED: ENDBRANCH   1   8
DOCKED: BRANCH   3  18
DOCKED: ATOM     18  C   UNL     1      24.366 -17.625  -0.948 -0.74 -0.00    +0.000 C 
DOCKED: ATOM     19  C   UNL     1      23.131 -17.497  -1.455 -0.48 -0.00    +0.000 C 
DOCKED: BRANCH  19  20
DOCKED: ATOM     20  C   UNL     1      21.974 -18.289  -0.991 -0.78 -0.00    +0.000 C 
DOCKED: ATOM     21  N   UNL     1      21.515 -19.457  -1.684 -0.60 -0.00    +0.000 N 
DOCKED: ATOM     22  O   UNL     1      20.388 -20.086  -1.278 -1.99 -0.00    +0.000 OA
DOCKED: ATOM     23  O   UNL     1      21.388 -17.933   0.067 -1.32 -0.00    +0.000 OA
DOCKED: ATOM     24  H   UNL     1      22.021 -19.800  -2.455 -0.53 -0.00    +0.000 HD
DOCKED: ENDBRANCH  19  20
DOCKED: ENDBRANCH   3  18
DOCKED: TORSDOF 5
DOCKED: TER
DOCKED: ENDMDL
________________________________________________________________________________


	BEGINNING GENETIC ALGORITHM DOCKING 80 of 100
Run: 80 Seed: 903308558 1133552345 [ Run 80 of 100 GA/GALS ]
Beginning LAMARCKIAN GENETIC ALGORITHM (LGA), with a maximum of 2500000 energy evaluations.

Final-Value: -14.361


	FINAL GENETIC ALGORITHM DOCKED STATE
	_______________________________________________


Detailed state:  trans 23.914 -17.215 -2.931 quatxyzw 0.420801 -0.524846 0.719181 -0.173901 center 0.230 -0.012 -0.200 ntor 5 -157.1440 114.5703 -170.4326 31.4462 171.9144
State:	 23.914 -17.215  -2.931   0.427 -0.533  0.730 -159.971   -157.14  114.57 -170.43   31.45  171.91

DOCKED: MODEL       80
DOCKED: USER    Run = 80
DOCKED: USER    DPF = ligand_dock.biased.dpf
DOCKED: USER  
DOCKED: USER    Estimated Free Energy of Binding    =  -11.67 kcal/mol  [=(1)+(2)+(3)-(4)]
DOCKED: USER    Estimated Inhibition Constant, Ki   =    2.79 nM (nanomolar)  [Temperature = 298.15 K]
DOCKED: USER    
DOCKED: USER    (1) Final Intermolecular Energy     =  -13.16 kcal/mol
DOCKED: USER        vdW + Hbond + desolv Energy     =  -13.16 kcal/mol
DOCKED: USER        Electrostatic Energy            =   +0.00 kcal/mol
DOCKED: USER    (2) Final Total Internal Energy     =   -1.20 kcal/mol
DOCKED: USER    (3) Torsional Free Energy           =   +1.49 kcal/mol
DOCKED: USER    (4) Unbound System's Energy  [=(2)] =   -1.20 kcal/mol
DOCKED: USER    
DOCKED: USER    
DOCKED: USER    NEWDPF move ligand.pdbqt
DOCKED: USER    NEWDPF about 0.230000 -0.012000 -0.200000
DOCKED: USER    NEWDPF tran0 23.914009 -17.214570 -2.931010
DOCKED: USER    NEWDPF quaternion0 0.420801 -0.524846 0.719181 -0.173901
DOCKED: USER    NEWDPF axisangle0 0.427312 -0.532967 0.730309 -159.970530
DOCKED: USER    NEWDPF quat0 0.427312 -0.532967 0.730309 -159.970530
DOCKED: USER    NEWDPF dihe0 -157.14 114.57 -170.43 31.45 171.91 
DOCKED: USER  keepresnum = 1 
DOCKED: USER  
DOCKED: REMARK  Name = 
DOCKED: REMARK  5 active torsions:
DOCKED: REMARK  status: ('A' for Active; 'I' for Inactive)
DOCKED: REMARK    1  A    between atoms: S_2  and  N_3
DOCKED: REMARK    2  A    between atoms: S_2  and  C_10
DOCKED: REMARK    3  A    between atoms: N_3  and  C_4
DOCKED: REMARK    4  A    between atoms: C_12  and  C_13
DOCKED: REMARK    5  A    between atoms: C_14  and  C_15
DOCKED: REMARK                            x       y       z     vdW  Elec       q    Type
DOCKED: REMARK                         _______ _______ _______ _____ _____    ______ ____
DOCKED: USER                              x       y       z     vdW  Elec       q    Type
DOCKED: USER                           _______ _______ _______ _____ _____    ______ ____
DOCKED: ROOT
DOCKED: ATOM      1  C   UNL     1      25.730 -16.406  -2.033 -0.49 -0.00    +0.000 A 
DOCKED: ATOM      2  C   UNL     1      24.381 -16.786  -2.010 -0.35 -0.00    +0.000 A 
DOCKED: ATOM      3  C   UNL     1      23.937 -17.797  -1.133 -0.68 -0.00    +0.000 A 
DOCKED: ATOM      4  C   UNL     1      24.873 -18.427  -0.296 -0.58 -0.00    +0.000 A 
DOCKED: ATOM      5  C   UNL     1      26.215 -18.041  -0.314 -0.57 -0.00    +0.000 A 
DOCKED: ATOM      6  C   UNL     1      26.644 -17.031  -1.176 -0.46 -0.00    +0.000 A 
DOCKED: ENDROOT
DOCKED: BRANCH   1   8
DOCKED: ATOM      7  O   UNL     1      25.109 -14.356  -3.659 -0.85 -0.00    +0.000 OA
DOCKED: ATOM      8  S   UNL     1      26.275 -15.156  -3.150 -0.59 -0.00    +0.000 S 
DOCKED: ATOM      9  O   UNL     1      26.963 -15.815  -4.312 -0.55 -0.00    +0.000 OA
DOCKED: BRANCH   8  10
DOCKED: ATOM     10  N   UNL     1      27.390 -14.089  -2.355 -0.19 -0.00    +0.000 N 
DOCKED: ATOM     11  H   UNL     1      28.000 -13.557  -2.916 +0.01 -0.00    +0.000 HD
DOCKED: BRANCH  10  12
DOCKED: ATOM     12  C   UNL     1      27.476 -13.934  -0.928 -0.18 -0.00    +0.000 A 
DOCKED: ATOM     13  C   UNL     1      28.501 -14.537  -0.172 -0.16 -0.00    +0.000 A 
DOCKED: ATOM     14  C   UNL     1      28.557 -14.356   1.213 -0.19 -0.00    +0.000 A 
DOCKED: ATOM     15  C   UNL     1      27.594 -13.579   1.859 -0.26 -0.00    +0.000 A 
DOCKED: ATOM     16  C   UNL     1      26.569 -12.983   1.121 -0.30 -0.00    +0.000 A 
DOCKED: ATOM     17  C   UNL     1      26.509 -13.161  -0.264 -0.16 -0.00    +0.000 A 
DOCKED: ENDBRANCH  10  12
DOCKED: ENDBRANCH   8  10
DOCKED: ENDBRANCH   1   8
DOCKED: BRANCH   3  18
DOCKED: ATOM     18  C   UNL     1      22.525 -18.252  -1.087 -0.80 -0.00    +0.000 C 
DOCKED: ATOM     19  C   UNL     1      22.123 -19.369  -0.461 -0.72 -0.00    +0.000 C 
DOCKED: BRANCH  19  20
DOCKED: ATOM     20  C   UNL     1      20.715 -19.815  -0.419 -0.80 -0.00    +0.000 C 
DOCKED: ATOM     21  N   UNL     1      20.120 -20.366   0.763 -0.68 -0.00    +0.000 N 
DOCKED: ATOM     22  O   UNL     1      18.860 -20.858   0.721 -0.83 -0.00    +0.000 OA
DOCKED: ATOM     23  O   UNL     1      20.011 -19.681  -1.456 -2.22 -0.00    +0.000 OA
DOCKED: ATOM     24  H   UNL     1      20.629 -20.388   1.605 -0.54 -0.00    +0.000 HD
DOCKED: ENDBRANCH  19  20
DOCKED: ENDBRANCH   3  18
DOCKED: TORSDOF 5
DOCKED: TER
DOCKED: ENDMDL
________________________________________________________________________________


	BEGINNING GENETIC ALGORITHM DOCKING 81 of 100
Run: 81 Seed: 1662012928 729772018 [ Run 81 of 100 GA/GALS ]
Beginning LAMARCKIAN GENETIC ALGORITHM (LGA), with a maximum of 2500000 energy evaluations.

Final-Value: -14.450


	FINAL GENETIC ALGORITHM DOCKED STATE
	_______________________________________________


Detailed state:  trans 24.347 -17.410 -3.049 quatxyzw -0.511161 0.394678 -0.751024 0.137502 center 0.230 -0.012 -0.200 ntor 5 -12.0195 -46.0756 -21.4164 -66.4701 -169.8227
State:	 24.347 -17.410  -3.049  -0.516  0.398 -0.758 164.193    -12.02  -46.08  -21.42  -66.47 -169.82

DOCKED: MODEL       81
DOCKED: USER    Run = 81
DOCKED: USER    DPF = ligand_dock.biased.dpf
DOCKED: USER  
DOCKED: USER    Estimated Free Energy of Binding    =  -11.97 kcal/mol  [=(1)+(2)+(3)-(4)]
DOCKED: USER    Estimated Inhibition Constant, Ki   =    1.69 nM (nanomolar)  [Temperature = 298.15 K]
DOCKED: USER    
DOCKED: USER    (1) Final Intermolecular Energy     =  -13.46 kcal/mol
DOCKED: USER        vdW + Hbond + desolv Energy     =  -13.46 kcal/mol
DOCKED: USER        Electrostatic Energy            =   +0.00 kcal/mol
DOCKED: USER    (2) Final Total Internal Energy     =   -0.99 kcal/mol
DOCKED: USER    (3) Torsional Free Energy           =   +1.49 kcal/mol
DOCKED: USER    (4) Unbound System's Energy  [=(2)] =   -0.99 kcal/mol
DOCKED: USER    
DOCKED: USER    
DOCKED: USER    NEWDPF move ligand.pdbqt
DOCKED: USER    NEWDPF about 0.230000 -0.012000 -0.200000
DOCKED: USER    NEWDPF tran0 24.346617 -17.409666 -3.049066
DOCKED: USER    NEWDPF quaternion0 -0.511161 0.394678 -0.751024 0.137502
DOCKED: USER    NEWDPF axisangle0 -0.516062 0.398462 -0.758226 164.193363
DOCKED: USER    NEWDPF quat0 -0.516062 0.398462 -0.758226 164.193363
DOCKED: USER    NEWDPF dihe0 -12.02 -46.08 -21.42 -66.47 -169.82 
DOCKED: USER  keepresnum = 1 
DOCKED: USER  
DOCKED: REMARK  Name = 
DOCKED: REMARK  5 active torsions:
DOCKED: REMARK  status: ('A' for Active; 'I' for Inactive)
DOCKED: REMARK    1  A    between atoms: S_2  and  N_3
DOCKED: REMARK    2  A    between atoms: S_2  and  C_10
DOCKED: REMARK    3  A    between atoms: N_3  and  C_4
DOCKED: REMARK    4  A    between atoms: C_12  and  C_13
DOCKED: REMARK    5  A    between atoms: C_14  and  C_15
DOCKED: REMARK                            x       y       z     vdW  Elec       q    Type
DOCKED: REMARK                         _______ _______ _______ _____ _____    ______ ____
DOCKED: USER                              x       y       z     vdW  Elec       q    Type
DOCKED: USER                           _______ _______ _______ _____ _____    ______ ____
DOCKED: ROOT
DOCKED: ATOM      1  C   UNL     1      25.944 -16.023  -2.519 -0.46 -0.00    +0.000 A 
DOCKED: ATOM      2  C   UNL     1      24.757 -16.725  -2.267 -0.41 -0.00    +0.000 A 
DOCKED: ATOM      3  C   UNL     1      24.685 -17.650  -1.205 -0.64 -0.00    +0.000 A 
DOCKED: ATOM      4  C   UNL     1      25.827 -17.867  -0.416 -0.59 -0.00    +0.000 A 
DOCKED: ATOM      5  C   UNL     1      27.006 -17.160  -0.663 -0.45 -0.00    +0.000 A 
DOCKED: ATOM      6  C   UNL     1      27.066 -16.237  -1.708 -0.35 -0.00    +0.000 A 
DOCKED: ENDROOT
DOCKED: BRANCH   1   8
DOCKED: ATOM      7  O   UNL     1      24.715 -14.174  -4.037 -1.09 -0.00    +0.000 OA
DOCKED: ATOM      8  S   UNL     1      26.028 -14.885  -3.862 -0.67 -0.00    +0.000 S 
DOCKED: ATOM      9  O   UNL     1      26.344 -15.646  -5.118 -1.13 +0.00    +0.000 OA
DOCKED: BRANCH   8  10
DOCKED: ATOM     10  N   UNL     1      27.274 -13.711  -3.576 -0.22 -0.00    +0.000 N 
DOCKED: ATOM     11  H   UNL     1      28.200 -14.034  -3.482 +0.01 -0.00    +0.000 HD
DOCKED: BRANCH  10  12
DOCKED: ATOM     12  C   UNL     1      27.036 -12.297  -3.468 -0.17 -0.00    +0.000 A 
DOCKED: ATOM     13  C   UNL     1      26.431 -11.561  -4.507 -0.23 -0.00    +0.000 A 
DOCKED: ATOM     14  C   UNL     1      26.206 -10.189  -4.361 -0.19 -0.00    +0.000 A 
DOCKED: ATOM     15  C   UNL     1      26.585  -9.535  -3.187 -0.13 -0.00    +0.000 A 
DOCKED: ATOM     16  C   UNL     1      27.193 -10.253  -2.155 -0.10 -0.00    +0.000 A 
DOCKED: ATOM     17  C   UNL     1      27.419 -11.625  -2.295 -0.11 -0.00    +0.000 A 
DOCKED: ENDBRANCH  10  12
DOCKED: ENDBRANCH   8  10
DOCKED: ENDBRANCH   1   8
DOCKED: BRANCH   3  18
DOCKED: ATOM     18  C   UNL     1      23.460 -18.436  -0.912 -0.81 -0.00    +0.000 C 
DOCKED: ATOM     19  C   UNL     1      22.225 -17.914  -0.903 -0.75 -0.00    +0.000 C 
DOCKED: BRANCH  19  20
DOCKED: ATOM     20  C   UNL     1      21.010 -18.704  -0.612 -0.83 -0.00    +0.000 C 
DOCKED: ATOM     21  N   UNL     1      21.067 -20.073  -0.193 -0.63 -0.00    +0.000 N 
DOCKED: ATOM     22  O   UNL     1      19.926 -20.783  -0.042 -1.09 -0.00    +0.000 OA
DOCKED: ATOM     23  O   UNL     1      19.888 -18.139  -0.715 -1.89 -0.00    +0.000 OA
DOCKED: ATOM     24  H   UNL     1      21.938 -20.497  -0.017 -0.54 -0.00    +0.000 HD
DOCKED: ENDBRANCH  19  20
DOCKED: ENDBRANCH   3  18
DOCKED: TORSDOF 5
DOCKED: TER
DOCKED: ENDMDL
________________________________________________________________________________


	BEGINNING GENETIC ALGORITHM DOCKING 82 of 100
Run: 82 Seed: 780668026 2034075964 [ Run 82 of 100 GA/GALS ]
Beginning LAMARCKIAN GENETIC ALGORITHM (LGA), with a maximum of 2500000 energy evaluations.

Final-Value: -14.477


	FINAL GENETIC ALGORITHM DOCKED STATE
	_______________________________________________


Detailed state:  trans 24.796 -17.040 -3.280 quatxyzw 0.361151 -0.363066 0.811443 -0.281627 center 0.230 -0.012 -0.200 ntor 5 176.4049 -124.9494 137.0459 -46.7700 137.2601
State:	 24.796 -17.040  -3.280   0.376 -0.378  0.846 -147.285    176.40 -124.95  137.05  -46.77  137.26

DOCKED: MODEL       82
DOCKED: USER    Run = 82
DOCKED: USER    DPF = ligand_dock.biased.dpf
DOCKED: USER  
DOCKED: USER    Estimated Free Energy of Binding    =  -11.95 kcal/mol  [=(1)+(2)+(3)-(4)]
DOCKED: USER    Estimated Inhibition Constant, Ki   =    1.74 nM (nanomolar)  [Temperature = 298.15 K]
DOCKED: USER    
DOCKED: USER    (1) Final Intermolecular Energy     =  -13.44 kcal/mol
DOCKED: USER        vdW + Hbond + desolv Energy     =  -13.44 kcal/mol
DOCKED: USER        Electrostatic Energy            =   +0.00 kcal/mol
DOCKED: USER    (2) Final Total Internal Energy     =   -1.03 kcal/mol
DOCKED: USER    (3) Torsional Free Energy           =   +1.49 kcal/mol
DOCKED: USER    (4) Unbound System's Energy  [=(2)] =   -1.03 kcal/mol
DOCKED: USER    
DOCKED: USER    
DOCKED: USER    NEWDPF move ligand.pdbqt
DOCKED: USER    NEWDPF about 0.230000 -0.012000 -0.200000
DOCKED: USER    NEWDPF tran0 24.795843 -17.039537 -3.279942
DOCKED: USER    NEWDPF quaternion0 0.361151 -0.363066 0.811443 -0.281627
DOCKED: USER    NEWDPF axisangle0 0.376385 -0.378381 0.845672 -147.285326
DOCKED: USER    NEWDPF quat0 0.376385 -0.378381 0.845672 -147.285326
DOCKED: USER    NEWDPF dihe0 176.40 -124.95 137.05 -46.77 137.26 
DOCKED: USER  keepresnum = 1 
DOCKED: USER  
DOCKED: REMARK  Name = 
DOCKED: REMARK  5 active torsions:
DOCKED: REMARK  status: ('A' for Active; 'I' for Inactive)
DOCKED: REMARK    1  A    between atoms: S_2  and  N_3
DOCKED: REMARK    2  A    between atoms: S_2  and  C_10
DOCKED: REMARK    3  A    between atoms: N_3  and  C_4
DOCKED: REMARK    4  A    between atoms: C_12  and  C_13
DOCKED: REMARK    5  A    between atoms: C_14  and  C_15
DOCKED: REMARK                            x       y       z     vdW  Elec       q    Type
DOCKED: REMARK                         _______ _______ _______ _____ _____    ______ ____
DOCKED: USER                              x       y       z     vdW  Elec       q    Type
DOCKED: USER                           _______ _______ _______ _____ _____    ______ ____
DOCKED: ROOT
DOCKED: ATOM      1  C   UNL     1      26.663 -16.014  -2.808 -0.35 -0.00    +0.000 A 
DOCKED: ATOM      2  C   UNL     1      25.297 -16.280  -2.631 -0.46 -0.00    +0.000 A 
DOCKED: ATOM      3  C   UNL     1      24.821 -16.792  -1.406 -0.57 -0.00    +0.000 A 
DOCKED: ATOM      4  C   UNL     1      25.741 -17.047  -0.375 -0.47 -0.00    +0.000 A 
DOCKED: ATOM      5  C   UNL     1      27.099 -16.773  -0.550 -0.41 -0.00    +0.000 A 
DOCKED: ATOM      6  C   UNL     1      27.560 -16.255  -1.761 -0.31 -0.00    +0.000 A 
DOCKED: ENDROOT
DOCKED: BRANCH   1   8
DOCKED: ATOM      7  O   UNL     1      26.227 -15.619  -5.432 -1.20 +0.00    +0.000 OA
DOCKED: ATOM      8  S   UNL     1      27.247 -15.394  -4.351 -0.52 -0.00    +0.000 S 
DOCKED: ATOM      9  O   UNL     1      28.512 -16.118  -4.713 -0.41 -0.00    +0.000 OA
DOCKED: BRANCH   8  10
DOCKED: ATOM     10  N   UNL     1      27.575 -13.694  -4.227 -0.22 -0.00    +0.000 N 
DOCKED: ATOM     11  H   UNL     1      28.430 -13.417  -3.824 +0.01 -0.00    +0.000 HD
DOCKED: BRANCH  10  12
DOCKED: ATOM     12  C   UNL     1      26.675 -12.667  -4.677 -0.26 -0.00    +0.000 A 
DOCKED: ATOM     13  C   UNL     1      27.128 -11.537  -5.388 -0.17 -0.00    +0.000 A 
DOCKED: ATOM     14  C   UNL     1      26.221 -10.564  -5.819 -0.20 -0.00    +0.000 A 
DOCKED: ATOM     15  C   UNL     1      24.859 -10.701  -5.543 -0.38 -0.00    +0.000 A 
DOCKED: ATOM     16  C   UNL     1      24.401 -11.813  -4.833 -0.23 -0.00    +0.000 A 
DOCKED: ATOM     17  C   UNL     1      25.303 -12.789  -4.400 -0.26 -0.00    +0.000 A 
DOCKED: ENDBRANCH  10  12
DOCKED: ENDBRANCH   8  10
DOCKED: ENDBRANCH   1   8
DOCKED: BRANCH   3  18
DOCKED: ATOM     18  C   UNL     1      23.390 -17.114  -1.176 -0.62 -0.00    +0.000 C 
DOCKED: ATOM     19  C   UNL     1      22.931 -18.357  -0.969 -0.82 -0.00    +0.000 C 
DOCKED: BRANCH  19  20
DOCKED: ATOM     20  C   UNL     1      21.505 -18.668  -0.739 -0.86 -0.00    +0.000 C 
DOCKED: ATOM     21  N   UNL     1      21.068 -19.935  -0.230 -0.67 -0.00    +0.000 N 
DOCKED: ATOM     22  O   UNL     1      19.747 -20.209  -0.137 -1.27 -0.00    +0.000 OA
DOCKED: ATOM     23  O   UNL     1      20.648 -17.775  -0.980 -2.22 -0.00    +0.000 OA
DOCKED: ATOM     24  H   UNL     1      21.731 -20.606   0.052 -0.57 -0.00    +0.000 HD
DOCKED: ENDBRANCH  19  20
DOCKED: ENDBRANCH   3  18
DOCKED: TORSDOF 5
DOCKED: TER
DOCKED: ENDMDL
________________________________________________________________________________


	BEGINNING GENETIC ALGORITHM DOCKING 83 of 100
Run: 83 Seed: 968952827 151529508 [ Run 83 of 100 GA/GALS ]
Beginning LAMARCKIAN GENETIC ALGORITHM (LGA), with a maximum of 2500000 energy evaluations.

Final-Value: -14.593


	FINAL GENETIC ALGORITHM DOCKED STATE
	_______________________________________________


Detailed state:  trans 23.627 -16.899 -2.736 quatxyzw 0.455441 -0.536865 0.687979 -0.176165 center 0.230 -0.012 -0.200 ntor 5 -126.1569 -179.9181 163.6780 -118.2032 -80.7210
State:	 23.627 -16.899  -2.736   0.463 -0.545  0.699 -159.707   -126.16 -179.92  163.68 -118.20  -80.72

DOCKED: MODEL       83
DOCKED: USER    Run = 83
DOCKED: USER    DPF = ligand_dock.biased.dpf
DOCKED: USER  
DOCKED: USER    Estimated Free Energy of Binding    =  -12.20 kcal/mol  [=(1)+(2)+(3)-(4)]
DOCKED: USER    Estimated Inhibition Constant, Ki   =    1.14 nM (nanomolar)  [Temperature = 298.15 K]
DOCKED: USER    
DOCKED: USER    (1) Final Intermolecular Energy     =  -13.69 kcal/mol
DOCKED: USER        vdW + Hbond + desolv Energy     =  -13.69 kcal/mol
DOCKED: USER        Electrostatic Energy            =   +0.00 kcal/mol
DOCKED: USER    (2) Final Total Internal Energy     =   -0.90 kcal/mol
DOCKED: USER    (3) Torsional Free Energy           =   +1.49 kcal/mol
DOCKED: USER    (4) Unbound System's Energy  [=(2)] =   -0.90 kcal/mol
DOCKED: USER    
DOCKED: USER    
DOCKED: USER    NEWDPF move ligand.pdbqt
DOCKED: USER    NEWDPF about 0.230000 -0.012000 -0.200000
DOCKED: USER    NEWDPF tran0 23.627467 -16.899182 -2.735584
DOCKED: USER    NEWDPF quaternion0 0.455441 -0.536865 0.687979 -0.176165
DOCKED: USER    NEWDPF axisangle0 0.462677 -0.545395 0.698909 -159.707032
DOCKED: USER    NEWDPF quat0 0.462677 -0.545395 0.698909 -159.707032
DOCKED: USER    NEWDPF dihe0 -126.16 -179.92 163.68 -118.20 -80.72 
DOCKED: USER  keepresnum = 1 
DOCKED: USER  
DOCKED: REMARK  Name = 
DOCKED: REMARK  5 active torsions:
DOCKED: REMARK  status: ('A' for Active; 'I' for Inactive)
DOCKED: REMARK    1  A    between atoms: S_2  and  N_3
DOCKED: REMARK    2  A    between atoms: S_2  and  C_10
DOCKED: REMARK    3  A    between atoms: N_3  and  C_4
DOCKED: REMARK    4  A    between atoms: C_12  and  C_13
DOCKED: REMARK    5  A    between atoms: C_14  and  C_15
DOCKED: REMARK                            x       y       z     vdW  Elec       q    Type
DOCKED: REMARK                         _______ _______ _______ _____ _____    ______ ____
DOCKED: USER                              x       y       z     vdW  Elec       q    Type
DOCKED: USER                           _______ _______ _______ _____ _____    ______ ____
DOCKED: ROOT
DOCKED: ATOM      1  C   UNL     1      25.497 -16.119  -1.927 -0.49 -0.00    +0.000 A 
DOCKED: ATOM      2  C   UNL     1      24.157 -16.519  -1.827 -0.25 -0.00    +0.000 A 
DOCKED: ATOM      3  C   UNL     1      23.790 -17.587  -0.982 -0.67 -0.00    +0.000 A 
DOCKED: ATOM      4  C   UNL     1      24.792 -18.253  -0.257 -0.63 -0.00    +0.000 A 
DOCKED: ATOM      5  C   UNL     1      26.126 -17.847  -0.350 -0.57 -0.00    +0.000 A 
DOCKED: ATOM      6  C   UNL     1      26.479 -16.781  -1.179 -0.45 -0.00    +0.000 A 
DOCKED: ENDROOT
DOCKED: BRANCH   1   8
DOCKED: ATOM      7  O   UNL     1      26.687 -13.729  -2.250 -0.27 -0.00    +0.000 OA
DOCKED: ATOM      8  S   UNL     1      25.945 -14.798  -3.003 -0.58 -0.00    +0.000 S 
DOCKED: ATOM      9  O   UNL     1      24.693 -14.207  -3.587 -0.92 -0.00    +0.000 OA
DOCKED: BRANCH   8  10
DOCKED: ATOM     10  N   UNL     1      26.952 -15.388  -4.289 -0.44 -0.00    +0.000 N 
DOCKED: ATOM     11  H   UNL     1      27.057 -16.362  -4.384 -0.01 -0.00    +0.000 HD
DOCKED: BRANCH  10  12
DOCKED: ATOM     12  C   UNL     1      27.643 -14.539  -5.222 -0.36 -0.00    +0.000 A 
DOCKED: ATOM     13  C   UNL     1      28.636 -15.037  -6.090 -0.35 -0.00    +0.000 A 
DOCKED: ATOM     14  C   UNL     1      29.278 -14.183  -6.992 -0.30 -0.00    +0.000 A 
DOCKED: ATOM     15  C   UNL     1      28.944 -12.828  -7.036 -0.22 -0.00    +0.000 A 
DOCKED: ATOM     16  C   UNL     1      27.967 -12.323  -6.176 -0.18 -0.00    +0.000 A 
DOCKED: ATOM     17  C   UNL     1      27.321 -13.172  -5.273 -0.23 -0.00    +0.000 A 
DOCKED: ENDBRANCH  10  12
DOCKED: ENDBRANCH   8  10
DOCKED: ENDBRANCH   1   8
DOCKED: BRANCH   3  18
DOCKED: ATOM     18  C   UNL     1      22.390 -18.065  -0.860 -0.80 -0.00    +0.000 C 
DOCKED: ATOM     19  C   UNL     1      22.051 -19.359  -0.756 -0.77 -0.00    +0.000 C 
DOCKED: BRANCH  19  20
DOCKED: ATOM     20  C   UNL     1      20.655 -19.826  -0.633 -0.79 -0.00    +0.000 C 
DOCKED: ATOM     21  N   UNL     1      20.128 -20.357   0.589 -0.70 -0.00    +0.000 N 
DOCKED: ATOM     22  O   UNL     1      18.877 -20.870   0.621 -0.85 -0.00    +0.000 OA
DOCKED: ATOM     23  O   UNL     1      19.899 -19.730  -1.638 -2.33 -0.00    +0.000 OA
DOCKED: ATOM     24  H   UNL     1      20.678 -20.349   1.406 -0.50 -0.00    +0.000 HD
DOCKED: ENDBRANCH  19  20
DOCKED: ENDBRANCH   3  18
DOCKED: TORSDOF 5
DOCKED: TER
DOCKED: ENDMDL
________________________________________________________________________________


	BEGINNING GENETIC ALGORITHM DOCKING 84 of 100
Run: 84 Seed: 1385315847 217439233 [ Run 84 of 100 GA/GALS ]
Beginning LAMARCKIAN GENETIC ALGORITHM (LGA), with a maximum of 2500000 energy evaluations.

Final-Value: -15.482


	FINAL GENETIC ALGORITHM DOCKED STATE
	_______________________________________________


Detailed state:  trans 23.843 -17.513 -2.795 quatxyzw -0.501780 0.400006 -0.737439 0.210703 center 0.230 -0.012 -0.200 ntor 5 -44.4497 110.5553 74.7737 173.6557 -154.3500
State:	 23.843 -17.513  -2.795  -0.513  0.409 -0.754 155.673    -44.45  110.56   74.77  173.66 -154.35

DOCKED: MODEL       84
DOCKED: USER    Run = 84
DOCKED: USER    DPF = ligand_dock.biased.dpf
DOCKED: USER  
DOCKED: USER    Estimated Free Energy of Binding    =  -12.99 kcal/mol  [=(1)+(2)+(3)-(4)]
DOCKED: USER    Estimated Inhibition Constant, Ki   =  302.16 pM (picomolar)  [Temperature = 298.15 K]
DOCKED: USER    
DOCKED: USER    (1) Final Intermolecular Energy     =  -14.48 kcal/mol
DOCKED: USER        vdW + Hbond + desolv Energy     =  -14.48 kcal/mol
DOCKED: USER        Electrostatic Energy            =   +0.00 kcal/mol
DOCKED: USER    (2) Final Total Internal Energy     =   -1.00 kcal/mol
DOCKED: USER    (3) Torsional Free Energy           =   +1.49 kcal/mol
DOCKED: USER    (4) Unbound System's Energy  [=(2)] =   -1.00 kcal/mol
DOCKED: USER    
DOCKED: USER    
DOCKED: USER    NEWDPF move ligand.pdbqt
DOCKED: USER    NEWDPF about 0.230000 -0.012000 -0.200000
DOCKED: USER    NEWDPF tran0 23.843005 -17.512766 -2.795002
DOCKED: USER    NEWDPF quaternion0 -0.501780 0.400006 -0.737439 0.210703
DOCKED: USER    NEWDPF axisangle0 -0.513303 0.409193 -0.754375 155.672952
DOCKED: USER    NEWDPF quat0 -0.513303 0.409193 -0.754375 155.672952
DOCKED: USER    NEWDPF dihe0 -44.45 110.56 74.77 173.66 -154.35 
DOCKED: USER  keepresnum = 1 
DOCKED: USER  
DOCKED: REMARK  Name = 
DOCKED: REMARK  5 active torsions:
DOCKED: REMARK  status: ('A' for Active; 'I' for Inactive)
DOCKED: REMARK    1  A    between atoms: S_2  and  N_3
DOCKED: REMARK    2  A    between atoms: S_2  and  C_10
DOCKED: REMARK    3  A    between atoms: N_3  and  C_4
DOCKED: REMARK    4  A    between atoms: C_12  and  C_13
DOCKED: REMARK    5  A    between atoms: C_14  and  C_15
DOCKED: REMARK                            x       y       z     vdW  Elec       q    Type
DOCKED: REMARK                         _______ _______ _______ _____ _____    ______ ____
DOCKED: USER                              x       y       z     vdW  Elec       q    Type
DOCKED: USER                           _______ _______ _______ _____ _____    ______ ____
DOCKED: ROOT
DOCKED: ATOM      1  C   UNL     1      25.630 -16.314  -2.436 -0.49 -0.00    +0.000 A 
DOCKED: ATOM      2  C   UNL     1      24.382 -16.844  -2.079 -0.30 -0.00    +0.000 A 
DOCKED: ATOM      3  C   UNL     1      24.258 -17.693  -0.959 -0.67 -0.00    +0.000 A 
DOCKED: ATOM      4  C   UNL     1      25.409 -18.010  -0.219 -0.60 -0.00    +0.000 A 
DOCKED: ATOM      5  C   UNL     1      26.650 -17.474  -0.571 -0.51 -0.00    +0.000 A 
DOCKED: ATOM      6  C   UNL     1      26.762 -16.625  -1.673 -0.40 -0.00    +0.000 A 
DOCKED: ENDROOT
DOCKED: BRANCH   1   8
DOCKED: ATOM      7  O   UNL     1      24.759 -14.165  -3.798 -1.03 -0.00    +0.000 OA
DOCKED: ATOM      8  S   UNL     1      25.774 -15.273  -3.850 -0.72 -0.00    +0.000 S 
DOCKED: ATOM      9  O   UNL     1      25.536 -16.098  -5.082 -0.93 -0.00    +0.000 OA
DOCKED: BRANCH   8  10
DOCKED: ATOM     10  N   UNL     1      27.364 -14.580  -3.924 -0.29 -0.00    +0.000 N 
DOCKED: ATOM     11  H   UNL     1      27.666 -14.033  -3.162 +0.01 -0.00    +0.000 HD
DOCKED: BRANCH  10  12
DOCKED: ATOM     12  C   UNL     1      28.268 -14.757  -5.029 -0.31 -0.00    +0.000 A 
DOCKED: ATOM     13  C   UNL     1      28.414 -13.783  -6.036 -0.28 -0.00    +0.000 A 
DOCKED: ATOM     14  C   UNL     1      29.310 -13.985  -7.090 -0.29 -0.00    +0.000 A 
DOCKED: ATOM     15  C   UNL     1      30.063 -15.159  -7.155 -0.26 -0.00    +0.000 A 
DOCKED: ATOM     16  C   UNL     1      29.921 -16.135  -6.166 -0.31 -0.00    +0.000 A 
DOCKED: ATOM     17  C   UNL     1      29.027 -15.936  -5.110 -0.30 -0.00    +0.000 A 
DOCKED: ENDBRANCH  10  12
DOCKED: ENDBRANCH   8  10
DOCKED: ENDBRANCH   1   8
DOCKED: BRANCH   3  18
DOCKED: ATOM     18  C   UNL     1      22.965 -18.298  -0.555 -0.83 -0.00    +0.000 C 
DOCKED: ATOM     19  C   UNL     1      22.172 -18.987  -1.389 -0.73 -0.00    +0.000 C 
DOCKED: BRANCH  19  20
DOCKED: ATOM     20  C   UNL     1      20.886 -19.588  -0.978 -0.82 -0.00    +0.000 C 
DOCKED: ATOM     21  N   UNL     1      20.621 -19.984   0.374 -0.69 -0.00    +0.000 N 
DOCKED: ATOM     22  O   UNL     1      19.471 -20.627   0.678 -0.85 -0.00    +0.000 OA
DOCKED: ATOM     23  O   UNL     1      19.986 -19.734  -1.849 -2.39 -0.00    +0.000 OA
DOCKED: ATOM     24  H   UNL     1      21.278 -19.788   1.080 -0.49 -0.00    +0.000 HD
DOCKED: ENDBRANCH  19  20
DOCKED: ENDBRANCH   3  18
DOCKED: TORSDOF 5
DOCKED: TER
DOCKED: ENDMDL
________________________________________________________________________________


	BEGINNING GENETIC ALGORITHM DOCKING 85 of 100
Run: 85 Seed: 1943761002 1599021664 [ Run 85 of 100 GA/GALS ]
Beginning LAMARCKIAN GENETIC ALGORITHM (LGA), with a maximum of 2500000 energy evaluations.

Final-Value: -14.724


	FINAL GENETIC ALGORITHM DOCKED STATE
	_______________________________________________


Detailed state:  trans 24.092 -16.899 -3.083 quatxyzw -0.468972 0.410588 -0.724686 0.293791 center 0.230 -0.012 -0.200 ntor 5 -148.7500 -15.7366 116.0640 163.8015 75.7792
State:	 24.092 -16.899  -3.083  -0.491  0.430 -0.758 145.830   -148.75  -15.74  116.06  163.80   75.78

DOCKED: MODEL       85
DOCKED: USER    Run = 85
DOCKED: USER    DPF = ligand_dock.biased.dpf
DOCKED: USER  
DOCKED: USER    Estimated Free Energy of Binding    =  -12.31 kcal/mol  [=(1)+(2)+(3)-(4)]
DOCKED: USER    Estimated Inhibition Constant, Ki   =  953.39 pM (picomolar)  [Temperature = 298.15 K]
DOCKED: USER    
DOCKED: USER    (1) Final Intermolecular Energy     =  -13.80 kcal/mol
DOCKED: USER        vdW + Hbond + desolv Energy     =  -13.80 kcal/mol
DOCKED: USER        Electrostatic Energy            =   +0.00 kcal/mol
DOCKED: USER    (2) Final Total Internal Energy     =   -0.93 kcal/mol
DOCKED: USER    (3) Torsional Free Energy           =   +1.49 kcal/mol
DOCKED: USER    (4) Unbound System's Energy  [=(2)] =   -0.93 kcal/mol
DOCKED: USER    
DOCKED: USER    
DOCKED: USER    NEWDPF move ligand.pdbqt
DOCKED: USER    NEWDPF about 0.230000 -0.012000 -0.200000
DOCKED: USER    NEWDPF tran0 24.092308 -16.898970 -3.082900
DOCKED: USER    NEWDPF quaternion0 -0.468972 0.410588 -0.724686 0.293791
DOCKED: USER    NEWDPF axisangle0 -0.490623 0.429544 -0.758143 145.829843
DOCKED: USER    NEWDPF quat0 -0.490623 0.429544 -0.758143 145.829843
DOCKED: USER    NEWDPF dihe0 -148.75 -15.74 116.06 163.80 75.78 
DOCKED: USER  keepresnum = 1 
DOCKED: USER  
DOCKED: REMARK  Name = 
DOCKED: REMARK  5 active torsions:
DOCKED: REMARK  status: ('A' for Active; 'I' for Inactive)
DOCKED: REMARK    1  A    between atoms: S_2  and  N_3
DOCKED: REMARK    2  A    between atoms: S_2  and  C_10
DOCKED: REMARK    3  A    between atoms: N_3  and  C_4
DOCKED: REMARK    4  A    between atoms: C_12  and  C_13
DOCKED: REMARK    5  A    between atoms: C_14  and  C_15
DOCKED: REMARK                            x       y       z     vdW  Elec       q    Type
DOCKED: REMARK                         _______ _______ _______ _____ _____    ______ ____
DOCKED: USER                              x       y       z     vdW  Elec       q    Type
DOCKED: USER                           _______ _______ _______ _____ _____    ______ ____
DOCKED: ROOT
DOCKED: ATOM      1  C   UNL     1      26.061 -15.990  -2.849 -0.45 -0.00    +0.000 A 
DOCKED: ATOM      2  C   UNL     1      24.756 -16.280  -2.429 -0.25 -0.00    +0.000 A 
DOCKED: ATOM      3  C   UNL     1      24.531 -17.018  -1.248 -0.60 -0.00    +0.000 A 
DOCKED: ATOM      4  C   UNL     1      25.638 -17.469  -0.510 -0.57 -0.00    +0.000 A 
DOCKED: ATOM      5  C   UNL     1      26.939 -17.171  -0.925 -0.45 -0.00    +0.000 A 
DOCKED: ATOM      6  C   UNL     1      27.151 -16.430  -2.089 -0.33 -0.00    +0.000 A 
DOCKED: ENDROOT
DOCKED: BRANCH   1   8
DOCKED: ATOM      7  O   UNL     1      26.169 -15.981  -5.537 -1.10 +0.00    +0.000 OA
DOCKED: ATOM      8  S   UNL     1      26.328 -15.086  -4.339 -0.68 -0.00    +0.000 S 
DOCKED: ATOM      9  O   UNL     1      27.723 -14.531  -4.322 -0.31 -0.00    +0.000 OA
DOCKED: BRANCH   8  10
DOCKED: ATOM     10  N   UNL     1      25.193 -13.778  -4.455 -0.44 -0.00    +0.000 N 
DOCKED: ATOM     11  H   UNL     1      24.244 -14.000  -4.597 -0.44 -0.00    +0.000 HD
DOCKED: BRANCH  10  12
DOCKED: ATOM     12  C   UNL     1      25.555 -12.389  -4.357 -0.26 -0.00    +0.000 A 
DOCKED: ATOM     13  C   UNL     1      26.679 -11.962  -3.622 -0.17 -0.00    +0.000 A 
DOCKED: ATOM     14  C   UNL     1      27.005 -10.604  -3.557 -0.12 -0.00    +0.000 A 
DOCKED: ATOM     15  C   UNL     1      26.216  -9.659  -4.217 -0.16 -0.00    +0.000 A 
DOCKED: ATOM     16  C   UNL     1      25.096 -10.072  -4.942 -0.32 -0.00    +0.000 A 
DOCKED: ATOM     17  C   UNL     1      24.766 -11.428  -5.010 -0.35 -0.00    +0.000 A 
DOCKED: ENDBRANCH  10  12
DOCKED: ENDBRANCH   8  10
DOCKED: ENDBRANCH   1   8
DOCKED: BRANCH   3  18
DOCKED: ATOM     18  C   UNL     1      23.170 -17.373  -0.773 -0.74 -0.00    +0.000 C 
DOCKED: ATOM     19  C   UNL     1      22.556 -18.528  -1.070 -0.82 -0.00    +0.000 C 
DOCKED: BRANCH  19  20
DOCKED: ATOM     20  C   UNL     1      21.202 -18.875  -0.592 -0.86 -0.00    +0.000 C 
DOCKED: ATOM     21  N   UNL     1      20.905 -20.133   0.025 -0.65 -0.00    +0.000 N 
DOCKED: ATOM     22  O   UNL     1      19.628 -20.444   0.349 -0.98 -0.00    +0.000 OA
DOCKED: ATOM     23  O   UNL     1      20.285 -18.019  -0.715 -2.20 -0.00    +0.000 OA
DOCKED: ATOM     24  H   UNL     1      21.630 -20.771   0.214 -0.56 -0.00    +0.000 HD
DOCKED: ENDBRANCH  19  20
DOCKED: ENDBRANCH   3  18
DOCKED: TORSDOF 5
DOCKED: TER
DOCKED: ENDMDL
________________________________________________________________________________


	BEGINNING GENETIC ALGORITHM DOCKING 86 of 100
Run: 86 Seed: 1150570002 1350978461 [ Run 86 of 100 GA/GALS ]
Beginning LAMARCKIAN GENETIC ALGORITHM (LGA), with a maximum of 2500000 energy evaluations.

Final-Value: -14.420


	FINAL GENETIC ALGORITHM DOCKED STATE
	_______________________________________________


Detailed state:  trans 23.898 -17.095 -2.868 quatxyzw -0.431473 0.544759 -0.699901 0.164948 center 0.230 -0.012 -0.200 ntor 5 -153.4909 -66.0442 -169.3253 29.2654 168.5175
State:	 23.898 -17.095  -2.868  -0.437  0.552 -0.710 161.012   -153.49  -66.04 -169.33   29.27  168.52

DOCKED: MODEL       86
DOCKED: USER    Run = 86
DOCKED: USER    DPF = ligand_dock.biased.dpf
DOCKED: USER  
DOCKED: USER    Estimated Free Energy of Binding    =  -11.71 kcal/mol  [=(1)+(2)+(3)-(4)]
DOCKED: USER    Estimated Inhibition Constant, Ki   =    2.60 nM (nanomolar)  [Temperature = 298.15 K]
DOCKED: USER    
DOCKED: USER    (1) Final Intermolecular Energy     =  -13.20 kcal/mol
DOCKED: USER        vdW + Hbond + desolv Energy     =  -13.20 kcal/mol
DOCKED: USER        Electrostatic Energy            =   +0.00 kcal/mol
DOCKED: USER    (2) Final Total Internal Energy     =   -1.22 kcal/mol
DOCKED: USER    (3) Torsional Free Energy           =   +1.49 kcal/mol
DOCKED: USER    (4) Unbound System's Energy  [=(2)] =   -1.22 kcal/mol
DOCKED: USER    
DOCKED: USER    
DOCKED: USER    NEWDPF move ligand.pdbqt
DOCKED: USER    NEWDPF about 0.230000 -0.012000 -0.200000
DOCKED: USER    NEWDPF tran0 23.897945 -17.095469 -2.867622
DOCKED: USER    NEWDPF quaternion0 -0.431473 0.544759 -0.699901 0.164948
DOCKED: USER    NEWDPF axisangle0 -0.437465 0.552325 -0.709621 161.011605
DOCKED: USER    NEWDPF quat0 -0.437465 0.552325 -0.709621 161.011605
DOCKED: USER    NEWDPF dihe0 -153.49 -66.04 -169.33 29.27 168.52 
DOCKED: USER  keepresnum = 1 
DOCKED: USER  
DOCKED: REMARK  Name = 
DOCKED: REMARK  5 active torsions:
DOCKED: REMARK  status: ('A' for Active; 'I' for Inactive)
DOCKED: REMARK    1  A    between atoms: S_2  and  N_3
DOCKED: REMARK    2  A    between atoms: S_2  and  C_10
DOCKED: REMARK    3  A    between atoms: N_3  and  C_4
DOCKED: REMARK    4  A    between atoms: C_12  and  C_13
DOCKED: REMARK    5  A    between atoms: C_14  and  C_15
DOCKED: REMARK                            x       y       z     vdW  Elec       q    Type
DOCKED: REMARK                         _______ _______ _______ _____ _____    ______ ____
DOCKED: USER                              x       y       z     vdW  Elec       q    Type
DOCKED: USER                           _______ _______ _______ _____ _____    ______ ____
DOCKED: ROOT
DOCKED: ATOM      1  C   UNL     1      25.727 -16.340  -1.951 -0.49 -0.00    +0.000 A 
DOCKED: ATOM      2  C   UNL     1      24.379 -16.722  -1.930 -0.40 -0.00    +0.000 A 
DOCKED: ATOM      3  C   UNL     1      23.948 -17.785  -1.108 -0.68 -0.00    +0.000 A 
DOCKED: ATOM      4  C   UNL     1      24.897 -18.463  -0.325 -0.58 -0.00    +0.000 A 
DOCKED: ATOM      5  C   UNL     1      26.239 -18.075  -0.340 -0.57 -0.00    +0.000 A 
DOCKED: ATOM      6  C   UNL     1      26.654 -17.015  -1.147 -0.46 -0.00    +0.000 A 
DOCKED: ENDROOT
DOCKED: BRANCH   1   8
DOCKED: ATOM      7  O   UNL     1      25.074 -14.247  -3.507 -0.77 -0.00    +0.000 OA
DOCKED: ATOM      8  S   UNL     1      26.255 -15.025  -2.999 -0.56 -0.00    +0.000 S 
DOCKED: ATOM      9  O   UNL     1      26.998 -15.608  -4.166 -0.54 -0.00    +0.000 OA
DOCKED: BRANCH   8  10
DOCKED: ATOM     10  N   UNL     1      27.307 -13.952  -2.128 -0.19 -0.00    +0.000 N 
DOCKED: ATOM     11  H   UNL     1      27.935 -13.399  -2.647 +0.00 -0.00    +0.000 HD
DOCKED: BRANCH  10  12
DOCKED: ATOM     12  C   UNL     1      27.317 -13.823  -0.696 -0.20 -0.00    +0.000 A 
DOCKED: ATOM     13  C   UNL     1      26.337 -13.080  -0.008 -0.18 -0.00    +0.000 A 
DOCKED: ATOM     14  C   UNL     1      26.372 -12.986   1.387 -0.31 -0.00    +0.000 A 
DOCKED: ATOM     15  C   UNL     1      27.384 -13.623   2.108 -0.29 -0.00    +0.000 A 
DOCKED: ATOM     16  C   UNL     1      28.364 -14.356   1.436 -0.21 -0.00    +0.000 A 
DOCKED: ATOM     17  C   UNL     1      28.332 -14.454   0.042 -0.18 -0.00    +0.000 A 
DOCKED: ENDBRANCH  10  12
DOCKED: ENDBRANCH   8  10
DOCKED: ENDBRANCH   1   8
DOCKED: BRANCH   3  18
DOCKED: ATOM     18  C   UNL     1      22.537 -18.244  -1.068 -0.80 -0.00    +0.000 C 
DOCKED: ATOM     19  C   UNL     1      22.142 -19.386  -0.486 -0.71 -0.00    +0.000 C 
DOCKED: BRANCH  19  20
DOCKED: ATOM     20  C   UNL     1      20.735 -19.835  -0.449 -0.78 -0.00    +0.000 C 
DOCKED: ATOM     21  N   UNL     1      20.130 -20.366   0.737 -0.68 -0.00    +0.000 N 
DOCKED: ATOM     22  O   UNL     1      18.872 -20.862   0.691 -0.84 -0.00    +0.000 OA
DOCKED: ATOM     23  O   UNL     1      20.041 -19.723  -1.496 -2.26 -0.00    +0.000 OA
DOCKED: ATOM     24  H   UNL     1      20.631 -20.370   1.584 -0.54 -0.00    +0.000 HD
DOCKED: ENDBRANCH  19  20
DOCKED: ENDBRANCH   3  18
DOCKED: TORSDOF 5
DOCKED: TER
DOCKED: ENDMDL
________________________________________________________________________________


	BEGINNING GENETIC ALGORITHM DOCKING 87 of 100
Run: 87 Seed: 152427235 568088780 [ Run 87 of 100 GA/GALS ]
Beginning LAMARCKIAN GENETIC ALGORITHM (LGA), with a maximum of 2500000 energy evaluations.

Final-Value: -14.705


	FINAL GENETIC ALGORITHM DOCKED STATE
	_______________________________________________


Detailed state:  trans 23.671 -16.897 -2.655 quatxyzw 0.496824 -0.522360 0.657623 -0.218718 center 0.230 -0.012 -0.200 ntor 5 -83.1080 171.5781 130.8958 -104.2978 -88.0525
State:	 23.671 -16.897  -2.655   0.509 -0.535  0.674 -154.732    -83.11  171.58  130.90 -104.30  -88.05

DOCKED: MODEL       87
DOCKED: USER    Run = 87
DOCKED: USER    DPF = ligand_dock.biased.dpf
DOCKED: USER  
DOCKED: USER    Estimated Free Energy of Binding    =  -12.30 kcal/mol  [=(1)+(2)+(3)-(4)]
DOCKED: USER    Estimated Inhibition Constant, Ki   =  956.42 pM (picomolar)  [Temperature = 298.15 K]
DOCKED: USER    
DOCKED: USER    (1) Final Intermolecular Energy     =  -13.80 kcal/mol
DOCKED: USER        vdW + Hbond + desolv Energy     =  -13.80 kcal/mol
DOCKED: USER        Electrostatic Energy            =   +0.00 kcal/mol
DOCKED: USER    (2) Final Total Internal Energy     =   -0.91 kcal/mol
DOCKED: USER    (3) Torsional Free Energy           =   +1.49 kcal/mol
DOCKED: USER    (4) Unbound System's Energy  [=(2)] =   -0.91 kcal/mol
DOCKED: USER    
DOCKED: USER    
DOCKED: USER    NEWDPF move ligand.pdbqt
DOCKED: USER    NEWDPF about 0.230000 -0.012000 -0.200000
DOCKED: USER    NEWDPF tran0 23.670759 -16.896638 -2.654610
DOCKED: USER    NEWDPF quaternion0 0.496824 -0.522360 0.657623 -0.218718
DOCKED: USER    NEWDPF axisangle0 0.509152 -0.535321 0.673941 -154.732452
DOCKED: USER    NEWDPF quat0 0.509152 -0.535321 0.673941 -154.732452
DOCKED: USER    NEWDPF dihe0 -83.11 171.58 130.90 -104.30 -88.05 
DOCKED: USER  keepresnum = 1 
DOCKED: USER  
DOCKED: REMARK  Name = 
DOCKED: REMARK  5 active torsions:
DOCKED: REMARK  status: ('A' for Active; 'I' for Inactive)
DOCKED: REMARK    1  A    between atoms: S_2  and  N_3
DOCKED: REMARK    2  A    between atoms: S_2  and  C_10
DOCKED: REMARK    3  A    between atoms: N_3  and  C_4
DOCKED: REMARK    4  A    between atoms: C_12  and  C_13
DOCKED: REMARK    5  A    between atoms: C_14  and  C_15
DOCKED: REMARK                            x       y       z     vdW  Elec       q    Type
DOCKED: REMARK                         _______ _______ _______ _____ _____    ______ ____
DOCKED: USER                              x       y       z     vdW  Elec       q    Type
DOCKED: USER                           _______ _______ _______ _____ _____    ______ ____
DOCKED: ROOT
DOCKED: ATOM      1  C   UNL     1      25.641 -16.131  -2.116 -0.49 -0.00    +0.000 A 
DOCKED: ATOM      2  C   UNL     1      24.323 -16.513  -1.831 -0.38 -0.00    +0.000 A 
DOCKED: ATOM      3  C   UNL     1      24.061 -17.568  -0.931 -0.66 -0.00    +0.000 A 
DOCKED: ATOM      4  C   UNL     1      25.145 -18.238  -0.339 -0.63 -0.00    +0.000 A 
DOCKED: ATOM      5  C   UNL     1      26.458 -17.850  -0.617 -0.53 -0.00    +0.000 A 
DOCKED: ATOM      6  C   UNL     1      26.707 -16.797  -1.499 -0.42 -0.00    +0.000 A 
DOCKED: ENDROOT
DOCKED: BRANCH   1   8
DOCKED: ATOM      7  O   UNL     1      26.648 -13.681  -2.578 -0.27 -0.00    +0.000 OA
DOCKED: ATOM      8  S   UNL     1      25.953 -14.827  -3.259 -0.61 -0.00    +0.000 S 
DOCKED: ATOM      9  O   UNL     1      24.642 -14.347  -3.812 -0.97 -0.00    +0.000 OA
DOCKED: BRANCH   8  10
DOCKED: ATOM     10  N   UNL     1      26.949 -15.399  -4.561 -0.47 -0.00    +0.000 N 
DOCKED: ATOM     11  H   UNL     1      26.950 -16.364  -4.752 -0.01 +0.00    +0.000 HD
DOCKED: BRANCH  10  12
DOCKED: ATOM     12  C   UNL     1      27.771 -14.546  -5.378 -0.36 -0.00    +0.000 A 
DOCKED: ATOM     13  C   UNL     1      28.857 -15.048  -6.122 -0.35 -0.00    +0.000 A 
DOCKED: ATOM     14  C   UNL     1      29.627 -14.190  -6.913 -0.27 -0.00    +0.000 A 
DOCKED: ATOM     15  C   UNL     1      29.329 -12.827  -6.968 -0.19 -0.00    +0.000 A 
DOCKED: ATOM     16  C   UNL     1      28.259 -12.319  -6.229 -0.17 -0.00    +0.000 A 
DOCKED: ATOM     17  C   UNL     1      27.485 -13.172  -5.437 -0.23 -0.00    +0.000 A 
DOCKED: ENDBRANCH  10  12
DOCKED: ENDBRANCH   8  10
DOCKED: ENDBRANCH   1   8
DOCKED: BRANCH   3  18
DOCKED: ATOM     18  C   UNL     1      22.686 -18.027  -0.615 -0.82 -0.00    +0.000 C 
DOCKED: ATOM     19  C   UNL     1      22.173 -19.190  -1.042 -0.77 -0.00    +0.000 C 
DOCKED: BRANCH  19  20
DOCKED: ATOM     20  C   UNL     1      20.802 -19.641  -0.722 -0.84 -0.00    +0.000 C 
DOCKED: ATOM     21  N   UNL     1      20.388 -19.948   0.616 -0.69 -0.00    +0.000 N 
DOCKED: ATOM     22  O   UNL     1      19.156 -20.458   0.843 -0.81 -0.00    +0.000 OA
DOCKED: ATOM     23  O   UNL     1      19.966 -19.734  -1.660 -2.34 -0.00    +0.000 OA
DOCKED: ATOM     24  H   UNL     1      21.001 -19.788   1.369 -0.50 -0.00    +0.000 HD
DOCKED: ENDBRANCH  19  20
DOCKED: ENDBRANCH   3  18
DOCKED: TORSDOF 5
DOCKED: TER
DOCKED: ENDMDL
________________________________________________________________________________


	BEGINNING GENETIC ALGORITHM DOCKING 88 of 100
Run: 88 Seed: 128528658 860355049 [ Run 88 of 100 GA/GALS ]
Beginning LAMARCKIAN GENETIC ALGORITHM (LGA), with a maximum of 2500000 energy evaluations.

Final-Value: -14.547


	FINAL GENETIC ALGORITHM DOCKED STATE
	_______________________________________________


Detailed state:  trans 24.191 -16.706 -3.006 quatxyzw -0.442529 0.501267 -0.694392 0.265931 center 0.230 -0.012 -0.200 ntor 5 -174.2784 180.0000 153.1204 -133.2769 72.7271
State:	 24.191 -16.706  -3.006  -0.459  0.520 -0.720 149.155   -174.28  180.00  153.12 -133.28   72.73

DOCKED: MODEL       88
DOCKED: USER    Run = 88
DOCKED: USER    DPF = ligand_dock.biased.dpf
DOCKED: USER  
DOCKED: USER    Estimated Free Energy of Binding    =  -12.16 kcal/mol  [=(1)+(2)+(3)-(4)]
DOCKED: USER    Estimated Inhibition Constant, Ki   =    1.22 nM (nanomolar)  [Temperature = 298.15 K]
DOCKED: USER    
DOCKED: USER    (1) Final Intermolecular Energy     =  -13.65 kcal/mol
DOCKED: USER        vdW + Hbond + desolv Energy     =  -13.65 kcal/mol
DOCKED: USER        Electrostatic Energy            =   +0.00 kcal/mol
DOCKED: USER    (2) Final Total Internal Energy     =   -0.90 kcal/mol
DOCKED: USER    (3) Torsional Free Energy           =   +1.49 kcal/mol
DOCKED: USER    (4) Unbound System's Energy  [=(2)] =   -0.90 kcal/mol
DOCKED: USER    
DOCKED: USER    
DOCKED: USER    NEWDPF move ligand.pdbqt
DOCKED: USER    NEWDPF about 0.230000 -0.012000 -0.200000
DOCKED: USER    NEWDPF tran0 24.190570 -16.706019 -3.006443
DOCKED: USER    NEWDPF quaternion0 -0.442529 0.501267 -0.694392 0.265931
DOCKED: USER    NEWDPF axisangle0 -0.459059 0.519991 -0.720329 149.155441
DOCKED: USER    NEWDPF quat0 -0.459059 0.519991 -0.720329 149.155441
DOCKED: USER    NEWDPF dihe0 -174.28 180.00 153.12 -133.28 72.73 
DOCKED: USER  keepresnum = 1 
DOCKED: USER  
DOCKED: REMARK  Name = 
DOCKED: REMARK  5 active torsions:
DOCKED: REMARK  status: ('A' for Active; 'I' for Inactive)
DOCKED: REMARK    1  A    between atoms: S_2  and  N_3
DOCKED: REMARK    2  A    between atoms: S_2  and  C_10
DOCKED: REMARK    3  A    between atoms: N_3  and  C_4
DOCKED: REMARK    4  A    between atoms: C_12  and  C_13
DOCKED: REMARK    5  A    between atoms: C_14  and  C_15
DOCKED: REMARK                            x       y       z     vdW  Elec       q    Type
DOCKED: REMARK                         _______ _______ _______ _____ _____    ______ ____
DOCKED: USER                              x       y       z     vdW  Elec       q    Type
DOCKED: USER                           _______ _______ _______ _____ _____    ______ ____
DOCKED: ROOT
DOCKED: ATOM      1  C   UNL     1      26.193 -16.030  -2.468 -0.43 -0.00    +0.000 A 
DOCKED: ATOM      2  C   UNL     1      24.836 -16.265  -2.207 -0.44 -0.00    +0.000 A 
DOCKED: ATOM      3  C   UNL     1      24.447 -17.161  -1.190 -0.62 -0.00    +0.000 A 
DOCKED: ATOM      4  C   UNL     1      25.443 -17.825  -0.455 -0.61 -0.00    +0.000 A 
DOCKED: ATOM      5  C   UNL     1      26.795 -17.583  -0.709 -0.49 -0.00    +0.000 A 
DOCKED: ATOM      6  C   UNL     1      27.171 -16.685  -1.710 -0.37 -0.00    +0.000 A 
DOCKED: ENDROOT
DOCKED: BRANCH   1   8
DOCKED: ATOM      7  O   UNL     1      26.621 -15.616  -5.091 -1.10 +0.00    +0.000 OA
DOCKED: ATOM      8  S   UNL     1      26.665 -14.924  -3.757 -0.56 -0.00    +0.000 S 
DOCKED: ATOM      9  O   UNL     1      28.066 -14.450  -3.496 -0.20 -0.00    +0.000 OA
DOCKED: BRANCH   8  10
DOCKED: ATOM     10  N   UNL     1      25.595 -13.557  -3.793 -0.42 -0.00    +0.000 N 
DOCKED: ATOM     11  H   UNL     1      24.816 -13.564  -3.191 -0.03 -0.00    +0.000 HD
DOCKED: BRANCH  10  12
DOCKED: ATOM     12  C   UNL     1      25.779 -12.416  -4.649 -0.27 -0.00    +0.000 A 
DOCKED: ATOM     13  C   UNL     1      24.770 -11.448  -4.829 -0.36 -0.00    +0.000 A 
DOCKED: ATOM     14  C   UNL     1      24.990 -10.347  -5.662 -0.34 -0.00    +0.000 A 
DOCKED: ATOM     15  C   UNL     1      26.209 -10.199  -6.325 -0.17 -0.00    +0.000 A 
DOCKED: ATOM     16  C   UNL     1      27.213 -11.156  -6.159 -0.15 -0.00    +0.000 A 
DOCKED: ATOM     17  C   UNL     1      26.999 -12.259  -5.328 -0.20 -0.00    +0.000 A 
DOCKED: ENDBRANCH  10  12
DOCKED: ENDBRANCH   8  10
DOCKED: ENDBRANCH   1   8
DOCKED: BRANCH   3  18
DOCKED: ATOM     18  C   UNL     1      23.025 -17.463  -0.891 -0.74 -0.00    +0.000 C 
DOCKED: ATOM     19  C   UNL     1      22.537 -18.706  -0.774 -0.83 -0.00    +0.000 C 
DOCKED: BRANCH  19  20
DOCKED: ATOM     20  C   UNL     1      21.120 -18.999  -0.475 -0.87 -0.00    +0.000 C 
DOCKED: ATOM     21  N   UNL     1      20.700 -20.233   0.122 -0.65 -0.00    +0.000 N 
DOCKED: ATOM     22  O   UNL     1      19.383 -20.496   0.279 -1.01 -0.00    +0.000 OA
DOCKED: ATOM     23  O   UNL     1      20.257 -18.118  -0.735 -2.18 -0.00    +0.000 OA
DOCKED: ATOM     24  H   UNL     1      21.372 -20.889   0.418 -0.61 -0.00    +0.000 HD
DOCKED: ENDBRANCH  19  20
DOCKED: ENDBRANCH   3  18
DOCKED: TORSDOF 5
DOCKED: TER
DOCKED: ENDMDL
________________________________________________________________________________


	BEGINNING GENETIC ALGORITHM DOCKING 89 of 100
Run: 89 Seed: 552025008 2091422286 [ Run 89 of 100 GA/GALS ]
Beginning LAMARCKIAN GENETIC ALGORITHM (LGA), with a maximum of 2500000 energy evaluations.

Final-Value: -14.447


	FINAL GENETIC ALGORITHM DOCKED STATE
	_______________________________________________


Detailed state:  trans 23.843 -17.052 -2.763 quatxyzw -0.437541 0.565988 -0.674437 0.182618 center 0.230 -0.012 -0.200 ntor 5 -136.2567 -122.8415 176.2002 86.6717 130.6368
State:	 23.843 -17.052  -2.763  -0.445  0.576 -0.686 158.955   -136.26 -122.84  176.20   86.67  130.64

DOCKED: MODEL       89
DOCKED: USER    Run = 89
DOCKED: USER    DPF = ligand_dock.biased.dpf
DOCKED: USER  
DOCKED: USER    Estimated Free Energy of Binding    =  -11.77 kcal/mol  [=(1)+(2)+(3)-(4)]
DOCKED: USER    Estimated Inhibition Constant, Ki   =    2.34 nM (nanomolar)  [Temperature = 298.15 K]
DOCKED: USER    
DOCKED: USER    (1) Final Intermolecular Energy     =  -13.27 kcal/mol
DOCKED: USER        vdW + Hbond + desolv Energy     =  -13.27 kcal/mol
DOCKED: USER        Electrostatic Energy            =   +0.00 kcal/mol
DOCKED: USER    (2) Final Total Internal Energy     =   -1.18 kcal/mol
DOCKED: USER    (3) Torsional Free Energy           =   +1.49 kcal/mol
DOCKED: USER    (4) Unbound System's Energy  [=(2)] =   -1.18 kcal/mol
DOCKED: USER    
DOCKED: USER    
DOCKED: USER    NEWDPF move ligand.pdbqt
DOCKED: USER    NEWDPF about 0.230000 -0.012000 -0.200000
DOCKED: USER    NEWDPF tran0 23.842691 -17.051549 -2.762554
DOCKED: USER    NEWDPF quaternion0 -0.437541 0.565988 -0.674437 0.182618
DOCKED: USER    NEWDPF axisangle0 -0.445025 0.575669 -0.685973 158.955425
DOCKED: USER    NEWDPF quat0 -0.445025 0.575669 -0.685973 158.955425
DOCKED: USER    NEWDPF dihe0 -136.26 -122.84 176.20 86.67 130.64 
DOCKED: USER  keepresnum = 1 
DOCKED: USER  
DOCKED: REMARK  Name = 
DOCKED: REMARK  5 active torsions:
DOCKED: REMARK  status: ('A' for Active; 'I' for Inactive)
DOCKED: REMARK    1  A    between atoms: S_2  and  N_3
DOCKED: REMARK    2  A    between atoms: S_2  and  C_10
DOCKED: REMARK    3  A    between atoms: N_3  and  C_4
DOCKED: REMARK    4  A    between atoms: C_12  and  C_13
DOCKED: REMARK    5  A    between atoms: C_14  and  C_15
DOCKED: REMARK                            x       y       z     vdW  Elec       q    Type
DOCKED: REMARK                         _______ _______ _______ _____ _____    ______ ____
DOCKED: USER                              x       y       z     vdW  Elec       q    Type
DOCKED: USER                           _______ _______ _______ _____ _____    ______ ____
DOCKED: ROOT
DOCKED: ATOM      1  C   UNL     1      25.742 -16.419  -1.895 -0.49 -0.00    +0.000 A 
DOCKED: ATOM      2  C   UNL     1      24.379 -16.742  -1.831 -0.50 -0.00    +0.000 A 
DOCKED: ATOM      3  C   UNL     1      23.935 -17.821  -1.038 -0.69 -0.00    +0.000 A 
DOCKED: ATOM      4  C   UNL     1      24.883 -18.575  -0.327 -0.55 -0.00    +0.000 A 
DOCKED: ATOM      5  C   UNL     1      26.240 -18.246  -0.384 -0.56 -0.00    +0.000 A 
DOCKED: ATOM      6  C   UNL     1      26.669 -17.169  -1.162 -0.46 -0.00    +0.000 A 
DOCKED: ENDROOT
DOCKED: BRANCH   1   8
DOCKED: ATOM      7  O   UNL     1      25.297 -14.816  -4.008 -0.87 -0.00    +0.000 OA
DOCKED: ATOM      8  S   UNL     1      26.284 -15.083  -2.907 -0.55 -0.00    +0.000 S 
DOCKED: ATOM      9  O   UNL     1      27.610 -15.446  -3.514 -0.33 -0.00    +0.000 OA
DOCKED: BRANCH   8  10
DOCKED: ATOM     10  N   UNL     1      26.468 -13.645  -1.951 -0.20 -0.00    +0.000 N 
DOCKED: ATOM     11  H   UNL     1      26.260 -12.780  -2.373 -0.01 -0.00    +0.000 HD
DOCKED: BRANCH  10  12
DOCKED: ATOM     12  C   UNL     1      26.904 -13.642  -0.580 -0.22 -0.00    +0.000 A 
DOCKED: ATOM     13  C   UNL     1      26.259 -12.868   0.406 -0.26 -0.00    +0.000 A 
DOCKED: ATOM     14  C   UNL     1      26.705 -12.899   1.731 -0.31 -0.00    +0.000 A 
DOCKED: ATOM     15  C   UNL     1      27.798 -13.692   2.086 -0.27 -0.00    +0.000 A 
DOCKED: ATOM     16  C   UNL     1      28.449 -14.457   1.115 -0.20 -0.00    +0.000 A 
DOCKED: ATOM     17  C   UNL     1      28.006 -14.430  -0.211 -0.19 -0.00    +0.000 A 
DOCKED: ENDBRANCH  10  12
DOCKED: ENDBRANCH   8  10
DOCKED: ENDBRANCH   1   8
DOCKED: BRANCH   3  18
DOCKED: ATOM     18  C   UNL     1      22.507 -18.219  -0.957 -0.81 -0.00    +0.000 C 
DOCKED: ATOM     19  C   UNL     1      22.096 -19.464  -0.672 -0.67 -0.00    +0.000 C 
DOCKED: BRANCH  19  20
DOCKED: ATOM     20  C   UNL     1      20.673 -19.852  -0.591 -0.77 -0.00    +0.000 C 
DOCKED: ATOM     21  N   UNL     1      20.082 -20.354   0.614 -0.70 -0.00    +0.000 N 
DOCKED: ATOM     22  O   UNL     1      18.803 -20.795   0.609 -0.85 -0.00    +0.000 OA
DOCKED: ATOM     23  O   UNL     1      19.953 -19.712  -1.616 -2.30 -0.00    +0.000 OA
DOCKED: ATOM     24  H   UNL     1      20.607 -20.378   1.446 -0.49 -0.00    +0.000 HD
DOCKED: ENDBRANCH  19  20
DOCKED: ENDBRANCH   3  18
DOCKED: TORSDOF 5
DOCKED: TER
DOCKED: ENDMDL
________________________________________________________________________________


	BEGINNING GENETIC ALGORITHM DOCKING 90 of 100
Run: 90 Seed: 1563381206 74434024 [ Run 90 of 100 GA/GALS ]
Beginning LAMARCKIAN GENETIC ALGORITHM (LGA), with a maximum of 2500000 energy evaluations.

Final-Value: -14.363


	FINAL GENETIC ALGORITHM DOCKED STATE
	_______________________________________________


Detailed state:  trans 24.212 -16.748 -3.174 quatxyzw -0.417743 0.438308 -0.754596 0.252907 center 0.230 -0.012 -0.200 ntor 5 172.1680 -179.8983 155.8768 169.9408 65.7330
State:	 24.212 -16.748  -3.174  -0.432  0.453 -0.780 150.701    172.17 -179.90  155.88  169.94   65.73

DOCKED: MODEL       90
DOCKED: USER    Run = 90
DOCKED: USER    DPF = ligand_dock.biased.dpf
DOCKED: USER  
DOCKED: USER    Estimated Free Energy of Binding    =  -12.12 kcal/mol  [=(1)+(2)+(3)-(4)]
DOCKED: USER    Estimated Inhibition Constant, Ki   =    1.31 nM (nanomolar)  [Temperature = 298.15 K]
DOCKED: USER    
DOCKED: USER    (1) Final Intermolecular Energy     =  -13.61 kcal/mol
DOCKED: USER        vdW + Hbond + desolv Energy     =  -13.61 kcal/mol
DOCKED: USER        Electrostatic Energy            =   +0.00 kcal/mol
DOCKED: USER    (2) Final Total Internal Energy     =   -0.75 kcal/mol
DOCKED: USER    (3) Torsional Free Energy           =   +1.49 kcal/mol
DOCKED: USER    (4) Unbound System's Energy  [=(2)] =   -0.75 kcal/mol
DOCKED: USER    
DOCKED: USER    
DOCKED: USER    NEWDPF move ligand.pdbqt
DOCKED: USER    NEWDPF about 0.230000 -0.012000 -0.200000
DOCKED: USER    NEWDPF tran0 24.212376 -16.747707 -3.173708
DOCKED: USER    NEWDPF quaternion0 -0.417743 0.438308 -0.754596 0.252907
DOCKED: USER    NEWDPF axisangle0 -0.431780 0.453036 -0.779952 150.700747
DOCKED: USER    NEWDPF quat0 -0.431780 0.453036 -0.779952 150.700747
DOCKED: USER    NEWDPF dihe0 172.17 -179.90 155.88 169.94 65.73 
DOCKED: USER  keepresnum = 1 
DOCKED: USER  
DOCKED: REMARK  Name = 
DOCKED: REMARK  5 active torsions:
DOCKED: REMARK  status: ('A' for Active; 'I' for Inactive)
DOCKED: REMARK    1  A    between atoms: S_2  and  N_3
DOCKED: REMARK    2  A    between atoms: S_2  and  C_10
DOCKED: REMARK    3  A    between atoms: N_3  and  C_4
DOCKED: REMARK    4  A    between atoms: C_12  and  C_13
DOCKED: REMARK    5  A    between atoms: C_14  and  C_15
DOCKED: REMARK                            x       y       z     vdW  Elec       q    Type
DOCKED: REMARK                         _______ _______ _______ _____ _____    ______ ____
DOCKED: USER                              x       y       z     vdW  Elec       q    Type
DOCKED: USER                           _______ _______ _______ _____ _____    ______ ____
DOCKED: ROOT
DOCKED: ATOM      1  C   UNL     1      26.114 -15.831  -2.623 -0.44 -0.00    +0.000 A 
DOCKED: ATOM      2  C   UNL     1      24.762 -16.141  -2.413 -0.26 -0.00    +0.000 A 
DOCKED: ATOM      3  C   UNL     1      24.369 -16.908  -1.297 -0.58 -0.00    +0.000 A 
DOCKED: ATOM      4  C   UNL     1      25.356 -17.370  -0.410 -0.54 -0.00    +0.000 A 
DOCKED: ATOM      5  C   UNL     1      26.701 -17.053  -0.616 -0.47 -0.00    +0.000 A 
DOCKED: ATOM      6  C   UNL     1      27.080 -16.282  -1.716 -0.35 -0.00    +0.000 A 
DOCKED: ENDROOT
DOCKED: BRANCH   1   8
DOCKED: ATOM      7  O   UNL     1      26.864 -15.791  -5.205 -1.02 +0.00    +0.000 OA
DOCKED: ATOM      8  S   UNL     1      26.593 -14.890  -4.033 -0.60 -0.00    +0.000 S 
DOCKED: ATOM      9  O   UNL     1      27.844 -14.127  -3.701 -0.21 -0.00    +0.000 OA
DOCKED: BRANCH   8  10
DOCKED: ATOM     10  N   UNL     1      25.337 -13.769  -4.460 -0.44 -0.00    +0.000 N 
DOCKED: ATOM     11  H   UNL     1      24.464 -14.136  -4.730 -0.39 -0.00    +0.000 HD
DOCKED: BRANCH  10  12
DOCKED: ATOM     12  C   UNL     1      25.495 -12.340  -4.442 -0.30 -0.00    +0.000 A 
DOCKED: ATOM     13  C   UNL     1      24.544 -11.477  -5.023 -0.31 -0.00    +0.000 A 
DOCKED: ATOM     14  C   UNL     1      24.727 -10.092  -4.977 -0.35 -0.00    +0.000 A 
DOCKED: ATOM     15  C   UNL     1      25.857  -9.552  -4.359 -0.20 -0.00    +0.000 A 
DOCKED: ATOM     16  C   UNL     1      26.809 -10.399  -3.787 -0.13 -0.00    +0.000 A 
DOCKED: ATOM     17  C   UNL     1      26.631 -11.784  -3.830 -0.18 -0.00    +0.000 A 
DOCKED: ENDBRANCH  10  12
DOCKED: ENDBRANCH   8  10
DOCKED: ENDBRANCH   1   8
DOCKED: BRANCH   3  18
DOCKED: ATOM     18  C   UNL     1      22.956 -17.284  -1.043 -0.65 -0.00    +0.000 C 
DOCKED: ATOM     19  C   UNL     1      22.562 -18.524  -0.717 -0.84 -0.00    +0.000 C 
DOCKED: BRANCH  19  20
DOCKED: ATOM     20  C   UNL     1      21.153 -18.890  -0.464 -0.84 -0.00    +0.000 C 
DOCKED: ATOM     21  N   UNL     1      20.777 -20.160   0.084 -0.66 -0.00    +0.000 N 
DOCKED: ATOM     22  O   UNL     1      19.469 -20.487   0.198 -1.06 -0.00    +0.000 OA
DOCKED: ATOM     23  O   UNL     1      20.257 -18.042  -0.720 -2.19 -0.00    +0.000 OA
DOCKED: ATOM     24  H   UNL     1      21.471 -20.793   0.378 -0.59 -0.00    +0.000 HD
DOCKED: ENDBRANCH  19  20
DOCKED: ENDBRANCH   3  18
DOCKED: TORSDOF 5
DOCKED: TER
DOCKED: ENDMDL
________________________________________________________________________________


	BEGINNING GENETIC ALGORITHM DOCKING 91 of 100
Run: 91 Seed: 1483295492 1804981085 [ Run 91 of 100 GA/GALS ]
Beginning LAMARCKIAN GENETIC ALGORITHM (LGA), with a maximum of 2500000 energy evaluations.

Final-Value: -14.618


	FINAL GENETIC ALGORITHM DOCKED STATE
	_______________________________________________


Detailed state:  trans 24.445 -17.385 -2.838 quatxyzw 0.524588 -0.453897 0.695595 -0.186902 center 0.230 -0.012 -0.200 ntor 5 -29.2751 29.8684 6.7445 10.9368 161.1683
State:	 24.445 -17.385  -2.838   0.534 -0.462  0.708 -158.456    -29.28   29.87    6.74   10.94  161.17

DOCKED: MODEL       91
DOCKED: USER    Run = 91
DOCKED: USER    DPF = ligand_dock.biased.dpf
DOCKED: USER  
DOCKED: USER    Estimated Free Energy of Binding    =  -12.04 kcal/mol  [=(1)+(2)+(3)-(4)]
DOCKED: USER    Estimated Inhibition Constant, Ki   =    1.50 nM (nanomolar)  [Temperature = 298.15 K]
DOCKED: USER    
DOCKED: USER    (1) Final Intermolecular Energy     =  -13.53 kcal/mol
DOCKED: USER        vdW + Hbond + desolv Energy     =  -13.53 kcal/mol
DOCKED: USER        Electrostatic Energy            =   +0.00 kcal/mol
DOCKED: USER    (2) Final Total Internal Energy     =   -1.09 kcal/mol
DOCKED: USER    (3) Torsional Free Energy           =   +1.49 kcal/mol
DOCKED: USER    (4) Unbound System's Energy  [=(2)] =   -1.09 kcal/mol
DOCKED: USER    
DOCKED: USER    
DOCKED: USER    NEWDPF move ligand.pdbqt
DOCKED: USER    NEWDPF about 0.230000 -0.012000 -0.200000
DOCKED: USER    NEWDPF tran0 24.444707 -17.384647 -2.838091
DOCKED: USER    NEWDPF quaternion0 0.524588 -0.453897 0.695595 -0.186902
DOCKED: USER    NEWDPF axisangle0 0.533998 -0.462039 0.708072 -158.455929
DOCKED: USER    NEWDPF quat0 0.533998 -0.462039 0.708072 -158.455929
DOCKED: USER    NEWDPF dihe0 -29.28 29.87 6.74 10.94 161.17 
DOCKED: USER  keepresnum = 1 
DOCKED: USER  
DOCKED: REMARK  Name = 
DOCKED: REMARK  5 active torsions:
DOCKED: REMARK  status: ('A' for Active; 'I' for Inactive)
DOCKED: REMARK    1  A    between atoms: S_2  and  N_3
DOCKED: REMARK    2  A    between atoms: S_2  and  C_10
DOCKED: REMARK    3  A    between atoms: N_3  and  C_4
DOCKED: REMARK    4  A    between atoms: C_12  and  C_13
DOCKED: REMARK    5  A    between atoms: C_14  and  C_15
DOCKED: REMARK                            x       y       z     vdW  Elec       q    Type
DOCKED: REMARK                         _______ _______ _______ _____ _____    ______ ____
DOCKED: USER                              x       y       z     vdW  Elec       q    Type
DOCKED: USER                           _______ _______ _______ _____ _____    ______ ____
DOCKED: ROOT
DOCKED: ATOM      1  C   UNL     1      26.267 -16.280  -2.371 -0.42 -0.00    +0.000 A 
DOCKED: ATOM      2  C   UNL     1      25.020 -16.836  -2.052 -0.53 -0.00    +0.000 A 
DOCKED: ATOM      3  C   UNL     1      24.915 -17.838  -1.064 -0.64 -0.00    +0.000 A 
DOCKED: ATOM      4  C   UNL     1      26.083 -18.278  -0.419 -0.57 -0.00    +0.000 A 
DOCKED: ATOM      5  C   UNL     1      27.323 -17.717  -0.732 -0.41 -0.00    +0.000 A 
DOCKED: ATOM      6  C   UNL     1      27.416 -16.717  -1.702 -0.35 -0.00    +0.000 A 
DOCKED: ENDROOT
DOCKED: BRANCH   1   8
DOCKED: ATOM      7  O   UNL     1      25.019 -14.631  -4.091 -0.98 -0.00    +0.000 OA
DOCKED: ATOM      8  S   UNL     1      26.386 -15.045  -3.623 -0.61 -0.00    +0.000 S 
DOCKED: ATOM      9  O   UNL     1      27.153 -15.609  -4.785 -0.84 -0.00    +0.000 OA
DOCKED: BRANCH   8  10
DOCKED: ATOM     10  N   UNL     1      27.220 -13.651  -3.010 -0.20 -0.00    +0.000 N 
DOCKED: ATOM     11  H   UNL     1      27.877 -13.210  -3.596 +0.00 -0.00    +0.000 HD
DOCKED: BRANCH  10  12
DOCKED: ATOM     12  C   UNL     1      27.009 -13.101  -1.697 -0.15 -0.00    +0.000 A 
DOCKED: ATOM     13  C   UNL     1      26.394 -13.842  -0.668 -0.22 -0.00    +0.000 A 
DOCKED: ATOM     14  C   UNL     1      26.216 -13.278   0.598 -0.28 -0.00    +0.000 A 
DOCKED: ATOM     15  C   UNL     1      26.641 -11.972   0.852 -0.27 +0.00    +0.000 A 
DOCKED: ATOM     16  C   UNL     1      27.245 -11.227  -0.163 -0.13 -0.00    +0.000 A 
DOCKED: ATOM     17  C   UNL     1      27.426 -11.787  -1.431 -0.10 -0.00    +0.000 A 
DOCKED: ENDBRANCH  10  12
DOCKED: ENDBRANCH   8  10
DOCKED: ENDBRANCH   1   8
DOCKED: BRANCH   3  18
DOCKED: ATOM     18  C   UNL     1      23.623 -18.476  -0.707 -0.82 -0.00    +0.000 C 
DOCKED: ATOM     19  C   UNL     1      22.426 -17.970  -1.038 -0.74 -0.00    +0.000 C 
DOCKED: BRANCH  19  20
DOCKED: ATOM     20  C   UNL     1      21.145 -18.612  -0.680 -0.85 -0.00    +0.000 C 
DOCKED: ATOM     21  N   UNL     1      21.073 -19.945  -0.158 -0.66 -0.00    +0.000 N 
DOCKED: ATOM     22  O   UNL     1      19.870 -20.525   0.054 -1.17 -0.00    +0.000 OA
DOCKED: ATOM     23  O   UNL     1      20.082 -17.949  -0.820 -2.03 -0.00    +0.000 OA
DOCKED: ATOM     24  H   UNL     1      21.901 -20.437   0.046 -0.58 -0.00    +0.000 HD
DOCKED: ENDBRANCH  19  20
DOCKED: ENDBRANCH   3  18
DOCKED: TORSDOF 5
DOCKED: TER
DOCKED: ENDMDL
________________________________________________________________________________


	BEGINNING GENETIC ALGORITHM DOCKING 92 of 100
Run: 92 Seed: 1873167151 538568142 [ Run 92 of 100 GA/GALS ]
Beginning LAMARCKIAN GENETIC ALGORITHM (LGA), with a maximum of 2500000 energy evaluations.

Final-Value: -14.902


	FINAL GENETIC ALGORITHM DOCKED STATE
	_______________________________________________


Detailed state:  trans 23.804 -17.444 -2.607 quatxyzw 0.505724 -0.452146 0.705078 -0.206571 center 0.230 -0.012 -0.200 ntor 5 -39.6739 -125.4135 78.0925 -4.6429 176.6115
State:	 23.804 -17.444  -2.607   0.517 -0.462  0.721 -156.157    -39.67 -125.41   78.09   -4.64  176.61

DOCKED: MODEL       92
DOCKED: USER    Run = 92
DOCKED: USER    DPF = ligand_dock.biased.dpf
DOCKED: USER  
DOCKED: USER    Estimated Free Energy of Binding    =  -12.33 kcal/mol  [=(1)+(2)+(3)-(4)]
DOCKED: USER    Estimated Inhibition Constant, Ki   =  920.45 pM (picomolar)  [Temperature = 298.15 K]
DOCKED: USER    
DOCKED: USER    (1) Final Intermolecular Energy     =  -13.82 kcal/mol
DOCKED: USER        vdW + Hbond + desolv Energy     =  -13.82 kcal/mol
DOCKED: USER        Electrostatic Energy            =   +0.00 kcal/mol
DOCKED: USER    (2) Final Total Internal Energy     =   -1.08 kcal/mol
DOCKED: USER    (3) Torsional Free Energy           =   +1.49 kcal/mol
DOCKED: USER    (4) Unbound System's Energy  [=(2)] =   -1.08 kcal/mol
DOCKED: USER    
DOCKED: USER    
DOCKED: USER    NEWDPF move ligand.pdbqt
DOCKED: USER    NEWDPF about 0.230000 -0.012000 -0.200000
DOCKED: USER    NEWDPF tran0 23.804250 -17.443660 -2.607460
DOCKED: USER    NEWDPF quaternion0 0.505724 -0.452146 0.705078 -0.206571
DOCKED: USER    NEWDPF axisangle0 0.516872 -0.462113 0.720621 -156.156988
DOCKED: USER    NEWDPF quat0 0.516872 -0.462113 0.720621 -156.156988
DOCKED: USER    NEWDPF dihe0 -39.67 -125.41 78.09 -4.64 176.61 
DOCKED: USER  keepresnum = 1 
DOCKED: USER  
DOCKED: REMARK  Name = 
DOCKED: REMARK  5 active torsions:
DOCKED: REMARK  status: ('A' for Active; 'I' for Inactive)
DOCKED: REMARK    1  A    between atoms: S_2  and  N_3
DOCKED: REMARK    2  A    between atoms: S_2  and  C_10
DOCKED: REMARK    3  A    between atoms: N_3  and  C_4
DOCKED: REMARK    4  A    between atoms: C_12  and  C_13
DOCKED: REMARK    5  A    between atoms: C_14  and  C_15
DOCKED: REMARK                            x       y       z     vdW  Elec       q    Type
DOCKED: REMARK                         _______ _______ _______ _____ _____    ______ ____
DOCKED: USER                              x       y       z     vdW  Elec       q    Type
DOCKED: USER                           _______ _______ _______ _____ _____    ______ ____
DOCKED: ROOT
DOCKED: ATOM      1  C   UNL     1      25.660 -16.393  -2.150 -0.49 -0.00    +0.000 A 
DOCKED: ATOM      2  C   UNL     1      24.387 -16.888  -1.833 -0.52 -0.00    +0.000 A 
DOCKED: ATOM      3  C   UNL     1      24.226 -17.845  -0.809 -0.68 -0.00    +0.000 A 
DOCKED: ATOM      4  C   UNL     1      25.365 -18.305  -0.126 -0.58 -0.00    +0.000 A 
DOCKED: ATOM      5  C   UNL     1      26.631 -17.804  -0.438 -0.52 -0.00    +0.000 A 
DOCKED: ATOM      6  C   UNL     1      26.780 -16.848  -1.443 -0.42 -0.00    +0.000 A 
DOCKED: ENDROOT
DOCKED: BRANCH   1   8
DOCKED: ATOM      7  O   UNL     1      24.555 -14.492  -3.698 -0.89 -0.00    +0.000 OA
DOCKED: ATOM      8  S   UNL     1      25.850 -15.214  -3.445 -0.68 -0.00    +0.000 S 
DOCKED: ATOM      9  O   UNL     1      26.262 -15.935  -4.697 -0.86 -0.00    +0.000 OA
DOCKED: BRANCH   8  10
DOCKED: ATOM     10  N   UNL     1      27.071 -14.054  -3.024 -0.24 -0.00    +0.000 N 
DOCKED: ATOM     11  H   UNL     1      27.837 -13.947  -3.634 +0.00 -0.00    +0.000 HD
DOCKED: BRANCH  10  12
DOCKED: ATOM     12  C   UNL     1      27.032 -13.240  -1.839 -0.16 -0.00    +0.000 A 
DOCKED: ATOM     13  C   UNL     1      27.370 -11.872  -1.862 -0.10 -0.00    +0.000 A 
DOCKED: ATOM     14  C   UNL     1      27.310 -11.110  -0.691 -0.11 -0.00    +0.000 A 
DOCKED: ATOM     15  C   UNL     1      26.919 -11.701   0.512 -0.20 +0.00    +0.000 A 
DOCKED: ATOM     16  C   UNL     1      26.589 -13.057   0.547 -0.28 -0.00    +0.000 A 
DOCKED: ATOM     17  C   UNL     1      26.647 -13.823  -0.621 -0.24 -0.00    +0.000 A 
DOCKED: ENDBRANCH  10  12
DOCKED: ENDBRANCH   8  10
DOCKED: ENDBRANCH   1   8
DOCKED: BRANCH   3  18
DOCKED: ATOM     18  C   UNL     1      22.905 -18.418  -0.451 -0.83 -0.00    +0.000 C 
DOCKED: ATOM     19  C   UNL     1      22.093 -19.023  -1.331 -0.74 -0.00    +0.000 C 
DOCKED: BRANCH  19  20
DOCKED: ATOM     20  C   UNL     1      20.779 -19.593  -0.967 -0.84 -0.00    +0.000 C 
DOCKED: ATOM     21  N   UNL     1      20.449 -19.961   0.378 -0.71 -0.00    +0.000 N 
DOCKED: ATOM     22  O   UNL     1      19.273 -20.576   0.642 -0.86 -0.00    +0.000 OA
DOCKED: ATOM     23  O   UNL     1      19.915 -19.735  -1.873 -2.39 -0.00    +0.000 OA
DOCKED: ATOM     24  H   UNL     1      21.078 -19.767   1.109 -0.48 -0.00    +0.000 HD
DOCKED: ENDBRANCH  19  20
DOCKED: ENDBRANCH   3  18
DOCKED: TORSDOF 5
DOCKED: TER
DOCKED: ENDMDL
________________________________________________________________________________


	BEGINNING GENETIC ALGORITHM DOCKING 93 of 100
Run: 93 Seed: 563351692 772434411 [ Run 93 of 100 GA/GALS ]
Beginning LAMARCKIAN GENETIC ALGORITHM (LGA), with a maximum of 2500000 energy evaluations.

Final-Value: -14.804


	FINAL GENETIC ALGORITHM DOCKED STATE
	_______________________________________________


Detailed state:  trans 23.727 -17.288 -2.709 quatxyzw -0.478916 0.471648 -0.706969 0.219962 center 0.230 -0.012 -0.200 ntor 5 -74.2263 59.4817 109.0037 -9.2634 179.8553
State:	 23.727 -17.288  -2.709  -0.491  0.483 -0.725 154.586    -74.23   59.48  109.00   -9.26  179.86

DOCKED: MODEL       93
DOCKED: USER    Run = 93
DOCKED: USER    DPF = ligand_dock.biased.dpf
DOCKED: USER  
DOCKED: USER    Estimated Free Energy of Binding    =  -12.21 kcal/mol  [=(1)+(2)+(3)-(4)]
DOCKED: USER    Estimated Inhibition Constant, Ki   =    1.13 nM (nanomolar)  [Temperature = 298.15 K]
DOCKED: USER    
DOCKED: USER    (1) Final Intermolecular Energy     =  -13.70 kcal/mol
DOCKED: USER        vdW + Hbond + desolv Energy     =  -13.70 kcal/mol
DOCKED: USER        Electrostatic Energy            =   +0.00 kcal/mol
DOCKED: USER    (2) Final Total Internal Energy     =   -1.11 kcal/mol
DOCKED: USER    (3) Torsional Free Energy           =   +1.49 kcal/mol
DOCKED: USER    (4) Unbound System's Energy  [=(2)] =   -1.11 kcal/mol
DOCKED: USER    
DOCKED: USER    
DOCKED: USER    NEWDPF move ligand.pdbqt
DOCKED: USER    NEWDPF about 0.230000 -0.012000 -0.200000
DOCKED: USER    NEWDPF tran0 23.726724 -17.288028 -2.708574
DOCKED: USER    NEWDPF quaternion0 -0.478916 0.471648 -0.706969 0.219962
DOCKED: USER    NEWDPF axisangle0 -0.490940 0.483489 -0.724718 154.586424
DOCKED: USER    NEWDPF quat0 -0.490940 0.483489 -0.724718 154.586424
DOCKED: USER    NEWDPF dihe0 -74.23 59.48 109.00 -9.26 179.86 
DOCKED: USER  keepresnum = 1 
DOCKED: USER  
DOCKED: REMARK  Name = 
DOCKED: REMARK  5 active torsions:
DOCKED: REMARK  status: ('A' for Active; 'I' for Inactive)
DOCKED: REMARK    1  A    between atoms: S_2  and  N_3
DOCKED: REMARK    2  A    between atoms: S_2  and  C_10
DOCKED: REMARK    3  A    between atoms: N_3  and  C_4
DOCKED: REMARK    4  A    between atoms: C_12  and  C_13
DOCKED: REMARK    5  A    between atoms: C_14  and  C_15
DOCKED: REMARK                            x       y       z     vdW  Elec       q    Type
DOCKED: REMARK                         _______ _______ _______ _____ _____    ______ ____
DOCKED: USER                              x       y       z     vdW  Elec       q    Type
DOCKED: USER                           _______ _______ _______ _____ _____    ______ ____
DOCKED: ROOT
DOCKED: ATOM      1  C   UNL     1      25.627 -16.355  -2.183 -0.50 -0.00    +0.000 A 
DOCKED: ATOM      2  C   UNL     1      24.315 -16.769  -1.912 -0.37 -0.00    +0.000 A 
DOCKED: ATOM      3  C   UNL     1      24.059 -17.715  -0.897 -0.68 -0.00    +0.000 A 
DOCKED: ATOM      4  C   UNL     1      25.141 -18.245  -0.175 -0.61 -0.00    +0.000 A 
DOCKED: ATOM      5  C   UNL     1      26.447 -17.824  -0.440 -0.54 -0.00    +0.000 A 
DOCKED: ATOM      6  C   UNL     1      26.690 -16.878  -1.438 -0.43 -0.00    +0.000 A 
DOCKED: ENDROOT
DOCKED: BRANCH   1   8
DOCKED: ATOM      7  O   UNL     1      24.722 -14.335  -3.711 -0.97 -0.00    +0.000 OA
DOCKED: ATOM      8  S   UNL     1      25.935 -15.189  -3.468 -0.67 -0.00    +0.000 S 
DOCKED: ATOM      9  O   UNL     1      26.269 -15.937  -4.727 -0.88 -0.00    +0.000 OA
DOCKED: BRANCH   8  10
DOCKED: ATOM     10  N   UNL     1      27.271 -14.166  -3.040 -0.22 -0.00    +0.000 N 
DOCKED: ATOM     11  H   UNL     1      28.070 -14.185  -3.614 +0.00 -0.00    +0.000 HD
DOCKED: BRANCH  10  12
DOCKED: ATOM     12  C   UNL     1      27.279 -13.291  -1.898 -0.16 -0.00    +0.000 A 
DOCKED: ATOM     13  C   UNL     1      26.876 -13.729  -0.620 -0.23 -0.00    +0.000 A 
DOCKED: ATOM     14  C   UNL     1      26.907 -12.852   0.469 -0.24 -0.00    +0.000 A 
DOCKED: ATOM     15  C   UNL     1      27.333 -11.533   0.297 -0.15 -0.00    +0.000 A 
DOCKED: ATOM     16  C   UNL     1      27.728 -11.088  -0.966 -0.09 -0.00    +0.000 A 
DOCKED: ATOM     17  C   UNL     1      27.699 -11.960  -2.058 -0.10 -0.00    +0.000 A 
DOCKED: ENDBRANCH  10  12
DOCKED: ENDBRANCH   8  10
DOCKED: ENDBRANCH   1   8
DOCKED: BRANCH   3  18
DOCKED: ATOM     18  C   UNL     1      22.692 -18.205  -0.588 -0.83 -0.00    +0.000 C 
DOCKED: ATOM     19  C   UNL     1      22.108 -19.232  -1.223 -0.72 -0.00    +0.000 C 
DOCKED: BRANCH  19  20
DOCKED: ATOM     20  C   UNL     1      20.748 -19.715  -0.908 -0.82 -0.00    +0.000 C 
DOCKED: ATOM     21  N   UNL     1      20.367 -20.133   0.409 -0.70 -0.00    +0.000 N 
DOCKED: ATOM     22  O   UNL     1      19.143 -20.667   0.622 -0.87 -0.00    +0.000 OA
DOCKED: ATOM     23  O   UNL     1      19.890 -19.736  -1.831 -2.40 -0.00    +0.000 OA
DOCKED: ATOM     24  H   UNL     1      20.998 -20.032   1.158 -0.52 -0.00    +0.000 HD
DOCKED: ENDBRANCH  19  20
DOCKED: ENDBRANCH   3  18
DOCKED: TORSDOF 5
DOCKED: TER
DOCKED: ENDMDL
________________________________________________________________________________


	BEGINNING GENETIC ALGORITHM DOCKING 94 of 100
Run: 94 Seed: 387927153 350415717 [ Run 94 of 100 GA/GALS ]
Beginning LAMARCKIAN GENETIC ALGORITHM (LGA), with a maximum of 2500000 energy evaluations.

Final-Value: -15.488


	FINAL GENETIC ALGORITHM DOCKED STATE
	_______________________________________________


Detailed state:  trans 23.885 -17.644 -2.841 quatxyzw 0.519352 -0.401219 0.727349 -0.200650 center 0.230 -0.012 -0.200 ntor 5 -26.0388 -68.0754 58.2814 163.4193 -155.4658
State:	 23.885 -17.644  -2.841   0.530 -0.410  0.742 -156.850    -26.04  -68.08   58.28  163.42 -155.47

DOCKED: MODEL       94
DOCKED: USER    Run = 94
DOCKED: USER    DPF = ligand_dock.biased.dpf
DOCKED: USER  
DOCKED: USER    Estimated Free Energy of Binding    =  -12.97 kcal/mol  [=(1)+(2)+(3)-(4)]
DOCKED: USER    Estimated Inhibition Constant, Ki   =  309.90 pM (picomolar)  [Temperature = 298.15 K]
DOCKED: USER    
DOCKED: USER    (1) Final Intermolecular Energy     =  -14.46 kcal/mol
DOCKED: USER        vdW + Hbond + desolv Energy     =  -14.46 kcal/mol
DOCKED: USER        Electrostatic Energy            =   +0.00 kcal/mol
DOCKED: USER    (2) Final Total Internal Energy     =   -1.02 kcal/mol
DOCKED: USER    (3) Torsional Free Energy           =   +1.49 kcal/mol
DOCKED: USER    (4) Unbound System's Energy  [=(2)] =   -1.02 kcal/mol
DOCKED: USER    
DOCKED: USER    
DOCKED: USER    NEWDPF move ligand.pdbqt
DOCKED: USER    NEWDPF about 0.230000 -0.012000 -0.200000
DOCKED: USER    NEWDPF tran0 23.884907 -17.644281 -2.840510
DOCKED: USER    NEWDPF quaternion0 0.519352 -0.401219 0.727349 -0.200650
DOCKED: USER    NEWDPF axisangle0 0.530134 -0.409548 0.742448 -156.850043
DOCKED: USER    NEWDPF quat0 0.530134 -0.409548 0.742448 -156.850043
DOCKED: USER    NEWDPF dihe0 -26.04 -68.08 58.28 163.42 -155.47 
DOCKED: USER  keepresnum = 1 
DOCKED: USER  
DOCKED: REMARK  Name = 
DOCKED: REMARK  5 active torsions:
DOCKED: REMARK  status: ('A' for Active; 'I' for Inactive)
DOCKED: REMARK    1  A    between atoms: S_2  and  N_3
DOCKED: REMARK    2  A    between atoms: S_2  and  C_10
DOCKED: REMARK    3  A    between atoms: N_3  and  C_4
DOCKED: REMARK    4  A    between atoms: C_12  and  C_13
DOCKED: REMARK    5  A    between atoms: C_14  and  C_15
DOCKED: REMARK                            x       y       z     vdW  Elec       q    Type
DOCKED: REMARK                         _______ _______ _______ _____ _____    ______ ____
DOCKED: USER                              x       y       z     vdW  Elec       q    Type
DOCKED: USER                           _______ _______ _______ _____ _____    ______ ____
DOCKED: ROOT
DOCKED: ATOM      1  C   UNL     1      25.653 -16.414  -2.497 -0.48 -0.00    +0.000 A 
DOCKED: ATOM      2  C   UNL     1      24.428 -16.982  -2.122 -0.32 -0.00    +0.000 A 
DOCKED: ATOM      3  C   UNL     1      24.355 -17.864  -1.023 -0.68 -0.00    +0.000 A 
DOCKED: ATOM      4  C   UNL     1      25.533 -18.174  -0.323 -0.62 -0.00    +0.000 A 
DOCKED: ATOM      5  C   UNL     1      26.751 -17.599  -0.693 -0.49 -0.00    +0.000 A 
DOCKED: ATOM      6  C   UNL     1      26.813 -16.718  -1.774 -0.39 -0.00    +0.000 A 
DOCKED: ENDROOT
DOCKED: BRANCH   1   8
DOCKED: ATOM      7  O   UNL     1      24.678 -14.266  -3.788 -1.00 -0.00    +0.000 OA
DOCKED: ATOM      8  S   UNL     1      25.733 -15.331  -3.885 -0.71 -0.00    +0.000 S 
DOCKED: ATOM      9  O   UNL     1      25.508 -16.133  -5.135 -0.95 -0.00    +0.000 OA
DOCKED: BRANCH   8  10
DOCKED: ATOM     10  N   UNL     1      27.295 -14.575  -3.965 -0.30 -0.00    +0.000 N 
DOCKED: ATOM     11  H   UNL     1      27.525 -13.917  -3.270 +0.00 -0.00    +0.000 HD
DOCKED: BRANCH  10  12
DOCKED: ATOM     12  C   UNL     1      28.271 -14.853  -4.984 -0.32 -0.00    +0.000 A 
DOCKED: ATOM     13  C   UNL     1      29.098 -15.993  -4.933 -0.29 -0.00    +0.000 A 
DOCKED: ATOM     14  C   UNL     1      30.029 -16.236  -5.948 -0.30 -0.00    +0.000 A 
DOCKED: ATOM     15  C   UNL     1      30.150 -15.346  -7.017 -0.28 -0.00    +0.000 A 
DOCKED: ATOM     16  C   UNL     1      29.341 -14.209  -7.073 -0.30 -0.00    +0.000 A 
DOCKED: ATOM     17  C   UNL     1      28.408 -13.963  -6.061 -0.29 -0.00    +0.000 A 
DOCKED: ENDBRANCH  10  12
DOCKED: ENDBRANCH   8  10
DOCKED: ENDBRANCH   1   8
DOCKED: BRANCH   3  18
DOCKED: ATOM     18  C   UNL     1      23.088 -18.511  -0.600 -0.83 -0.00    +0.000 C 
DOCKED: ATOM     19  C   UNL     1      22.136 -18.914  -1.455 -0.68 -0.00    +0.000 C 
DOCKED: BRANCH  19  20
DOCKED: ATOM     20  C   UNL     1      20.878 -19.559  -1.026 -0.83 -0.00    +0.000 C 
DOCKED: ATOM     21  N   UNL     1      20.645 -19.962   0.329 -0.69 -0.00    +0.000 N 
DOCKED: ATOM     22  O   UNL     1      19.521 -20.643   0.650 -0.86 -0.00    +0.000 OA
DOCKED: ATOM     23  O   UNL     1      19.972 -19.737  -1.884 -2.38 -0.00    +0.000 OA
DOCKED: ATOM     24  H   UNL     1      21.304 -19.742   1.027 -0.48 -0.00    +0.000 HD
DOCKED: ENDBRANCH  19  20
DOCKED: ENDBRANCH   3  18
DOCKED: TORSDOF 5
DOCKED: TER
DOCKED: ENDMDL
________________________________________________________________________________


	BEGINNING GENETIC ALGORITHM DOCKING 95 of 100
Run: 95 Seed: 1203845409 1297282810 [ Run 95 of 100 GA/GALS ]
Beginning LAMARCKIAN GENETIC ALGORITHM (LGA), with a maximum of 2500000 energy evaluations.

Final-Value: -13.882


	FINAL GENETIC ALGORITHM DOCKED STATE
	_______________________________________________


Detailed state:  trans 25.883 -16.352 0.288 quatxyzw 0.495188 -0.662842 -0.561473 -0.013305 center 0.230 -0.012 -0.200 ntor 5 -14.5226 -124.1855 154.7744 -9.1306 -23.4861
State:	 25.883 -16.352   0.288   0.495 -0.663 -0.562 -178.475    -14.52 -124.19  154.77   -9.13  -23.49

DOCKED: MODEL       95
DOCKED: USER    Run = 95
DOCKED: USER    DPF = ligand_dock.biased.dpf
DOCKED: USER  
DOCKED: USER    Estimated Free Energy of Binding    =  -11.20 kcal/mol  [=(1)+(2)+(3)-(4)]
DOCKED: USER    Estimated Inhibition Constant, Ki   =    6.16 nM (nanomolar)  [Temperature = 298.15 K]
DOCKED: USER    
DOCKED: USER    (1) Final Intermolecular Energy     =  -12.69 kcal/mol
DOCKED: USER        vdW + Hbond + desolv Energy     =  -12.69 kcal/mol
DOCKED: USER        Electrostatic Energy            =   +0.00 kcal/mol
DOCKED: USER    (2) Final Total Internal Energy     =   -1.19 kcal/mol
DOCKED: USER    (3) Torsional Free Energy           =   +1.49 kcal/mol
DOCKED: USER    (4) Unbound System's Energy  [=(2)] =   -1.19 kcal/mol
DOCKED: USER    
DOCKED: USER    
DOCKED: USER    NEWDPF move ligand.pdbqt
DOCKED: USER    NEWDPF about 0.230000 -0.012000 -0.200000
DOCKED: USER    NEWDPF tran0 25.882583 -16.352462 0.288119
DOCKED: USER    NEWDPF quaternion0 0.495188 -0.662842 -0.561473 -0.013305
DOCKED: USER    NEWDPF axisangle0 0.495232 -0.662901 -0.561523 -178.475266
DOCKED: USER    NEWDPF quat0 0.495232 -0.662901 -0.561523 -178.475266
DOCKED: USER    NEWDPF dihe0 -14.52 -124.19 154.77 -9.13 -23.49 
DOCKED: USER  keepresnum = 1 
DOCKED: USER  
DOCKED: REMARK  Name = 
DOCKED: REMARK  5 active torsions:
DOCKED: REMARK  status: ('A' for Active; 'I' for Inactive)
DOCKED: REMARK    1  A    between atoms: S_2  and  N_3
DOCKED: REMARK    2  A    between atoms: S_2  and  C_10
DOCKED: REMARK    3  A    between atoms: N_3  and  C_4
DOCKED: REMARK    4  A    between atoms: C_12  and  C_13
DOCKED: REMARK    5  A    between atoms: C_14  and  C_15
DOCKED: REMARK                            x       y       z     vdW  Elec       q    Type
DOCKED: REMARK                         _______ _______ _______ _____ _____    ______ ____
DOCKED: USER                              x       y       z     vdW  Elec       q    Type
DOCKED: USER                           _______ _______ _______ _____ _____    ______ ____
DOCKED: ROOT
DOCKED: ATOM      1  C   UNL     1      27.430 -15.663  -1.086 -0.29 -0.00    +0.000 A 
DOCKED: ATOM      2  C   UNL     1      26.426 -16.548  -0.669 -0.44 -0.00    +0.000 A 
DOCKED: ATOM      3  C   UNL     1      25.274 -16.747  -1.457 -0.54 -0.00    +0.000 A 
DOCKED: ATOM      4  C   UNL     1      25.142 -16.030  -2.658 -0.44 -0.00    +0.000 A 
DOCKED: ATOM      5  C   UNL     1      26.147 -15.155  -3.077 -0.44 -0.00    +0.000 A 
DOCKED: ATOM      6  C   UNL     1      27.290 -14.973  -2.297 -0.25 -0.00    +0.000 A 
DOCKED: ENDROOT
DOCKED: BRANCH   1   8
DOCKED: ATOM      7  O   UNL     1      29.765 -14.385  -0.701 -0.09 -0.00    +0.000 OA
DOCKED: ATOM      8  S   UNL     1      28.854 -15.408  -0.081 -0.27 -0.00    +0.000 S 
DOCKED: ATOM      9  O   UNL     1      29.593 -16.709   0.047 -0.23 -0.00    +0.000 OA
DOCKED: BRANCH   8  10
DOCKED: ATOM     10  N   UNL     1      28.382 -14.861   1.498 -0.20 -0.00    +0.000 N 
DOCKED: ATOM     11  H   UNL     1      28.614 -15.425   2.271 -1.62 -0.00    +0.000 HD
DOCKED: BRANCH  10  12
DOCKED: ATOM     12  C   UNL     1      27.672 -13.634   1.745 -0.26 -0.00    +0.000 A 
DOCKED: ATOM     13  C   UNL     1      28.029 -12.765   2.795 -0.24 -0.00    +0.000 A 
DOCKED: ATOM     14  C   UNL     1      27.322 -11.575   2.997 -0.26 +0.00    +0.000 A 
DOCKED: ATOM     15  C   UNL     1      26.253 -11.243   2.163 -0.29 +0.00    +0.000 A 
DOCKED: ATOM     16  C   UNL     1      25.887 -12.101   1.124 -0.33 +0.00    +0.000 A 
DOCKED: ATOM     17  C   UNL     1      26.590 -13.291   0.917 -0.29 -0.00    +0.000 A 
DOCKED: ENDBRANCH  10  12
DOCKED: ENDBRANCH   8  10
DOCKED: ENDBRANCH   1   8
DOCKED: BRANCH   3  18
DOCKED: ATOM     18  C   UNL     1      24.172 -17.654  -1.049 -0.75 -0.00    +0.000 C 
DOCKED: ATOM     19  C   UNL     1      22.876 -17.312  -1.081 -0.64 -0.00    +0.000 C 
DOCKED: BRANCH  19  20
DOCKED: ATOM     20  C   UNL     1      21.784 -18.221  -0.674 -0.85 -0.00    +0.000 C 
DOCKED: ATOM     21  N   UNL     1      22.033 -19.529  -0.142 -0.52 -0.00    +0.000 N 
DOCKED: ATOM     22  O   UNL     1      20.999 -20.363   0.116 -0.74 -0.00    +0.000 OA
DOCKED: ATOM     23  O   UNL     1      20.595 -17.817  -0.779 -2.28 -0.00    +0.000 OA
DOCKED: ATOM     24  H   UNL     1      22.956 -19.820   0.035 -0.44 -0.00    +0.000 HD
DOCKED: ENDBRANCH  19  20
DOCKED: ENDBRANCH   3  18
DOCKED: TORSDOF 5
DOCKED: TER
DOCKED: ENDMDL
________________________________________________________________________________


	BEGINNING GENETIC ALGORITHM DOCKING 96 of 100
Run: 96 Seed: 154973542 719242627 [ Run 96 of 100 GA/GALS ]
Beginning LAMARCKIAN GENETIC ALGORITHM (LGA), with a maximum of 2500000 energy evaluations.

Final-Value: -14.439


	FINAL GENETIC ALGORITHM DOCKED STATE
	_______________________________________________


Detailed state:  trans 24.222 -17.477 -3.084 quatxyzw 0.406182 -0.504630 0.757738 -0.078720 center 0.230 -0.012 -0.200 ntor 5 154.5148 79.5786 -91.0726 74.4672 157.9542
State:	 24.222 -17.477  -3.084   0.407 -0.506  0.760 -170.970    154.51   79.58  -91.07   74.47  157.95

DOCKED: MODEL       96
DOCKED: USER    Run = 96
DOCKED: USER    DPF = ligand_dock.biased.dpf
DOCKED: USER  
DOCKED: USER    Estimated Free Energy of Binding    =  -11.82 kcal/mol  [=(1)+(2)+(3)-(4)]
DOCKED: USER    Estimated Inhibition Constant, Ki   =    2.15 nM (nanomolar)  [Temperature = 298.15 K]
DOCKED: USER    
DOCKED: USER    (1) Final Intermolecular Energy     =  -13.32 kcal/mol
DOCKED: USER        vdW + Hbond + desolv Energy     =  -13.32 kcal/mol
DOCKED: USER        Electrostatic Energy            =   +0.00 kcal/mol
DOCKED: USER    (2) Final Total Internal Energy     =   -1.12 kcal/mol
DOCKED: USER    (3) Torsional Free Energy           =   +1.49 kcal/mol
DOCKED: USER    (4) Unbound System's Energy  [=(2)] =   -1.12 kcal/mol
DOCKED: USER    
DOCKED: USER    
DOCKED: USER    NEWDPF move ligand.pdbqt
DOCKED: USER    NEWDPF about 0.230000 -0.012000 -0.200000
DOCKED: USER    NEWDPF tran0 24.222122 -17.476818 -3.084431
DOCKED: USER    NEWDPF quaternion0 0.406182 -0.504630 0.757738 -0.078720
DOCKED: USER    NEWDPF axisangle0 0.407446 -0.506201 0.760097 -170.970011
DOCKED: USER    NEWDPF quat0 0.407446 -0.506201 0.760097 -170.970011
DOCKED: USER    NEWDPF dihe0 154.51 79.58 -91.07 74.47 157.95 
DOCKED: USER  keepresnum = 1 
DOCKED: USER  
DOCKED: REMARK  Name = 
DOCKED: REMARK  5 active torsions:
DOCKED: REMARK  status: ('A' for Active; 'I' for Inactive)
DOCKED: REMARK    1  A    between atoms: S_2  and  N_3
DOCKED: REMARK    2  A    between atoms: S_2  and  C_10
DOCKED: REMARK    3  A    between atoms: N_3  and  C_4
DOCKED: REMARK    4  A    between atoms: C_12  and  C_13
DOCKED: REMARK    5  A    between atoms: C_14  and  C_15
DOCKED: REMARK                            x       y       z     vdW  Elec       q    Type
DOCKED: REMARK                         _______ _______ _______ _____ _____    ______ ____
DOCKED: USER                              x       y       z     vdW  Elec       q    Type
DOCKED: USER                           _______ _______ _______ _____ _____    ______ ____
DOCKED: ROOT
DOCKED: ATOM      1  C   UNL     1      25.745 -16.418  -1.936 -0.49 -0.00    +0.000 A 
DOCKED: ATOM      2  C   UNL     1      24.480 -16.998  -2.108 -0.36 -0.00    +0.000 A 
DOCKED: ATOM      3  C   UNL     1      24.072 -18.079  -1.299 -0.68 -0.00    +0.000 A 
DOCKED: ATOM      4  C   UNL     1      24.961 -18.574  -0.331 -0.55 -0.00    +0.000 A 
DOCKED: ATOM      5  C   UNL     1      26.218 -17.990  -0.155 -0.57 -0.00    +0.000 A 
DOCKED: ATOM      6  C   UNL     1      26.609 -16.913  -0.951 -0.46 -0.00    +0.000 A 
DOCKED: ENDROOT
DOCKED: BRANCH   1   8
DOCKED: ATOM      7  O   UNL     1      25.139 -14.680  -3.896 -0.93 -0.00    +0.000 OA
DOCKED: ATOM      8  S   UNL     1      26.250 -15.083  -2.968 -0.57 -0.00    +0.000 S 
DOCKED: ATOM      9  O   UNL     1      27.433 -15.524  -3.782 -0.39 -0.00    +0.000 OA
DOCKED: BRANCH   8  10
DOCKED: ATOM     10  N   UNL     1      26.701 -13.715  -1.998 -0.23 -0.00    +0.000 N 
DOCKED: ATOM     11  H   UNL     1      26.684 -12.825  -2.419 -0.00 -0.00    +0.000 HD
DOCKED: BRANCH  10  12
DOCKED: ATOM     12  C   UNL     1      27.098 -13.804  -0.619 -0.22 -0.00    +0.000 A 
DOCKED: ATOM     13  C   UNL     1      28.299 -14.428  -0.226 -0.17 -0.00    +0.000 A 
DOCKED: ATOM     14  C   UNL     1      28.656 -14.486   1.124 -0.19 -0.00    +0.000 A 
DOCKED: ATOM     15  C   UNL     1      27.821 -13.930   2.096 -0.28 -0.00    +0.000 A 
DOCKED: ATOM     16  C   UNL     1      26.625 -13.316   1.719 -0.25 -0.00    +0.000 A 
DOCKED: ATOM     17  C   UNL     1      26.264 -13.255   0.370 -0.28 -0.00    +0.000 A 
DOCKED: ENDBRANCH  10  12
DOCKED: ENDBRANCH   8  10
DOCKED: ENDBRANCH   1   8
DOCKED: BRANCH   3  18
DOCKED: ATOM     18  C   UNL     1      22.753 -18.742  -1.457 -0.74 -0.00    +0.000 C 
DOCKED: ATOM     19  C   UNL     1      21.785 -18.704  -0.530 -0.85 -0.00    +0.000 C 
DOCKED: BRANCH  19  20
DOCKED: ATOM     20  C   UNL     1      20.474 -19.366  -0.695 -0.90 -0.00    +0.000 C 
DOCKED: ATOM     21  N   UNL     1      19.516 -19.447   0.367 -0.72 -0.00    +0.000 N 
DOCKED: ATOM     22  O   UNL     1      18.376 -20.155   0.198 -0.89 -0.00    +0.000 OA
DOCKED: ATOM     23  O   UNL     1      20.186 -19.854  -1.821 -2.34 -0.00    +0.000 OA
DOCKED: ATOM     24  H   UNL     1      19.688 -18.987   1.220 -0.28 -0.00    +0.000 HD
DOCKED: ENDBRANCH  19  20
DOCKED: ENDBRANCH   3  18
DOCKED: TORSDOF 5
DOCKED: TER
DOCKED: ENDMDL
________________________________________________________________________________


	BEGINNING GENETIC ALGORITHM DOCKING 97 of 100
Run: 97 Seed: 1107967560 1558884490 [ Run 97 of 100 GA/GALS ]
Beginning LAMARCKIAN GENETIC ALGORITHM (LGA), with a maximum of 2500000 energy evaluations.

Final-Value: -14.164


	FINAL GENETIC ALGORITHM DOCKED STATE
	_______________________________________________


Detailed state:  trans 25.878 -15.730 0.256 quatxyzw -0.431041 0.764990 0.478519 -0.003782 center 0.230 -0.012 -0.200 ntor 5 172.6791 -127.2612 -108.1192 -0.5210 -11.0017
State:	 25.878 -15.730   0.256  -0.431  0.765  0.479 -179.567    172.68 -127.26 -108.12   -0.52  -11.00

DOCKED: MODEL       97
DOCKED: USER    Run = 97
DOCKED: USER    DPF = ligand_dock.biased.dpf
DOCKED: USER  
DOCKED: USER    Estimated Free Energy of Binding    =  -11.56 kcal/mol  [=(1)+(2)+(3)-(4)]
DOCKED: USER    Estimated Inhibition Constant, Ki   =    3.35 nM (nanomolar)  [Temperature = 298.15 K]
DOCKED: USER    
DOCKED: USER    (1) Final Intermolecular Energy     =  -13.05 kcal/mol
DOCKED: USER        vdW + Hbond + desolv Energy     =  -13.05 kcal/mol
DOCKED: USER        Electrostatic Energy            =   +0.00 kcal/mol
DOCKED: USER    (2) Final Total Internal Energy     =   -1.11 kcal/mol
DOCKED: USER    (3) Torsional Free Energy           =   +1.49 kcal/mol
DOCKED: USER    (4) Unbound System's Energy  [=(2)] =   -1.11 kcal/mol
DOCKED: USER    
DOCKED: USER    
DOCKED: USER    NEWDPF move ligand.pdbqt
DOCKED: USER    NEWDPF about 0.230000 -0.012000 -0.200000
DOCKED: USER    NEWDPF tran0 25.878013 -15.729713 0.256424
DOCKED: USER    NEWDPF quaternion0 -0.431041 0.764990 0.478519 -0.003782
DOCKED: USER    NEWDPF axisangle0 -0.431044 0.764995 0.478522 -179.566598
DOCKED: USER    NEWDPF quat0 -0.431044 0.764995 0.478522 -179.566598
DOCKED: USER    NEWDPF dihe0 172.68 -127.26 -108.12 -0.52 -11.00 
DOCKED: USER  keepresnum = 1 
DOCKED: USER  
DOCKED: REMARK  Name = 
DOCKED: REMARK  5 active torsions:
DOCKED: REMARK  status: ('A' for Active; 'I' for Inactive)
DOCKED: REMARK    1  A    between atoms: S_2  and  N_3
DOCKED: REMARK    2  A    between atoms: S_2  and  C_10
DOCKED: REMARK    3  A    between atoms: N_3  and  C_4
DOCKED: REMARK    4  A    between atoms: C_12  and  C_13
DOCKED: REMARK    5  A    between atoms: C_14  and  C_15
DOCKED: REMARK                            x       y       z     vdW  Elec       q    Type
DOCKED: REMARK                         _______ _______ _______ _____ _____    ______ ____
DOCKED: USER                              x       y       z     vdW  Elec       q    Type
DOCKED: USER                           _______ _______ _______ _____ _____    ______ ____
DOCKED: ROOT
DOCKED: ATOM      1  C   UNL     1      27.552 -15.664  -1.140 -0.28 -0.00    +0.000 A 
DOCKED: ATOM      2  C   UNL     1      26.383 -16.226  -0.608 -0.40 -0.00    +0.000 A 
DOCKED: ATOM      3  C   UNL     1      25.225 -16.356  -1.404 -0.52 -0.00    +0.000 A 
DOCKED: ATOM      4  C   UNL     1      25.260 -15.896  -2.731 -0.44 -0.00    +0.000 A 
DOCKED: ATOM      5  C   UNL     1      26.429 -15.345  -3.262 -0.43 -0.00    +0.000 A 
DOCKED: ATOM      6  C   UNL     1      27.574 -15.232  -2.472 -0.24 -0.00    +0.000 A 
DOCKED: ENDROOT
DOCKED: BRANCH   1   8
DOCKED: ATOM      7  O   UNL     1      29.979 -14.563  -0.773 -0.08 -0.00    +0.000 OA
DOCKED: ATOM      8  S   UNL     1      28.985 -15.489  -0.129 -0.26 -0.00    +0.000 S 
DOCKED: ATOM      9  O   UNL     1      29.617 -16.840   0.049 -0.22 -0.00    +0.000 OA
DOCKED: BRANCH   8  10
DOCKED: ATOM     10  N   UNL     1      28.545 -14.854   1.426 -0.19 -0.00    +0.000 N 
DOCKED: ATOM     11  H   UNL     1      28.841 -15.346   2.226 -1.78 -0.00    +0.000 HD
DOCKED: BRANCH  10  12
DOCKED: ATOM     12  C   UNL     1      27.777 -13.653   1.615 -0.24 -0.00    +0.000 A 
DOCKED: ATOM     13  C   UNL     1      28.087 -12.721   2.626 -0.22 -0.00    +0.000 A 
DOCKED: ATOM     14  C   UNL     1      27.323 -11.559   2.773 -0.26 +0.00    +0.000 A 
DOCKED: ATOM     15  C   UNL     1      26.242 -11.316   1.922 -0.34 +0.00    +0.000 A 
DOCKED: ATOM     16  C   UNL     1      25.922 -12.237   0.922 -0.29 +0.00    +0.000 A 
DOCKED: ATOM     17  C   UNL     1      26.683 -13.400   0.771 -0.28 -0.00    +0.000 A 
DOCKED: ENDBRANCH  10  12
DOCKED: ENDBRANCH   8  10
DOCKED: ENDBRANCH   1   8
DOCKED: BRANCH   3  18
DOCKED: ATOM     18  C   UNL     1      23.956 -16.921  -0.882 -0.64 -0.00    +0.000 C 
DOCKED: ATOM     19  C   UNL     1      23.253 -17.876  -1.508 -0.62 -0.00    +0.000 C 
DOCKED: BRANCH  19  20
DOCKED: ATOM     20  C   UNL     1      21.991 -18.435  -0.981 -0.80 -0.00    +0.000 C 
DOCKED: ATOM     21  N   UNL     1      21.373 -19.599  -1.544 -0.63 -0.00    +0.000 N 
DOCKED: ATOM     22  O   UNL     1      20.165 -20.009  -1.095 -1.96 -0.00    +0.000 OA
DOCKED: ATOM     23  O   UNL     1      21.456 -17.875   0.013 -1.35 -0.00    +0.000 OA
DOCKED: ATOM     24  H   UNL     1      21.829 -20.101  -2.258 -0.58 -0.00    +0.000 HD
DOCKED: ENDBRANCH  19  20
DOCKED: ENDBRANCH   3  18
DOCKED: TORSDOF 5
DOCKED: TER
DOCKED: ENDMDL
________________________________________________________________________________


	BEGINNING GENETIC ALGORITHM DOCKING 98 of 100
Run: 98 Seed: 490877769 1411739890 [ Run 98 of 100 GA/GALS ]
Beginning LAMARCKIAN GENETIC ALGORITHM (LGA), with a maximum of 2500000 energy evaluations.

Final-Value: -14.334


	FINAL GENETIC ALGORITHM DOCKED STATE
	_______________________________________________


Detailed state:  trans 24.991 -15.515 -1.769 quatxyzw 0.438447 -0.752788 0.487886 0.055155 center 0.230 -0.012 -0.200 ntor 5 58.3426 69.6472 -86.8041 64.8794 -50.2822
State:	 24.991 -15.515  -1.769   0.439 -0.754  0.489 173.676     58.34   69.65  -86.80   64.88  -50.28

DOCKED: MODEL       98
DOCKED: USER    Run = 98
DOCKED: USER    DPF = ligand_dock.biased.dpf
DOCKED: USER  
DOCKED: USER    Estimated Free Energy of Binding    =  -11.51 kcal/mol  [=(1)+(2)+(3)-(4)]
DOCKED: USER    Estimated Inhibition Constant, Ki   =    3.67 nM (nanomolar)  [Temperature = 298.15 K]
DOCKED: USER    
DOCKED: USER    (1) Final Intermolecular Energy     =  -13.00 kcal/mol
DOCKED: USER        vdW + Hbond + desolv Energy     =  -13.00 kcal/mol
DOCKED: USER        Electrostatic Energy            =   +0.00 kcal/mol
DOCKED: USER    (2) Final Total Internal Energy     =   -1.33 kcal/mol
DOCKED: USER    (3) Torsional Free Energy           =   +1.49 kcal/mol
DOCKED: USER    (4) Unbound System's Energy  [=(2)] =   -1.33 kcal/mol
DOCKED: USER    
DOCKED: USER    
DOCKED: USER    NEWDPF move ligand.pdbqt
DOCKED: USER    NEWDPF about 0.230000 -0.012000 -0.200000
DOCKED: USER    NEWDPF tran0 24.991145 -15.514615 -1.769412
DOCKED: USER    NEWDPF quaternion0 0.438447 -0.752788 0.487886 0.055155
DOCKED: USER    NEWDPF axisangle0 0.439115 -0.753936 0.488630 173.676445
DOCKED: USER    NEWDPF quat0 0.439115 -0.753936 0.488630 173.676445
DOCKED: USER    NEWDPF dihe0 58.34 69.65 -86.80 64.88 -50.28 
DOCKED: USER  keepresnum = 1 
DOCKED: USER  
DOCKED: REMARK  Name = 
DOCKED: REMARK  5 active torsions:
DOCKED: REMARK  status: ('A' for Active; 'I' for Inactive)
DOCKED: REMARK    1  A    between atoms: S_2  and  N_3
DOCKED: REMARK    2  A    between atoms: S_2  and  C_10
DOCKED: REMARK    3  A    between atoms: N_3  and  C_4
DOCKED: REMARK    4  A    between atoms: C_12  and  C_13
DOCKED: REMARK    5  A    between atoms: C_14  and  C_15
DOCKED: REMARK                            x       y       z     vdW  Elec       q    Type
DOCKED: REMARK                         _______ _______ _______ _____ _____    ______ ____
DOCKED: USER                              x       y       z     vdW  Elec       q    Type
DOCKED: USER                           _______ _______ _______ _____ _____    ______ ____
DOCKED: ROOT
DOCKED: ATOM      1  C   UNL     1      26.649 -15.530  -0.352 -0.33 -0.00    +0.000 A 
DOCKED: ATOM      2  C   UNL     1      25.350 -15.855  -0.767 -0.35 -0.00    +0.000 A 
DOCKED: ATOM      3  C   UNL     1      24.964 -17.203  -0.920 -0.59 -0.00    +0.000 A 
DOCKED: ATOM      4  C   UNL     1      25.908 -18.212  -0.666 -0.57 -0.00    +0.000 A 
DOCKED: ATOM      5  C   UNL     1      27.200 -17.886  -0.244 -0.31 -0.00    +0.000 A 
DOCKED: ATOM      6  C   UNL     1      27.570 -16.550  -0.083 -0.32 -0.00    +0.000 A 
DOCKED: ENDROOT
DOCKED: BRANCH   1   8
DOCKED: ATOM      7  O   UNL     1      28.258 -13.704   0.792 -0.19 -0.00    +0.000 OA
DOCKED: ATOM      8  S   UNL     1      27.125 -13.841  -0.186 -0.33 -0.00    +0.000 S 
DOCKED: ATOM      9  O   UNL     1      25.946 -13.057   0.315 -0.37 -0.00    +0.000 OA
DOCKED: BRANCH   8  10
DOCKED: ATOM     10  N   UNL     1      27.623 -13.206  -1.723 -0.14 -0.00    +0.000 N 
DOCKED: ATOM     11  H   UNL     1      28.086 -12.337  -1.736 +0.00 -0.00    +0.000 HD
DOCKED: BRANCH  10  12
DOCKED: ATOM     12  C   UNL     1      27.402 -13.873  -2.978 -0.20 -0.00    +0.000 A 
DOCKED: ATOM     13  C   UNL     1      26.110 -14.228  -3.416 -0.39 -0.00    +0.000 A 
DOCKED: ATOM     14  C   UNL     1      25.933 -14.866  -4.647 -0.43 -0.00    +0.000 A 
DOCKED: ATOM     15  C   UNL     1      27.036 -15.162  -5.451 -0.27 +0.00    +0.000 A 
DOCKED: ATOM     16  C   UNL     1      28.321 -14.821  -5.023 -0.31 -0.00    +0.000 A 
DOCKED: ATOM     17  C   UNL     1      28.503 -14.182  -3.793 -0.15 -0.00    +0.000 A 
DOCKED: ENDBRANCH  10  12
DOCKED: ENDBRANCH   8  10
DOCKED: ENDBRANCH   1   8
DOCKED: BRANCH   3  18
DOCKED: ATOM     18  C   UNL     1      23.609 -17.600  -1.380 -0.71 -0.00    +0.000 C 
DOCKED: ATOM     19  C   UNL     1      22.694 -18.178  -0.588 -0.83 -0.00    +0.000 C 
DOCKED: BRANCH  19  20
DOCKED: ATOM     20  C   UNL     1      21.347 -18.568  -1.053 -0.79 -0.00    +0.000 C 
DOCKED: ATOM     21  N   UNL     1      21.120 -19.732  -1.857 -0.59 -0.00    +0.000 N 
DOCKED: ATOM     22  O   UNL     1      19.884 -19.988  -2.345 -2.12 -0.00    +0.000 OA
DOCKED: ATOM     23  O   UNL     1      20.364 -17.860  -0.706 -2.24 +0.00    +0.000 OA
DOCKED: ATOM     24  H   UNL     1      21.864 -20.346  -2.055 -0.48 -0.00    +0.000 HD
DOCKED: ENDBRANCH  19  20
DOCKED: ENDBRANCH   3  18
DOCKED: TORSDOF 5
DOCKED: TER
DOCKED: ENDMDL
________________________________________________________________________________


	BEGINNING GENETIC ALGORITHM DOCKING 99 of 100
Run: 99 Seed: 1665725183 259867201 [ Run 99 of 100 GA/GALS ]
Beginning LAMARCKIAN GENETIC ALGORITHM (LGA), with a maximum of 2500000 energy evaluations.

Final-Value: -15.242


	FINAL GENETIC ALGORITHM DOCKED STATE
	_______________________________________________


Detailed state:  trans 24.276 -17.593 -2.943 quatxyzw 0.516888 -0.364817 0.755871 -0.168510 center 0.230 -0.012 -0.200 ntor 5 -28.0453 123.8394 -4.5623 151.6805 -147.1370
State:	 24.276 -17.593  -2.943   0.524 -0.370  0.767 -160.598    -28.05  123.84   -4.56  151.68 -147.14

DOCKED: MODEL       99
DOCKED: USER    Run = 99
DOCKED: USER    DPF = ligand_dock.biased.dpf
DOCKED: USER  
DOCKED: USER    Estimated Free Energy of Binding    =  -12.69 kcal/mol  [=(1)+(2)+(3)-(4)]
DOCKED: USER    Estimated Inhibition Constant, Ki   =  495.85 pM (picomolar)  [Temperature = 298.15 K]
DOCKED: USER    
DOCKED: USER    (1) Final Intermolecular Energy     =  -14.19 kcal/mol
DOCKED: USER        vdW + Hbond + desolv Energy     =  -14.19 kcal/mol
DOCKED: USER        Electrostatic Energy            =   +0.00 kcal/mol
DOCKED: USER    (2) Final Total Internal Energy     =   -1.06 kcal/mol
DOCKED: USER    (3) Torsional Free Energy           =   +1.49 kcal/mol
DOCKED: USER    (4) Unbound System's Energy  [=(2)] =   -1.06 kcal/mol
DOCKED: USER    
DOCKED: USER    
DOCKED: USER    NEWDPF move ligand.pdbqt
DOCKED: USER    NEWDPF about 0.230000 -0.012000 -0.200000
DOCKED: USER    NEWDPF tran0 24.276448 -17.593362 -2.942991
DOCKED: USER    NEWDPF quaternion0 0.516888 -0.364817 0.755871 -0.168510
DOCKED: USER    NEWDPF axisangle0 0.524386 -0.370109 0.766836 -160.597592
DOCKED: USER    NEWDPF quat0 0.524386 -0.370109 0.766836 -160.597592
DOCKED: USER    NEWDPF dihe0 -28.05 123.84 -4.56 151.68 -147.14 
DOCKED: USER  keepresnum = 1 
DOCKED: USER  
DOCKED: REMARK  Name = 
DOCKED: REMARK  5 active torsions:
DOCKED: REMARK  status: ('A' for Active; 'I' for Inactive)
DOCKED: REMARK    1  A    between atoms: S_2  and  N_3
DOCKED: REMARK    2  A    between atoms: S_2  and  C_10
DOCKED: REMARK    3  A    between atoms: N_3  and  C_4
DOCKED: REMARK    4  A    between atoms: C_12  and  C_13
DOCKED: REMARK    5  A    between atoms: C_14  and  C_15
DOCKED: REMARK                            x       y       z     vdW  Elec       q    Type
DOCKED: REMARK                         _______ _______ _______ _____ _____    ______ ____
DOCKED: USER                              x       y       z     vdW  Elec       q    Type
DOCKED: USER                           _______ _______ _______ _____ _____    ______ ____
DOCKED: ROOT
DOCKED: ATOM      1  C   UNL     1      25.905 -16.188  -2.582 -0.46 -0.00    +0.000 A 
DOCKED: ATOM      2  C   UNL     1      24.721 -16.854  -2.233 -0.42 -0.00    +0.000 A 
DOCKED: ATOM      3  C   UNL     1      24.680 -17.692  -1.099 -0.65 -0.00    +0.000 A 
DOCKED: ATOM      4  C   UNL     1      25.848 -17.860  -0.337 -0.60 -0.00    +0.000 A 
DOCKED: ATOM      5  C   UNL     1      27.024 -17.188  -0.681 -0.45 -0.00    +0.000 A 
DOCKED: ATOM      6  C   UNL     1      27.053 -16.351  -1.797 -0.36 -0.00    +0.000 A 
DOCKED: ENDROOT
DOCKED: BRANCH   1   8
DOCKED: ATOM      7  O   UNL     1      24.921 -14.068  -3.913 -0.96 -0.00    +0.000 OA
DOCKED: ATOM      8  S   UNL     1      25.949 -15.160  -4.013 -0.72 -0.00    +0.000 S 
DOCKED: ATOM      9  O   UNL     1      25.652 -16.004  -5.220 -1.07 +0.00    +0.000 OA
DOCKED: BRANCH   8  10
DOCKED: ATOM     10  N   UNL     1      27.521 -14.444  -4.187 -0.28 -0.00    +0.000 N 
DOCKED: ATOM     11  H   UNL     1      27.729 -13.649  -3.645 +0.00 -0.00    +0.000 HD
DOCKED: BRANCH  10  12
DOCKED: ATOM     12  C   UNL     1      28.537 -14.943  -5.075 -0.31 -0.00    +0.000 A 
DOCKED: ATOM     13  C   UNL     1      28.952 -14.224  -6.213 -0.30 -0.00    +0.000 A 
DOCKED: ATOM     14  C   UNL     1      29.950 -14.736  -7.047 -0.28 -0.00    +0.000 A 
DOCKED: ATOM     15  C   UNL     1      30.541 -15.969  -6.760 -0.28 -0.00    +0.000 A 
DOCKED: ATOM     16  C   UNL     1      30.132 -16.693  -5.639 -0.29 -0.00    +0.000 A 
DOCKED: ATOM     17  C   UNL     1      29.134 -16.185  -4.802 -0.27 -0.00    +0.000 A 
DOCKED: ENDBRANCH  10  12
DOCKED: ENDBRANCH   8  10
DOCKED: ENDBRANCH   1   8
DOCKED: BRANCH   3  18
DOCKED: ATOM     18  C   UNL     1      23.460 -18.438  -0.701 -0.82 -0.00    +0.000 C 
DOCKED: ATOM     19  C   UNL     1      22.214 -18.035  -0.988 -0.74 -0.00    +0.000 C 
DOCKED: BRANCH  19  20
DOCKED: ATOM     20  C   UNL     1      21.004 -18.784  -0.589 -0.84 -0.00    +0.000 C 
DOCKED: ATOM     21  N   UNL     1      21.066 -20.110  -0.049 -0.61 -0.00    +0.000 N 
DOCKED: ATOM     22  O   UNL     1      19.926 -20.794   0.201 -1.02 -0.00    +0.000 OA
DOCKED: ATOM     23  O   UNL     1      19.882 -18.222  -0.710 -1.89 -0.00    +0.000 OA
DOCKED: ATOM     24  H   UNL     1      21.939 -20.523   0.140 -0.58 -0.00    +0.000 HD
DOCKED: ENDBRANCH  19  20
DOCKED: ENDBRANCH   3  18
DOCKED: TORSDOF 5
DOCKED: TER
DOCKED: ENDMDL
________________________________________________________________________________


	BEGINNING GENETIC ALGORITHM DOCKING 100 of 100
Run: 100 Seed: 201083441 1773623063 [ Run 100 of 100 GA/GALS ]
Beginning LAMARCKIAN GENETIC ALGORITHM (LGA), with a maximum of 2500000 energy evaluations.

Final-Value: -14.763


	FINAL GENETIC ALGORITHM DOCKED STATE
	_______________________________________________


Detailed state:  trans 23.870 -17.332 -3.018 quatxyzw 0.422911 -0.460426 0.748417 -0.221419 center 0.230 -0.012 -0.200 ntor 5 -120.8778 84.5421 149.3203 178.0983 -142.9224
State:	 23.870 -17.332  -3.018   0.434 -0.472  0.767 -154.415   -120.88   84.54  149.32  178.10 -142.92

DOCKED: MODEL      100
DOCKED: USER    Run = 100
DOCKED: USER    DPF = ligand_dock.biased.dpf
DOCKED: USER  
DOCKED: USER    Estimated Free Energy of Binding    =  -12.31 kcal/mol  [=(1)+(2)+(3)-(4)]
DOCKED: USER    Estimated Inhibition Constant, Ki   =  943.97 pM (picomolar)  [Temperature = 298.15 K]
DOCKED: USER    
DOCKED: USER    (1) Final Intermolecular Energy     =  -13.80 kcal/mol
DOCKED: USER        vdW + Hbond + desolv Energy     =  -13.80 kcal/mol
DOCKED: USER        Electrostatic Energy            =   +0.00 kcal/mol
DOCKED: USER    (2) Final Total Internal Energy     =   -0.96 kcal/mol
DOCKED: USER    (3) Torsional Free Energy           =   +1.49 kcal/mol
DOCKED: USER    (4) Unbound System's Energy  [=(2)] =   -0.96 kcal/mol
DOCKED: USER    
DOCKED: USER    
DOCKED: USER    NEWDPF move ligand.pdbqt
DOCKED: USER    NEWDPF about 0.230000 -0.012000 -0.200000
DOCKED: USER    NEWDPF tran0 23.869918 -17.331571 -3.017566
DOCKED: USER    NEWDPF quaternion0 0.422911 -0.460426 0.748417 -0.221419
DOCKED: USER    NEWDPF axisangle0 0.433675 -0.472145 0.767466 -154.415206
DOCKED: USER    NEWDPF quat0 0.433675 -0.472145 0.767466 -154.415206
DOCKED: USER    NEWDPF dihe0 -120.88 84.54 149.32 178.10 -142.92 
DOCKED: USER  keepresnum = 1 
DOCKED: USER  
DOCKED: REMARK  Name = 
DOCKED: REMARK  5 active torsions:
DOCKED: REMARK  status: ('A' for Active; 'I' for Inactive)
DOCKED: REMARK    1  A    between atoms: S_2  and  N_3
DOCKED: REMARK    2  A    between atoms: S_2  and  C_10
DOCKED: REMARK    3  A    between atoms: N_3  and  C_4
DOCKED: REMARK    4  A    between atoms: C_12  and  C_13
DOCKED: REMARK    5  A    between atoms: C_14  and  C_15
DOCKED: REMARK                            x       y       z     vdW  Elec       q    Type
DOCKED: REMARK                         _______ _______ _______ _____ _____    ______ ____
DOCKED: USER                              x       y       z     vdW  Elec       q    Type
DOCKED: USER                           _______ _______ _______ _____ _____    ______ ____
DOCKED: ROOT
DOCKED: ATOM      1  C   UNL     1      25.727 -16.399  -2.356 -0.48 -0.00    +0.000 A 
DOCKED: ATOM      2  C   UNL     1      24.382 -16.762  -2.203 -0.17 -0.00    +0.000 A 
DOCKED: ATOM      3  C   UNL     1      23.985 -17.615  -1.152 -0.67 -0.00    +0.000 A 
DOCKED: ATOM      4  C   UNL     1      24.964 -18.107  -0.272 -0.63 -0.00    +0.000 A 
DOCKED: ATOM      5  C   UNL     1      26.303 -17.736  -0.420 -0.55 -0.00    +0.000 A 
DOCKED: ATOM      6  C   UNL     1      26.685 -16.882  -1.456 -0.43 -0.00    +0.000 A 
DOCKED: ENDROOT
DOCKED: BRANCH   1   8
DOCKED: ATOM      7  O   UNL     1      25.555 -14.003  -3.565 -0.55 -0.00    +0.000 OA
DOCKED: ATOM      8  S   UNL     1      26.212 -15.350  -3.686 -0.66 -0.00    +0.000 S 
DOCKED: ATOM      9  O   UNL     1      25.791 -15.987  -4.980 -0.99 -0.00    +0.000 OA
DOCKED: BRANCH   8  10
DOCKED: ATOM     10  N   UNL     1      27.936 -15.140  -3.685 -0.26 -0.00    +0.000 N 
DOCKED: ATOM     11  H   UNL     1      28.362 -14.819  -2.858 +0.01 -0.00    +0.000 HD
DOCKED: BRANCH  10  12
DOCKED: ATOM     12  C   UNL     1      28.778 -15.408  -4.820 -0.29 -0.00    +0.000 A 
DOCKED: ATOM     13  C   UNL     1      28.797 -14.567  -5.950 -0.32 -0.00    +0.000 A 
DOCKED: ATOM     14  C   UNL     1      29.637 -14.854  -7.030 -0.29 -0.00    +0.000 A 
DOCKED: ATOM     15  C   UNL     1      30.460 -15.982  -6.999 -0.28 -0.00    +0.000 A 
DOCKED: ATOM     16  C   UNL     1      30.443 -16.826  -5.887 -0.28 -0.00    +0.000 A 
DOCKED: ATOM     17  C   UNL     1      29.606 -16.543  -4.805 -0.27 -0.00    +0.000 A 
DOCKED: ENDBRANCH  10  12
DOCKED: ENDBRANCH   8  10
DOCKED: ENDBRANCH   1   8
DOCKED: BRANCH   3  18
DOCKED: ATOM     18  C   UNL     1      22.578 -18.049  -0.962 -0.78 -0.00    +0.000 C 
DOCKED: ATOM     19  C   UNL     1      22.203 -19.332  -0.857 -0.76 -0.00    +0.000 C 
DOCKED: BRANCH  19  20
DOCKED: ATOM     20  C   UNL     1      20.800 -19.756  -0.666 -0.80 -0.00    +0.000 C 
DOCKED: ATOM     21  N   UNL     1      20.294 -20.183   0.604 -0.69 -0.00    +0.000 N 
DOCKED: ATOM     22  O   UNL     1      19.033 -20.662   0.705 -0.84 -0.00    +0.000 OA
DOCKED: ATOM     23  O   UNL     1      20.021 -19.716  -1.656 -2.31 -0.00    +0.000 OA
DOCKED: ATOM     24  H   UNL     1      20.865 -20.128   1.404 -0.50 -0.00    +0.000 HD
DOCKED: ENDBRANCH  19  20
DOCKED: ENDBRANCH   3  18
DOCKED: TORSDOF 5
DOCKED: TER
DOCKED: ENDMDL
________________________________________________________________________________

DPF>                           # do this many hybrid GA-LS runs

DPF> analysis                             # perform a ranked cluster analysis


		CLUSTER ANALYSIS OF CONFORMATIONS
		_________________________________

Number of conformations = 100

RMSD cluster analysis will be performed using the ligand atoms only (24 / 24 total atoms).

Outputting structurally similar clusters, ranked in order of increasing energy.


________________________________________________________________________________

Number of distinct conformational clusters found = 5,  out of 100 runs,
Using an rmsd-tolerance of 2.0 A


	CLUSTERING HISTOGRAM
	____________________

________________________________________________________________________________
     |           |     |           |     |                                    
Clus | Lowest    | Run | Mean      | Num | Histogram                          
-ter | Binding   |     | Binding   | in  |                                    
Rank | Energy    |     | Energy    | Clus|    5    10   15   20   25   30   35
_____|___________|_____|___________|_____|____:____|____:____|____:____|____:___
   1 |    -13.02 |  28 |    -12.11 |  10 |##########
   2 |    -12.99 |  84 |    -12.50 |  61 |#############################################################
   3 |    -12.33 |  92 |    -11.89 |  14 |##############
   4 |    -12.31 |  85 |    -12.14 |  12 |############
   5 |    -11.51 |  98 |    -11.36 |   3 |###
_____|___________|_____|___________|_____|______________________________________


Number of multi-member conformational clusters found = 5, out of 100 runs.

	RMSD TABLE
	__________

_____________________________________________________________________
     |      |      |           |         |                 |
Rank | Sub- | Run  | Binding   | Cluster | Reference       | Grep
     | Rank |      | Energy    | RMSD    | RMSD            | Pattern
_____|______|______|___________|_________|_________________|___________
   1      1     28      -13.02      0.00     28.37           RANKING
   1      2     30      -12.93      0.21     28.31           RANKING
   1      3      1      -12.87      0.40     28.28           RANKING
   1      4     77      -12.75      0.37     28.30           RANKING
   1      5     38      -11.98      0.63     28.41           RANKING
   1      6     25      -11.74      0.99     28.36           RANKING
   1      7     58      -11.65      0.71     28.50           RANKING
   1      8     97      -11.56      1.83     28.28           RANKING
   1      9     79      -11.43      1.84     28.39           RANKING
   1     10     95      -11.20      1.90     28.24           RANKING
   2      1     84      -12.99      0.00     28.72           RANKING
   2      2     94      -12.97      0.16     28.78           RANKING
   2      3     15      -12.97      0.24     28.79           RANKING
   2      4     53      -12.96      0.43     28.56           RANKING
   2      5     63      -12.95      0.24     28.77           RANKING
   2      6     12      -12.94      0.50     28.90           RANKING
   2      7     52      -12.94      0.13     28.75           RANKING
   2      8      5      -12.92      0.26     28.83           RANKING
   2      9     75      -12.92      0.32     28.79           RANKING
   2     10     56      -12.88      0.43     28.76           RANKING
   2     11     57      -12.87      0.20     28.74           RANKING
   2     12     20      -12.86      0.31     28.77           RANKING
   2     13     11      -12.86      0.39     28.60           RANKING
   2     14     55      -12.84      0.26     28.75           RANKING
   2     15     45      -12.81      0.35     28.72           RANKING
   2     16      9      -12.78      0.68     28.86           RANKING
   2     17     33      -12.78      0.67     28.85           RANKING
   2     18     49      -12.77      0.64     28.82           RANKING
   2     19     66      -12.75      0.44     28.73           RANKING
   2     20     54      -12.73      0.50     28.60           RANKING
   2     21     99      -12.69      0.72     28.92           RANKING
   2     22     35      -12.65      0.74     29.00           RANKING
   2     23     10      -12.63      0.76     28.82           RANKING
   2     24     21      -12.63      0.48     28.62           RANKING
   2     25     13      -12.62      0.48     28.54           RANKING
   2     26     60      -12.61      0.43     28.89           RANKING
   2     27     23      -12.60      0.58     28.78           RANKING
   2     28     65      -12.60      0.57     28.71           RANKING
   2     29     50      -12.59      0.58     28.78           RANKING
   2     30     43      -12.57      0.52     28.71           RANKING
   2     31     47      -12.50      1.01     28.61           RANKING
   2     32     18      -12.50      0.79     29.04           RANKING
   2     33      2      -12.48      0.69     28.82           RANKING
   2     34      8      -12.48      0.80     28.70           RANKING
   2     35     37      -12.47      0.69     28.65           RANKING
   2     36     32      -12.43      0.92     29.18           RANKING
   2     37      6      -12.41      1.20     29.40           RANKING
   2     38     36      -12.38      0.92     29.19           RANKING
   2     39     59      -12.35      1.20     29.43           RANKING
   2     40     41      -12.33      1.18     29.38           RANKING
   2     41     70      -12.32      1.10     28.52           RANKING
   2     42    100      -12.31      0.62     28.97           RANKING
   2     43     87      -12.30      1.01     28.39           RANKING
   2     44     72      -12.30      1.19     29.43           RANKING
   2     45     31      -12.28      1.22     29.47           RANKING
   2     46     51      -12.24      0.89     28.86           RANKING
   2     47     83      -12.20      1.09     28.28           RANKING
   2     48     61      -12.19      1.14     28.74           RANKING
   2     49     78      -12.19      1.05     29.27           RANKING
   2     50     24      -12.18      1.26     29.49           RANKING
   2     51     64      -12.17      1.19     28.25           RANKING
   2     52     40      -12.12      1.33     29.55           RANKING
   2     53     19      -12.10      1.21     28.84           RANKING
   2     54     62      -12.08      1.64     29.63           RANKING
   2     55      4      -12.01      1.32     29.56           RANKING
   2     56     68      -11.96      0.93     29.20           RANKING
   2     57     27      -11.93      1.73     29.76           RANKING
   2     58     26      -11.93      1.17     28.79           RANKING
   2     59     44      -11.87      0.97     28.32           RANKING
   2     60      7      -11.85      1.25     29.05           RANKING
   2     61     71      -11.83      1.22     28.71           RANKING
   3      1     92      -12.33      0.00     27.71           RANKING
   3      2     93      -12.21      0.26     27.78           RANKING
   3      3     91      -12.04      0.84     27.86           RANKING
   3      4      3      -12.00      1.97     27.87           RANKING
   3      5     81      -11.97      1.40     27.67           RANKING
   3      6     73      -11.96      0.78     27.99           RANKING
   3      7     67      -11.84      1.00     27.93           RANKING
   3      8     96      -11.82      1.17     27.74           RANKING
   3      9     42      -11.81      1.12     27.80           RANKING
   3     10     89      -11.77      1.11     27.83           RANKING
   3     11     86      -11.71      0.96     27.90           RANKING
   3     12     46      -11.71      0.75     27.83           RANKING
   3     13     80      -11.67      0.95     27.97           RANKING
   3     14     76      -11.57      1.11     28.03           RANKING
   4      1     85      -12.31      0.00     27.43           RANKING
   4      2     14      -12.22      0.90     27.65           RANKING
   4      3     16      -12.22      1.06     27.67           RANKING
   4      4     22      -12.19      1.25     27.87           RANKING
   4      5     88      -12.16      0.92     27.57           RANKING
   4      6     48      -12.16      1.69     28.00           RANKING
   4      7     17      -12.15      0.63     27.48           RANKING
   4      8     74      -12.13      1.60     27.94           RANKING
   4      9     90      -12.12      0.36     27.34           RANKING
   4     10     69      -12.10      0.83     27.34           RANKING
   4     11     29      -12.02      1.17     27.80           RANKING
   4     12     82      -11.95      1.29     27.85           RANKING
   5      1     98      -11.51      0.00     28.14           RANKING
   5      2     34      -11.35      0.37     28.38           RANKING
   5      3     39      -11.21      0.73     28.24           RANKING
_______________________________________________________________________



	INFORMATION ENTROPY ANALYSIS FOR THIS CLUSTERING
	________________________________________________


Information entropy for this clustering = 0.25  (rmstol = 2.00 Angstrom)

_______________________________________________________________________


	STATISTICAL MECHANICAL ANALYSIS
	_______________________________


Partition function, Q =   102.10            at Temperature, T = 298.15 K
Free energy,        A ~ -2740.77 kcal/mol   at Temperature, T = 298.15 K
Internal energy,    U =   -12.30 kcal/mol   at Temperature, T = 298.15 K
Entropy,            S =     9.15 kcal/mol/K at Temperature, T = 298.15 K

_______________________________________________________________________


	LOWEST ENERGY DOCKED CONFORMATION from EACH CLUSTER
	___________________________________________________



Keeping original residue number (specified in the input PDBQ file) for outputting.

MODEL       28
USER    Run = 28
USER    Cluster Rank = 1
USER    Number of conformations in this cluster = 10
USER  
USER    RMSD from reference structure       = 28.366 A
USER  
USER    Estimated Free Energy of Binding    =  -13.02 kcal/mol  [=(1)+(2)+(3)-(4)]
USER    Estimated Inhibition Constant, Ki   =  286.88 pM (picomolar)  [Temperature = 298.15 K]
USER    
USER    (1) Final Intermolecular Energy     =  -14.51 kcal/mol
USER        vdW + Hbond + desolv Energy     =  -14.51 kcal/mol
USER        Electrostatic Energy            =   +0.00 kcal/mol
USER    (2) Final Total Internal Energy     =   -0.90 kcal/mol
USER    (3) Torsional Free Energy           =   +1.49 kcal/mol
USER    (4) Unbound System's Energy  [=(2)] =   -0.90 kcal/mol
USER    
USER    
USER  
USER    DPF = ligand_dock.biased.dpf
USER    NEWDPF move	ligand.pdbqt
USER    NEWDPF about	0.230000 -0.012000 -0.200000
USER    NEWDPF tran0	25.020433 -14.880937 -0.859037
USER    NEWDPF axisangle0	0.519201 -0.835503 0.179900 166.683141
USER    NEWDPF quaternion0	0.515699 -0.829868 0.178687 0.115950
USER    NEWDPF dihe0	83.62 -9.46 -67.02 -101.19 154.45 
USER  
USER                              x       y       z    vdW   Elec        q     RMS 
ATOM      1  C   UNL     1      27.017 -15.300  -0.087 -0.30 -0.00    +0.000    28.366
ATOM      2  C   UNL     1      25.674 -15.619  -0.332 -0.06 -0.00    +0.000    28.366
ATOM      3  C   UNL     1      25.338 -16.723  -1.145 -0.54 -0.00    +0.000    28.366
ATOM      4  C   UNL     1      26.371 -17.484  -1.715 -0.23 -0.00    +0.000    28.366
ATOM      5  C   UNL     1      27.709 -17.170  -1.462 -0.32 -0.00    +0.000    28.366
ATOM      6  C   UNL     1      28.033 -16.084  -0.647 -0.29 -0.00    +0.000    28.366
ATOM      7  O   UNL     1      26.176 -13.214   1.388 -0.41 -0.00    +0.000    28.366
ATOM      8  S   UNL     1      27.423 -13.906   0.912 -0.36 -0.00    +0.000    28.366
ATOM      9  O   UNL     1      28.234 -12.945   0.091 -0.12 -0.00    +0.000    28.366
ATOM     10  N   UNL     1      28.353 -14.408   2.290 -0.28 -0.00    +0.000    28.366
ATOM     11  H   UNL     1      28.887 -15.232   2.212 -1.83 -0.00    +0.000    28.366
ATOM     12  C   UNL     1      28.390 -13.694   3.538 -0.34 -0.00    +0.000    28.366
ATOM     13  C   UNL     1      28.049 -12.330   3.627 -0.26 -0.00    +0.000    28.366
ATOM     14  C   UNL     1      28.087 -11.671   4.860 -0.33 +0.00    +0.000    28.366
ATOM     15  C   UNL     1      28.468 -12.361   6.013 -0.37 -0.00    +0.000    28.366
ATOM     16  C   UNL     1      28.815 -13.711   5.934 -0.38 -0.00    +0.000    28.366
ATOM     17  C   UNL     1      28.779 -14.374   4.704 -0.45 -0.00    +0.000    28.366
ATOM     18  C   UNL     1      23.933 -17.088  -1.455 -0.65 -0.00    +0.000    28.366
ATOM     19  C   UNL     1      23.198 -17.924  -0.707 -0.81 -0.00    +0.000    28.366
ATOM     20  C   UNL     1      21.800 -18.282  -1.022 -0.76 -0.00    +0.000    28.366
ATOM     21  N   UNL     1      21.446 -19.525  -1.642 -0.60 -0.00    +0.000    28.366
ATOM     22  O   UNL     1      20.165 -19.760  -2.006 -2.35 -0.00    +0.000    28.366
ATOM     23  O   UNL     1      20.888 -17.469  -0.712 -2.06 +0.00    +0.000    28.366
ATOM     24  H   UNL     1      22.137 -20.208  -1.802 -0.45 -0.00    +0.000    28.366
TER
ENDMDL
MODEL       84
USER    Run = 84
USER    Cluster Rank = 2
USER    Number of conformations in this cluster = 61
USER  
USER    RMSD from reference structure       = 28.722 A
USER  
USER    Estimated Free Energy of Binding    =  -12.99 kcal/mol  [=(1)+(2)+(3)-(4)]
USER    Estimated Inhibition Constant, Ki   =  302.16 pM (picomolar)  [Temperature = 298.15 K]
USER    
USER    (1) Final Intermolecular Energy     =  -14.48 kcal/mol
USER        vdW + Hbond + desolv Energy     =  -14.48 kcal/mol
USER        Electrostatic Energy            =   +0.00 kcal/mol
USER    (2) Final Total Internal Energy     =   -1.00 kcal/mol
USER    (3) Torsional Free Energy           =   +1.49 kcal/mol
USER    (4) Unbound System's Energy  [=(2)] =   -1.00 kcal/mol
USER    
USER    
USER  
USER    DPF = ligand_dock.biased.dpf
USER    NEWDPF move	ligand.pdbqt
USER    NEWDPF about	0.230000 -0.012000 -0.200000
USER    NEWDPF tran0	23.843005 -17.512766 -2.795002
USER    NEWDPF axisangle0	-0.513303 0.409193 -0.754375 155.672952
USER    NEWDPF quaternion0	-0.501780 0.400006 -0.737439 0.210703
USER    NEWDPF dihe0	-44.45 110.56 74.77 173.66 -154.35 
USER  
USER                              x       y       z    vdW   Elec        q     RMS 
ATOM      1  C   UNL     1      25.630 -16.314  -2.436 -0.49 -0.00    +0.000    28.722
ATOM      2  C   UNL     1      24.382 -16.844  -2.079 -0.30 -0.00    +0.000    28.722
ATOM      3  C   UNL     1      24.258 -17.693  -0.959 -0.67 -0.00    +0.000    28.722
ATOM      4  C   UNL     1      25.409 -18.010  -0.219 -0.60 -0.00    +0.000    28.722
ATOM      5  C   UNL     1      26.650 -17.474  -0.571 -0.51 -0.00    +0.000    28.722
ATOM      6  C   UNL     1      26.762 -16.625  -1.673 -0.40 -0.00    +0.000    28.722
ATOM      7  O   UNL     1      24.759 -14.165  -3.798 -1.03 -0.00    +0.000    28.722
ATOM      8  S   UNL     1      25.774 -15.273  -3.850 -0.72 -0.00    +0.000    28.722
ATOM      9  O   UNL     1      25.536 -16.098  -5.082 -0.93 -0.00    +0.000    28.722
ATOM     10  N   UNL     1      27.364 -14.580  -3.924 -0.29 -0.00    +0.000    28.722
ATOM     11  H   UNL     1      27.666 -14.033  -3.162 +0.01 -0.00    +0.000    28.722
ATOM     12  C   UNL     1      28.268 -14.757  -5.029 -0.31 -0.00    +0.000    28.722
ATOM     13  C   UNL     1      28.414 -13.783  -6.036 -0.28 -0.00    +0.000    28.722
ATOM     14  C   UNL     1      29.310 -13.985  -7.090 -0.29 -0.00    +0.000    28.722
ATOM     15  C   UNL     1      30.063 -15.159  -7.155 -0.26 -0.00    +0.000    28.722
ATOM     16  C   UNL     1      29.921 -16.135  -6.166 -0.31 -0.00    +0.000    28.722
ATOM     17  C   UNL     1      29.027 -15.936  -5.110 -0.30 -0.00    +0.000    28.722
ATOM     18  C   UNL     1      22.965 -18.298  -0.555 -0.83 -0.00    +0.000    28.722
ATOM     19  C   UNL     1      22.172 -18.987  -1.389 -0.73 -0.00    +0.000    28.722
ATOM     20  C   UNL     1      20.886 -19.588  -0.978 -0.82 -0.00    +0.000    28.722
ATOM     21  N   UNL     1      20.621 -19.984   0.374 -0.69 -0.00    +0.000    28.722
ATOM     22  O   UNL     1      19.471 -20.627   0.678 -0.85 -0.00    +0.000    28.722
ATOM     23  O   UNL     1      19.986 -19.734  -1.849 -2.39 -0.00    +0.000    28.722
ATOM     24  H   UNL     1      21.278 -19.788   1.080 -0.49 -0.00    +0.000    28.722
TER
ENDMDL
MODEL       92
USER    Run = 92
USER    Cluster Rank = 3
USER    Number of conformations in this cluster = 14
USER  
USER    RMSD from reference structure       = 27.709 A
USER  
USER    Estimated Free Energy of Binding    =  -12.33 kcal/mol  [=(1)+(2)+(3)-(4)]
USER    Estimated Inhibition Constant, Ki   =  920.45 pM (picomolar)  [Temperature = 298.15 K]
USER    
USER    (1) Final Intermolecular Energy     =  -13.82 kcal/mol
USER        vdW + Hbond + desolv Energy     =  -13.82 kcal/mol
USER        Electrostatic Energy            =   +0.00 kcal/mol
USER    (2) Final Total Internal Energy     =   -1.08 kcal/mol
USER    (3) Torsional Free Energy           =   +1.49 kcal/mol
USER    (4) Unbound System's Energy  [=(2)] =   -1.08 kcal/mol
USER    
USER    
USER  
USER    DPF = ligand_dock.biased.dpf
USER    NEWDPF move	ligand.pdbqt
USER    NEWDPF about	0.230000 -0.012000 -0.200000
USER    NEWDPF tran0	23.804250 -17.443660 -2.607460
USER    NEWDPF axisangle0	0.516872 -0.462113 0.720621 -156.156988
USER    NEWDPF quaternion0	0.505724 -0.452146 0.705078 -0.206571
USER    NEWDPF dihe0	-39.67 -125.41 78.09 -4.64 176.61 
USER  
USER                              x       y       z    vdW   Elec        q     RMS 
ATOM      1  C   UNL     1      25.660 -16.393  -2.150 -0.49 -0.00    +0.000    27.709
ATOM      2  C   UNL     1      24.387 -16.888  -1.833 -0.52 -0.00    +0.000    27.709
ATOM      3  C   UNL     1      24.226 -17.845  -0.809 -0.68 -0.00    +0.000    27.709
ATOM      4  C   UNL     1      25.365 -18.305  -0.126 -0.58 -0.00    +0.000    27.709
ATOM      5  C   UNL     1      26.631 -17.804  -0.438 -0.52 -0.00    +0.000    27.709
ATOM      6  C   UNL     1      26.780 -16.848  -1.443 -0.42 -0.00    +0.000    27.709
ATOM      7  O   UNL     1      24.555 -14.492  -3.698 -0.89 -0.00    +0.000    27.709
ATOM      8  S   UNL     1      25.850 -15.214  -3.445 -0.68 -0.00    +0.000    27.709
ATOM      9  O   UNL     1      26.262 -15.935  -4.697 -0.86 -0.00    +0.000    27.709
ATOM     10  N   UNL     1      27.071 -14.054  -3.024 -0.24 -0.00    +0.000    27.709
ATOM     11  H   UNL     1      27.837 -13.947  -3.634 +0.00 -0.00    +0.000    27.709
ATOM     12  C   UNL     1      27.032 -13.240  -1.839 -0.16 -0.00    +0.000    27.709
ATOM     13  C   UNL     1      27.370 -11.872  -1.862 -0.10 -0.00    +0.000    27.709
ATOM     14  C   UNL     1      27.310 -11.110  -0.691 -0.11 -0.00    +0.000    27.709
ATOM     15  C   UNL     1      26.919 -11.701   0.512 -0.20 +0.00    +0.000    27.709
ATOM     16  C   UNL     1      26.589 -13.057   0.547 -0.28 -0.00    +0.000    27.709
ATOM     17  C   UNL     1      26.647 -13.823  -0.621 -0.24 -0.00    +0.000    27.709
ATOM     18  C   UNL     1      22.905 -18.418  -0.451 -0.83 -0.00    +0.000    27.709
ATOM     19  C   UNL     1      22.093 -19.023  -1.331 -0.74 -0.00    +0.000    27.709
ATOM     20  C   UNL     1      20.779 -19.593  -0.967 -0.84 -0.00    +0.000    27.709
ATOM     21  N   UNL     1      20.449 -19.961   0.378 -0.71 -0.00    +0.000    27.709
ATOM     22  O   UNL     1      19.273 -20.576   0.642 -0.86 -0.00    +0.000    27.709
ATOM     23  O   UNL     1      19.915 -19.735  -1.873 -2.39 -0.00    +0.000    27.709
ATOM     24  H   UNL     1      21.078 -19.767   1.109 -0.48 -0.00    +0.000    27.709
TER
ENDMDL
MODEL       85
USER    Run = 85
USER    Cluster Rank = 4
USER    Number of conformations in this cluster = 12
USER  
USER    RMSD from reference structure       = 27.428 A
USER  
USER    Estimated Free Energy of Binding    =  -12.31 kcal/mol  [=(1)+(2)+(3)-(4)]
USER    Estimated Inhibition Constant, Ki   =  953.39 pM (picomolar)  [Temperature = 298.15 K]
USER    
USER    (1) Final Intermolecular Energy     =  -13.80 kcal/mol
USER        vdW + Hbond + desolv Energy     =  -13.80 kcal/mol
USER        Electrostatic Energy            =   +0.00 kcal/mol
USER    (2) Final Total Internal Energy     =   -0.93 kcal/mol
USER    (3) Torsional Free Energy           =   +1.49 kcal/mol
USER    (4) Unbound System's Energy  [=(2)] =   -0.93 kcal/mol
USER    
USER    
USER  
USER    DPF = ligand_dock.biased.dpf
USER    NEWDPF move	ligand.pdbqt
USER    NEWDPF about	0.230000 -0.012000 -0.200000
USER    NEWDPF tran0	24.092308 -16.898970 -3.082900
USER    NEWDPF axisangle0	-0.490623 0.429544 -0.758143 145.829843
USER    NEWDPF quaternion0	-0.468972 0.410588 -0.724686 0.293791
USER    NEWDPF dihe0	-148.75 -15.74 116.06 163.80 75.78 
USER  
USER                              x       y       z    vdW   Elec        q     RMS 
ATOM      1  C   UNL     1      26.061 -15.990  -2.849 -0.45 -0.00    +0.000    27.428
ATOM      2  C   UNL     1      24.756 -16.280  -2.429 -0.25 -0.00    +0.000    27.428
ATOM      3  C   UNL     1      24.531 -17.018  -1.248 -0.60 -0.00    +0.000    27.428
ATOM      4  C   UNL     1      25.638 -17.469  -0.510 -0.57 -0.00    +0.000    27.428
ATOM      5  C   UNL     1      26.939 -17.171  -0.925 -0.45 -0.00    +0.000    27.428
ATOM      6  C   UNL     1      27.151 -16.430  -2.089 -0.33 -0.00    +0.000    27.428
ATOM      7  O   UNL     1      26.169 -15.981  -5.537 -1.10 +0.00    +0.000    27.428
ATOM      8  S   UNL     1      26.328 -15.086  -4.339 -0.68 -0.00    +0.000    27.428
ATOM      9  O   UNL     1      27.723 -14.531  -4.322 -0.31 -0.00    +0.000    27.428
ATOM     10  N   UNL     1      25.193 -13.778  -4.455 -0.44 -0.00    +0.000    27.428
ATOM     11  H   UNL     1      24.244 -14.000  -4.597 -0.44 -0.00    +0.000    27.428
ATOM     12  C   UNL     1      25.555 -12.389  -4.357 -0.26 -0.00    +0.000    27.428
ATOM     13  C   UNL     1      26.679 -11.962  -3.622 -0.17 -0.00    +0.000    27.428
ATOM     14  C   UNL     1      27.005 -10.604  -3.557 -0.12 -0.00    +0.000    27.428
ATOM     15  C   UNL     1      26.216  -9.659  -4.217 -0.16 -0.00    +0.000    27.428
ATOM     16  C   UNL     1      25.096 -10.072  -4.942 -0.32 -0.00    +0.000    27.428
ATOM     17  C   UNL     1      24.766 -11.428  -5.010 -0.35 -0.00    +0.000    27.428
ATOM     18  C   UNL     1      23.170 -17.373  -0.773 -0.74 -0.00    +0.000    27.428
ATOM     19  C   UNL     1      22.556 -18.528  -1.070 -0.82 -0.00    +0.000    27.428
ATOM     20  C   UNL     1      21.202 -18.875  -0.592 -0.86 -0.00    +0.000    27.428
ATOM     21  N   UNL     1      20.905 -20.133   0.025 -0.65 -0.00    +0.000    27.428
ATOM     22  O   UNL     1      19.628 -20.444   0.349 -0.98 -0.00    +0.000    27.428
ATOM     23  O   UNL     1      20.285 -18.019  -0.715 -2.20 -0.00    +0.000    27.428
ATOM     24  H   UNL     1      21.630 -20.771   0.214 -0.56 -0.00    +0.000    27.428
TER
ENDMDL
MODEL       98
USER    Run = 98
USER    Cluster Rank = 5
USER    Number of conformations in this cluster = 3
USER  
USER    RMSD from reference structure       = 28.142 A
USER  
USER    Estimated Free Energy of Binding    =  -11.51 kcal/mol  [=(1)+(2)+(3)-(4)]
USER    Estimated Inhibition Constant, Ki   =    3.67 nM (nanomolar)  [Temperature = 298.15 K]
USER    
USER    (1) Final Intermolecular Energy     =  -13.00 kcal/mol
USER        vdW + Hbond + desolv Energy     =  -13.00 kcal/mol
USER        Electrostatic Energy            =   +0.00 kcal/mol
USER    (2) Final Total Internal Energy     =   -1.33 kcal/mol
USER    (3) Torsional Free Energy           =   +1.49 kcal/mol
USER    (4) Unbound System's Energy  [=(2)] =   -1.33 kcal/mol
USER    
USER    
USER  
USER    DPF = ligand_dock.biased.dpf
USER    NEWDPF move	ligand.pdbqt
USER    NEWDPF about	0.230000 -0.012000 -0.200000
USER    NEWDPF tran0	24.991145 -15.514615 -1.769412
USER    NEWDPF axisangle0	0.439115 -0.753936 0.488630 173.676445
USER    NEWDPF quaternion0	0.438447 -0.752788 0.487886 0.055155
USER    NEWDPF dihe0	58.34 69.65 -86.80 64.88 -50.28 
USER  
USER                              x       y       z    vdW   Elec        q     RMS 
ATOM      1  C   UNL     1      26.649 -15.530  -0.352 -0.33 -0.00    +0.000    28.142
ATOM      2  C   UNL     1      25.350 -15.855  -0.767 -0.35 -0.00    +0.000    28.142
ATOM      3  C   UNL     1      24.964 -17.203  -0.920 -0.59 -0.00    +0.000    28.142
ATOM      4  C   UNL     1      25.908 -18.212  -0.666 -0.57 -0.00    +0.000    28.142
ATOM      5  C   UNL     1      27.200 -17.886  -0.244 -0.31 -0.00    +0.000    28.142
ATOM      6  C   UNL     1      27.570 -16.550  -0.083 -0.32 -0.00    +0.000    28.142
ATOM      7  O   UNL     1      28.258 -13.704   0.792 -0.19 -0.00    +0.000    28.142
ATOM      8  S   UNL     1      27.125 -13.841  -0.186 -0.33 -0.00    +0.000    28.142
ATOM      9  O   UNL     1      25.946 -13.057   0.315 -0.37 -0.00    +0.000    28.142
ATOM     10  N   UNL     1      27.623 -13.206  -1.723 -0.14 -0.00    +0.000    28.142
ATOM     11  H   UNL     1      28.086 -12.337  -1.736 +0.00 -0.00    +0.000    28.142
ATOM     12  C   UNL     1      27.402 -13.873  -2.978 -0.20 -0.00    +0.000    28.142
ATOM     13  C   UNL     1      26.110 -14.228  -3.416 -0.39 -0.00    +0.000    28.142
ATOM     14  C   UNL     1      25.933 -14.866  -4.647 -0.43 -0.00    +0.000    28.142
ATOM     15  C   UNL     1      27.036 -15.162  -5.451 -0.27 +0.00    +0.000    28.142
ATOM     16  C   UNL     1      28.321 -14.821  -5.023 -0.31 -0.00    +0.000    28.142
ATOM     17  C   UNL     1      28.503 -14.182  -3.793 -0.15 -0.00    +0.000    28.142
ATOM     18  C   UNL     1      23.609 -17.600  -1.380 -0.71 -0.00    +0.000    28.142
ATOM     19  C   UNL     1      22.694 -18.178  -0.588 -0.83 -0.00    +0.000    28.142
ATOM     20  C   UNL     1      21.347 -18.568  -1.053 -0.79 -0.00    +0.000    28.142
ATOM     21  N   UNL     1      21.120 -19.732  -1.857 -0.59 -0.00    +0.000    28.142
ATOM     22  O   UNL     1      19.884 -19.988  -2.345 -2.12 -0.00    +0.000    28.142
ATOM     23  O   UNL     1      20.364 -17.860  -0.706 -2.24 +0.00    +0.000    28.142
ATOM     24  H   UNL     1      21.864 -20.346  -2.055 -0.48 -0.00    +0.000    28.142
TER
ENDMDL


AVSFLD: # AVS field file
AVSFLD: #
AVSFLD: # Created by AutoDock
AVSFLD: #
AVSFLD: ndim=2           # number of dimensions in the field
AVSFLD: nspace=1         # number of physical coordinates
AVSFLD: veclen=7         # vector size
AVSFLD: dim1=24          # atoms
AVSFLD: dim2=5           # conformations
AVSFLD: data=Real       # data type (byte,integer,Real,double)
AVSFLD: field=uniform    # field coordinate layout
AVSFLD: label= x y z vdW Elec q RMS
AVSFLD: variable 1 file = ligand_dock.biased.dlg.pdb filetype = ascii offset = 5 stride = 12
AVSFLD: variable 2 file = ligand_dock.biased.dlg.pdb filetype = ascii offset = 6 stride = 12
AVSFLD: variable 3 file = ligand_dock.biased.dlg.pdb filetype = ascii offset = 7 stride = 12
AVSFLD: variable 4 file = ligand_dock.biased.dlg.pdb filetype = ascii offset = 8 stride = 12
AVSFLD: variable 5 file = ligand_dock.biased.dlg.pdb filetype = ascii offset = 9 stride = 12
AVSFLD: variable 6 file = ligand_dock.biased.dlg.pdb filetype = ascii offset = 10 stride = 12
AVSFLD: variable 7 file = ligand_dock.biased.dlg.pdb filetype = ascii offset = 11 stride = 12
AVSFLD: # end of file

>>> Closing the docking parameter file (DPF)...
This docking finished at:			11:16 21" a.m., 11/08/2024


________________________________________________________________________________

autodock4: Successful Completion on "ThinkStation-P620"

Real= 11m 02.54s,  CPU= 11m 02.26s,  System= 0.19s
________________________________________________________________________________

