REMARK  Name = 
REMARK  8 active torsions:
REMARK  status: ('A' for Active; 'I' for Inactive)
REMARK    1  A    between atoms: C_2  and  C_3
REMARK    2  A    between atoms: C_4  and  C_5
REMARK    3  A    between atoms: C_8  and  C_9
REMARK    4  A    between atoms: C_9  and  N_10
REMARK    5  A    between atoms: N_10  and  C_11
REMARK    6  A    between atoms: C_11  and  C_12
REMARK    7  A    between atoms: C_12  and  C_13
REMARK    8  A    between atoms: C_14  and  C_22
REMARK                            x       y       z     vdW  Elec       q    Type
REMARK                         _______ _______ _______ _____ _____    ______ ____
ROOT
ATOM      1  N   UNL     1      -0.122   0.063   0.457  0.00  0.00    +0.000 N 
ATOM      2  H   UNL     1       0.380   0.688   1.088  0.00  0.00    +0.000 HD
ATOM      3  H   UNL     1      -0.122  -0.896   0.804  0.00  0.00    +0.000 HD
ENDROOT
BRANCH   1   4
ATOM      4  C   UNL     1       0.554   0.068  -0.847  0.00  0.00    +0.000 C 
BRANCH   4   8
ATOM      5  C   UNL     1       4.809  -0.320  -0.175  0.00  0.00    +0.000 A 
ATOM      6  C   UNL     1       4.196   0.949  -0.176  0.00  0.00    +0.000 A 
ATOM      7  C   UNL     1       2.822   1.073  -0.405  0.00  0.00    +0.000 A 
ATOM      8  C   UNL     1       2.037  -0.065  -0.641  0.00  0.00    +0.000 A 
ATOM      9  C   UNL     1       2.637  -1.332  -0.609  0.00  0.00    +0.000 A 
ATOM     10  C   UNL     1       4.010  -1.457  -0.378  0.00  0.00    +0.000 A 
BRANCH   5  12
ATOM     11  C   UNL     1       7.178   0.451  -0.114  0.00  0.00    +0.000 C 
ATOM     12  C   UNL     1       6.259  -0.508   0.078  0.00  0.00    +0.000 C 
BRANCH  11  14
ATOM     13  O   UNL     1       9.353   1.277   0.241  0.00  0.00    +0.000 OA
ATOM     14  C   UNL     1       8.620   0.257   0.141  0.00  0.00    +0.000 C 
ATOM     15  N   UNL     1       9.213  -1.043   0.249  0.00  0.00    +0.000 N 
ATOM     16  O   UNL     1      10.517  -1.168   0.589  0.00  0.00    +0.000 OA
ATOM     17  H   UNL     1       8.670  -1.846   0.076  0.00  0.00    +0.000 HD
ENDBRANCH  11  14
ENDBRANCH   5  12
ENDBRANCH   4   8
ENDBRANCH   1   4
BRANCH   1  18
ATOM     18  C   UNL     1      -1.521   0.508   0.364  0.00  0.00    +0.000 C 
BRANCH  18  19
ATOM     19  C   UNL     1      -2.430  -0.544  -0.290  0.00  0.00    +0.000 C 
BRANCH  19  20
ATOM     20  C   UNL     1      -3.861  -0.086  -0.267  0.00  0.00    +0.000 A 
ATOM     21  C   UNL     1      -4.531   0.651  -1.244  0.00  0.00    +0.000 A 
ATOM     22  N   UNL     1      -5.794   0.935  -0.848  0.00  0.00    +0.000 N 
ATOM     23  C   UNL     1      -5.921   0.404   0.380  0.00  0.00    +0.000 A 
ATOM     24  C   UNL     1      -4.763  -0.220   0.771  0.00  0.00    +0.000 A 
ATOM     25  C   UNL     1      -4.644  -0.829   2.021  0.00  0.00    +0.000 A 
ATOM     26  C   UNL     1      -5.759  -0.794   2.878  0.00  0.00    +0.000 A 
ATOM     27  C   UNL     1      -6.952  -0.156   2.474  0.00  0.00    +0.000 A 
ATOM     28  C   UNL     1      -7.041   0.455   1.209  0.00  0.00    +0.000 A 
ATOM     29  C   UNL     1      -3.965   1.068  -2.565  0.00  0.00    +0.000 C 
ATOM     30  H   UNL     1      -6.478   1.430  -1.355  0.00  0.00    +0.000 HD
ENDBRANCH  19  20
ENDBRANCH  18  19
ENDBRANCH   1  18
TORSDOF 7
