          AutoDock 4.2 Release 4.2.6   
         (C) 1989-2012 The Scripps Research Institute
        AutoDock comes with ABSOLUTELY NO WARRANTY.
        AutoDock is free software, and you are welcome
        to redistribute it under certain conditions;
        for details type 'autodock4 -C'

                     main.cc  $Revision: 1.213 $

                   Compiled on Feb 20 2022 at 09:48:33


This file was created at:			11:05 18" a.m., 11/08/2024
                   on host:		"ThinkStation-P620"
Current Working Directory = "/home/antonio/Documenti/buccheri/IDROSSAMICO HDAC/HDAC 2/DP/Ligand_1"

      ________________________________________________________________

                   SETTING UP DEFAULT PARAMETER LIBRARY
      ________________________________________________________________


Random number generator was seeded with values 333832, 1731060318.
Docking parameter file (DPF) used for this docking:		ligand_dock.biased.dpf
DPF> autodock_parameter_version 4.2       # used by autodock to validate parameter set

	Autodock parameter version 4.2.
DPF> outlev 1                             # diagnostic output level

Output Level = 1  ADT-COMPATIBLE OUTPUT DURING DOCKING.
DPF> intelec                              # calculate internal electrostatics

Electrostatic energies will be calculated for all non-bonds between moving atoms.
DPF> seed pid time                        # seeds for random generator

Random number generator was seeded with values 333832, 1731060318.
DPF> ligand_types A C OA HD N             # atoms types in ligand

DPF> fld receptor.maps.fld                # grid_data_file

Opening Grid Map Dimensions file:		receptor.maps.fld
Grid Point Spacing =				0.375 Angstroms

Even Number of User-specified Grid Points =	70 x-points
						70 y-points
						70 z-points

Coordinates of Central Grid Point of Maps =	(24.757, -16.735, 0.794)
Macromolecule file used to create Grid Maps =	receptor.pdbqt
Grid Parameter file used to create Grid Maps =	receptor.gpf
Minimum coordinates in grid = (11.632, -29.860, -12.331)
Maximum coordinates in grid = (37.882, -3.610, 13.919)

DPF> map receptor.A.map                   # atom-specific affinity map

DPF> map receptor.C.map                   # atom-specific affinity map

DPF> map receptor.OA.biased.map

DPF> map receptor.HD.biased.map

DPF> map receptor.N.map                   # atom-specific affinity map

DPF> elecmap receptor.e.map               # electrostatics map

DPF> desolvmap receptor.d.map             # desolvation map

DPF> move ligand.pdbqt                    # small molecule

1,4-interactions will be _ignored_ in the non-bonded internal energy calculation.

Ligand PDBQT file = "ligand.pdbqt"

INPUT LIGAND PDBQT FILE:
________________________

INPUT-LIGAND-PDBQT: REMARK  Name = 
INPUT-LIGAND-PDBQT: REMARK  8 active torsions:
INPUT-LIGAND-PDBQT: REMARK  status: ('A' for Active; 'I' for Inactive)
INPUT-LIGAND-PDBQT: REMARK    1  A    between atoms: C_2  and  C_3
INPUT-LIGAND-PDBQT: REMARK    2  A    between atoms: C_4  and  C_5
INPUT-LIGAND-PDBQT: REMARK    3  A    between atoms: C_8  and  C_9
INPUT-LIGAND-PDBQT: REMARK    4  A    between atoms: C_9  and  N_10
INPUT-LIGAND-PDBQT: REMARK    5  A    between atoms: N_10  and  C_11
INPUT-LIGAND-PDBQT: REMARK    6  A    between atoms: C_11  and  C_12
INPUT-LIGAND-PDBQT: REMARK    7  A    between atoms: C_12  and  C_13
INPUT-LIGAND-PDBQT: REMARK    8  A    between atoms: C_14  and  C_22
INPUT-LIGAND-PDBQT: REMARK                            x       y       z     vdW  Elec       q    Type
INPUT-LIGAND-PDBQT: REMARK                         _______ _______ _______ _____ _____    ______ ____
INPUT-LIGAND-PDBQT: ROOT
INPUT-LIGAND-PDBQT: ATOM      1  N   UNL     1      -0.122   0.063   0.457  0.00  0.00    +0.000 N 
INPUT-LIGAND-PDBQT: ATOM      2  H   UNL     1       0.380   0.688   1.088  0.00  0.00    +0.000 HD
INPUT-LIGAND-PDBQT: ATOM      3  H   UNL     1      -0.122  -0.896   0.804  0.00  0.00    +0.000 HD
INPUT-LIGAND-PDBQT: ENDROOT
INPUT-LIGAND-PDBQT: BRANCH   1   4
INPUT-LIGAND-PDBQT: ATOM      4  C   UNL     1       0.554   0.068  -0.847  0.00  0.00    +0.000 C 
INPUT-LIGAND-PDBQT: BRANCH   4   8
INPUT-LIGAND-PDBQT: ATOM      5  C   UNL     1       4.809  -0.320  -0.175  0.00  0.00    +0.000 A 
INPUT-LIGAND-PDBQT: ATOM      6  C   UNL     1       4.196   0.949  -0.176  0.00  0.00    +0.000 A 
INPUT-LIGAND-PDBQT: ATOM      7  C   UNL     1       2.822   1.073  -0.405  0.00  0.00    +0.000 A 
INPUT-LIGAND-PDBQT: ATOM      8  C   UNL     1       2.037  -0.065  -0.641  0.00  0.00    +0.000 A 
INPUT-LIGAND-PDBQT: ATOM      9  C   UNL     1       2.637  -1.332  -0.609  0.00  0.00    +0.000 A 
INPUT-LIGAND-PDBQT: ATOM     10  C   UNL     1       4.010  -1.457  -0.378  0.00  0.00    +0.000 A 
INPUT-LIGAND-PDBQT: BRANCH   5  12
INPUT-LIGAND-PDBQT: ATOM     11  C   UNL     1       7.178   0.451  -0.114  0.00  0.00    +0.000 C 
INPUT-LIGAND-PDBQT: ATOM     12  C   UNL     1       6.259  -0.508   0.078  0.00  0.00    +0.000 C 
INPUT-LIGAND-PDBQT: BRANCH  11  14
INPUT-LIGAND-PDBQT: ATOM     13  O   UNL     1       9.353   1.277   0.241  0.00  0.00    +0.000 OA
INPUT-LIGAND-PDBQT: ATOM     14  C   UNL     1       8.620   0.257   0.141  0.00  0.00    +0.000 C 
INPUT-LIGAND-PDBQT: ATOM     15  N   UNL     1       9.213  -1.043   0.249  0.00  0.00    +0.000 N 
INPUT-LIGAND-PDBQT: ATOM     16  O   UNL     1      10.517  -1.168   0.589  0.00  0.00    +0.000 OA
INPUT-LIGAND-PDBQT: ATOM     17  H   UNL     1       8.670  -1.846   0.076  0.00  0.00    +0.000 HD
INPUT-LIGAND-PDBQT: ENDBRANCH  11  14
INPUT-LIGAND-PDBQT: ENDBRANCH   5  12
INPUT-LIGAND-PDBQT: ENDBRANCH   4   8
INPUT-LIGAND-PDBQT: ENDBRANCH   1   4
INPUT-LIGAND-PDBQT: BRANCH   1  18
INPUT-LIGAND-PDBQT: ATOM     18  C   UNL     1      -1.521   0.508   0.364  0.00  0.00    +0.000 C 
INPUT-LIGAND-PDBQT: BRANCH  18  19
INPUT-LIGAND-PDBQT: ATOM     19  C   UNL     1      -2.430  -0.544  -0.290  0.00  0.00    +0.000 C 
INPUT-LIGAND-PDBQT: BRANCH  19  20
INPUT-LIGAND-PDBQT: ATOM     20  C   UNL     1      -3.861  -0.086  -0.267  0.00  0.00    +0.000 A 
INPUT-LIGAND-PDBQT: ATOM     21  C   UNL     1      -4.531   0.651  -1.244  0.00  0.00    +0.000 A 
INPUT-LIGAND-PDBQT: ATOM     22  N   UNL     1      -5.794   0.935  -0.848  0.00  0.00    +0.000 N 
INPUT-LIGAND-PDBQT: ATOM     23  C   UNL     1      -5.921   0.404   0.380  0.00  0.00    +0.000 A 
INPUT-LIGAND-PDBQT: ATOM     24  C   UNL     1      -4.763  -0.220   0.771  0.00  0.00    +0.000 A 
INPUT-LIGAND-PDBQT: ATOM     25  C   UNL     1      -4.644  -0.829   2.021  0.00  0.00    +0.000 A 
INPUT-LIGAND-PDBQT: ATOM     26  C   UNL     1      -5.759  -0.794   2.878  0.00  0.00    +0.000 A 
INPUT-LIGAND-PDBQT: ATOM     27  C   UNL     1      -6.952  -0.156   2.474  0.00  0.00    +0.000 A 
INPUT-LIGAND-PDBQT: ATOM     28  C   UNL     1      -7.041   0.455   1.209  0.00  0.00    +0.000 A 
INPUT-LIGAND-PDBQT: ATOM     29  C   UNL     1      -3.965   1.068  -2.565  0.00  0.00    +0.000 C 
INPUT-LIGAND-PDBQT: ATOM     30  H   UNL     1      -6.478   1.430  -1.355  0.00  0.00    +0.000 HD
INPUT-LIGAND-PDBQT: ENDBRANCH  19  20
INPUT-LIGAND-PDBQT: ENDBRANCH  18  19
INPUT-LIGAND-PDBQT: ENDBRANCH   1  18
INPUT-LIGAND-PDBQT: TORSDOF 7
________________________________________________________________________________

Total charge on ligand                               =	+0.000 e
REMARK  Name = 
REMARK  8 active torsions:
REMARK  status: ('A' for Active; 'I' for Inactive)
REMARK    1  A    between atoms: C_2  and  C_3
REMARK    2  A    between atoms: C_4  and  C_5
REMARK    3  A    between atoms: C_8  and  C_9
REMARK    4  A    between atoms: C_9  and  N_10
REMARK    5  A    between atoms: N_10  and  C_11
REMARK    6  A    between atoms: C_11  and  C_12
REMARK    7  A    between atoms: C_12  and  C_13
REMARK    8  A    between atoms: C_14  and  C_22
REMARK                            x       y       z     vdW  Elec       q    Type
REMARK                         _______ _______ _______ _____ _____    ______ ____


Number of Rotatable Bonds in Small Molecule =	7 torsions
Number of atoms in ligand:  30

Number of non-hydrogen atoms in ligand:  26

Number of vibrational degrees of freedom of ligand:  84


Number of torsional degrees of freedom = 7
Estimated loss of torsional free energy upon binding = +2.0881 kcal/mol


DPF> about 0.578 -0.033 0.130            # small molecule center

Small molecule center of rotation =	(+0.578, -0.033, +0.130)

DPF> tran0 random                         # initial coordinates/A or random

Initial translation =			(35.065, -25.531, 9.773) Angstroms
DPF> quaternion0 random                   # initial orientation

Each run will begin with a new, random initial orientation.
Initial quaternion,  (x,y,z,w) =	( -0.872, -0.309, -0.205, 0.320 ),
DPF> dihe0 random                         # initial dihedrals (relative) or random

DPF> torsdof 7                            # torsional degrees of freedom

Number of torsional degrees of freedom = 7
Free energy coefficient for torsional degrees of freedom = 0.2983, the factory default value.

Estimated loss of torsional free energy upon binding = +2.0881 kcal/mol

DPF> rmstol 2.0                           # cluster_tolerance/A

Maximum RMS tolerance for conformational cluster analysis = 2.00 Angstroms
DPF> extnrg 1000.0                        # external grid energy

External grid energy (beyond grid map walls) = 1000.00

DPF> e0max 0.0 10000                      # max initial energy; max number of retries

Using user-specified maximum number of retries for simanneal initialization, 10000 retries.
If the simanneal initial energy is greater than e0max, 0.000,
then a new, random initial state will be created.

DPF> ga_pop_size 150                      # number of individuals in population

A population of 150 individuals will be used
DPF> ga_num_evals 2500000                 # maximum number of energy evaluations

There will be at most 2500000 function evaluations used.
DPF> ga_num_generations 27000             # maximum number of generations

The GA will run for at most 27000 generations.
DPF> ga_elitism 1                         # number of top individuals to survive to next generation

The 1 best will be preserved each GA generation.
DPF> ga_mutation_rate 0.02                # rate of gene mutation

The mutation rate is 0.020000.
DPF> ga_crossover_rate 0.8                # rate of crossover

The crossover rate is 0.800000.
DPF> ga_window_size 10                    # 

The GA's selection window is 10 generations.
DPF> ga_cauchy_alpha 0.0                  # Alpha parameter of Cauchy distribution

The alpha parameter (for the Cauchy distribution) is being set to 0.000000.
DPF> ga_cauchy_beta 1.0                   # Beta parameter Cauchy distribution

The beta parameter (for the Cauchy distribution) is being set to 1.000000.
DPF> set_ga                               # set the above parameters for GA or LGA

DPF> sw_max_its 300                       # iterations of Solis & Wets local search

Solis & Wets algorithms will perform at most 300 iterations.
DPF> sw_max_succ 4                        # consecutive successes before changing rho

Solis & Wets algorithms expand rho every 4 in a row successes.
DPF> sw_max_fail 4                        # consecutive failures before changing rho

Solis & Wets algorithms contract rho every 4 in a row failures.
DPF> sw_rho 1.0                           # size of local search space to sample

rho is set to 1.000000.
DPF> sw_lb_rho 0.01                       # lower bound on rho

rho will never get smaller than 0.010000.
DPF> ls_search_freq 0.06                  # probability of performing local search on individual

Local search will be performed with frequency 0.060000.
DPF> set_psw1                             # set the above pseudo-Solis & Wets parameters

Creating a new Local Search object using the pseudo-Solis-Wets algorithm (pSW1) with the current settings.

DPF> unbound_model bound                  # state of unbound ligand

DPF> ga_run 100

centering ligand on specified point: 0.578 -0.033 0.130
Furthest true ligand atom from "about" center is 10.014 Angstroms (maxrad).
Number of requested GA dockings = 100 runs
Unbound model to be used is 'same as bound' [AutoDock 4.2 default].

	BEGINNING GENETIC ALGORITHM DOCKING 1 of 100
Run: 1 Seed: 515205026 198009722 [ Run 1 of 100 GA/GALS ]
Beginning LAMARCKIAN GENETIC ALGORITHM (LGA), with a maximum of 2500000 energy evaluations.

Final-Value: -15.786


	FINAL GENETIC ALGORITHM DOCKED STATE
	_______________________________________________


Detailed state:  trans 28.646 -15.665 0.080 quatxyzw -0.177423 0.284646 -0.160138 -0.928361 center 0.578 -0.033 0.130 ntor 7 65.7196 2.6425 141.1487 63.4705 179.9650 178.6104 129.8463
State:	 28.646 -15.665   0.080  -0.477  0.766 -0.431 -43.639     65.72    2.64  141.15   63.47  179.97  178.61  129.85

DOCKED: MODEL        1
DOCKED: USER    Run = 1
DOCKED: USER    DPF = ligand_dock.biased.dpf
DOCKED: USER  
DOCKED: USER    Estimated Free Energy of Binding    =  -12.64 kcal/mol  [=(1)+(2)+(3)-(4)]
DOCKED: USER    Estimated Inhibition Constant, Ki   =  540.34 pM (picomolar)  [Temperature = 298.15 K]
DOCKED: USER    
DOCKED: USER    (1) Final Intermolecular Energy     =  -14.73 kcal/mol
DOCKED: USER        vdW + Hbond + desolv Energy     =  -14.73 kcal/mol
DOCKED: USER        Electrostatic Energy            =   +0.00 kcal/mol
DOCKED: USER    (2) Final Total Internal Energy     =   -1.06 kcal/mol
DOCKED: USER    (3) Torsional Free Energy           =   +2.09 kcal/mol
DOCKED: USER    (4) Unbound System's Energy  [=(2)] =   -1.06 kcal/mol
DOCKED: USER    
DOCKED: USER    
DOCKED: USER    NEWDPF move ligand.pdbqt
DOCKED: USER    NEWDPF about 0.578000 -0.033000 0.130000
DOCKED: USER    NEWDPF tran0 28.645699 -15.665053 0.079663
DOCKED: USER    NEWDPF quaternion0 -0.177423 0.284646 -0.160138 -0.928361
DOCKED: USER    NEWDPF axisangle0 -0.477354 0.765835 -0.430848 -43.638526
DOCKED: USER    NEWDPF quat0 -0.477354 0.765835 -0.430848 -43.638526
DOCKED: USER    NEWDPF dihe0 65.72 2.64 141.15 63.47 179.97 178.61 129.85 
DOCKED: USER  keepresnum = 1 
DOCKED: USER  
DOCKED: REMARK  Name = 
DOCKED: REMARK  8 active torsions:
DOCKED: REMARK  status: ('A' for Active; 'I' for Inactive)
DOCKED: REMARK    1  A    between atoms: C_2  and  C_3
DOCKED: REMARK    2  A    between atoms: C_4  and  C_5
DOCKED: REMARK    3  A    between atoms: C_8  and  C_9
DOCKED: REMARK    4  A    between atoms: C_9  and  N_10
DOCKED: REMARK    5  A    between atoms: N_10  and  C_11
DOCKED: REMARK    6  A    between atoms: C_11  and  C_12
DOCKED: REMARK    7  A    between atoms: C_12  and  C_13
DOCKED: REMARK    8  A    between atoms: C_14  and  C_22
DOCKED: REMARK                            x       y       z     vdW  Elec       q    Type
DOCKED: REMARK                         _______ _______ _______ _____ _____    ______ ____
DOCKED: USER                              x       y       z     vdW  Elec       q    Type
DOCKED: USER                           _______ _______ _______ _____ _____    ______ ____
DOCKED: ROOT
DOCKED: ATOM      1  N   UNL     1      28.305 -15.223   0.623 -0.24 -0.00    +0.000 N 
DOCKED: ATOM      2  H   UNL     1      29.192 -14.719   0.612 -0.11 -0.00    +0.000 HD
DOCKED: ATOM      3  H   UNL     1      28.320 -15.990   1.295 -0.74 -0.00    +0.000 HD
DOCKED: ENDROOT
DOCKED: BRANCH   1   4
DOCKED: ATOM      4  C   UNL     1      28.075 -15.799  -0.709 -0.30 -0.00    +0.000 C 
DOCKED: BRANCH   4   8
DOCKED: ATOM      5  C   UNL     1      24.490 -18.219  -0.710 -0.69 -0.00    +0.000 A 
DOCKED: ATOM      6  C   UNL     1      24.436 -16.857  -1.068 -0.58 -0.00    +0.000 A 
DOCKED: ATOM      7  C   UNL     1      25.594 -16.074  -1.056 -0.45 -0.00    +0.000 A 
DOCKED: ATOM      8  C   UNL     1      26.825 -16.633  -0.682 -0.43 -0.00    +0.000 A 
DOCKED: ATOM      9  C   UNL     1      26.889 -17.995  -0.356 -0.47 -0.00    +0.000 A 
DOCKED: ATOM     10  C   UNL     1      25.732 -18.780  -0.370 -0.35 -0.00    +0.000 A 
DOCKED: BRANCH   5  12
DOCKED: ATOM     11  C   UNL     1      22.034 -18.639  -0.675 -0.85 -0.00    +0.000 C 
DOCKED: ATOM     12  C   UNL     1      23.295 -19.098  -0.721 -0.77 -0.00    +0.000 C 
DOCKED: BRANCH  11  14
DOCKED: ATOM     13  O   UNL     1      20.257 -19.712  -1.784 -2.33 -0.00    +0.000 OA
DOCKED: ATOM     14  C   UNL     1      20.848 -19.520  -0.688 -0.86 -0.00    +0.000 C 
DOCKED: ATOM     15  N   UNL     1      20.335 -20.135   0.500 -0.70 -0.00    +0.000 N 
DOCKED: ATOM     16  O   UNL     1      19.312 -21.017   0.420 -0.89 -0.00    +0.000 OA
DOCKED: ATOM     17  H   UNL     1      20.729 -19.915   1.376 -0.40 -0.00    +0.000 HD
DOCKED: ENDBRANCH  11  14
DOCKED: ENDBRANCH   5  12
DOCKED: ENDBRANCH   4   8
DOCKED: ENDBRANCH   1   4
DOCKED: BRANCH   1  18
DOCKED: ATOM     18  C   UNL     1      27.238 -14.294   1.024 -0.26 -0.00    +0.000 C 
DOCKED: BRANCH  18  19
DOCKED: ATOM     19  C   UNL     1      27.699 -12.829   1.012 -0.22 -0.00    +0.000 C 
DOCKED: BRANCH  19  20
DOCKED: ATOM     20  C   UNL     1      27.546 -12.221   2.378 -0.24 -0.00    +0.000 A 
DOCKED: ATOM     21  C   UNL     1      26.897 -11.031   2.709 -0.27 +0.00    +0.000 A 
DOCKED: ATOM     22  N   UNL     1      27.019 -10.771   4.032 -0.28 +0.00    +0.000 N 
DOCKED: ATOM     23  C   UNL     1      27.760 -11.773   4.536 -0.31 +0.00    +0.000 A 
DOCKED: ATOM     24  C   UNL     1      28.105 -12.672   3.558 -0.27 -0.00    +0.000 A 
DOCKED: ATOM     25  C   UNL     1      28.894 -13.789   3.836 -0.32 -0.00    +0.000 A 
DOCKED: ATOM     26  C   UNL     1      29.324 -13.978   5.162 -0.36 -0.00    +0.000 A 
DOCKED: ATOM     27  C   UNL     1      28.964 -13.055   6.168 -0.37 -0.00    +0.000 A 
DOCKED: ATOM     28  C   UNL     1      28.172 -11.933   5.858 -0.37 +0.00    +0.000 A 
DOCKED: ATOM     29  C   UNL     1      26.144 -10.154   1.759 -0.25 +0.00    +0.000 C 
DOCKED: ATOM     30  H   UNL     1      26.644 -10.004   4.523 -0.06 +0.00    +0.000 HD
DOCKED: ENDBRANCH  19  20
DOCKED: ENDBRANCH  18  19
DOCKED: ENDBRANCH   1  18
DOCKED: TORSDOF 7
DOCKED: TER
DOCKED: ENDMDL
________________________________________________________________________________


	BEGINNING GENETIC ALGORITHM DOCKING 2 of 100
Run: 2 Seed: 1917046375 354131924 [ Run 2 of 100 GA/GALS ]
Beginning LAMARCKIAN GENETIC ALGORITHM (LGA), with a maximum of 2500000 energy evaluations.

Final-Value: -15.460


	FINAL GENETIC ALGORITHM DOCKED STATE
	_______________________________________________


Detailed state:  trans 29.225 -16.338 0.194 quatxyzw 0.037381 0.152889 -0.892628 -0.422425 center 0.578 -0.033 0.130 ntor 7 -180.0000 -149.7187 18.9454 161.6864 179.2042 59.2918 38.9317
State:	 29.225 -16.338   0.194   0.041  0.169 -0.985 -130.024   -180.00 -149.72   18.95  161.69  179.20   59.29   38.93

DOCKED: MODEL        2
DOCKED: USER    Run = 2
DOCKED: USER    DPF = ligand_dock.biased.dpf
DOCKED: USER  
DOCKED: USER    Estimated Free Energy of Binding    =  -11.46 kcal/mol  [=(1)+(2)+(3)-(4)]
DOCKED: USER    Estimated Inhibition Constant, Ki   =    3.98 nM (nanomolar)  [Temperature = 298.15 K]
DOCKED: USER    
DOCKED: USER    (1) Final Intermolecular Energy     =  -13.55 kcal/mol
DOCKED: USER        vdW + Hbond + desolv Energy     =  -13.55 kcal/mol
DOCKED: USER        Electrostatic Energy            =   +0.00 kcal/mol
DOCKED: USER    (2) Final Total Internal Energy     =   -1.91 kcal/mol
DOCKED: USER    (3) Torsional Free Energy           =   +2.09 kcal/mol
DOCKED: USER    (4) Unbound System's Energy  [=(2)] =   -1.91 kcal/mol
DOCKED: USER    
DOCKED: USER    
DOCKED: USER    NEWDPF move ligand.pdbqt
DOCKED: USER    NEWDPF about 0.578000 -0.033000 0.130000
DOCKED: USER    NEWDPF tran0 29.225124 -16.337876 0.194272
DOCKED: USER    NEWDPF quaternion0 0.037381 0.152889 -0.892628 -0.422425
DOCKED: USER    NEWDPF axisangle0 0.041241 0.168678 -0.984808 -130.024434
DOCKED: USER    NEWDPF quat0 0.041241 0.168678 -0.984808 -130.024434
DOCKED: USER    NEWDPF dihe0 -180.00 -149.72 18.95 161.69 179.20 59.29 38.93 
DOCKED: USER  keepresnum = 1 
DOCKED: USER  
DOCKED: REMARK  Name = 
DOCKED: REMARK  8 active torsions:
DOCKED: REMARK  status: ('A' for Active; 'I' for Inactive)
DOCKED: REMARK    1  A    between atoms: C_2  and  C_3
DOCKED: REMARK    2  A    between atoms: C_4  and  C_5
DOCKED: REMARK    3  A    between atoms: C_8  and  C_9
DOCKED: REMARK    4  A    between atoms: C_9  and  N_10
DOCKED: REMARK    5  A    between atoms: N_10  and  C_11
DOCKED: REMARK    6  A    between atoms: C_11  and  C_12
DOCKED: REMARK    7  A    between atoms: C_12  and  C_13
DOCKED: REMARK    8  A    between atoms: C_14  and  C_22
DOCKED: REMARK                            x       y       z     vdW  Elec       q    Type
DOCKED: REMARK                         _______ _______ _______ _____ _____    ______ ____
DOCKED: USER                              x       y       z     vdW  Elec       q    Type
DOCKED: USER                           _______ _______ _______ _____ _____    ______ ____
DOCKED: ROOT
DOCKED: ATOM      1  N   UNL     1      29.767 -15.975   0.619 +0.11 -0.00    +0.000 N 
DOCKED: ATOM      2  H   UNL     1      29.964 -16.913   0.970 -0.53 -0.00    +0.000 HD
DOCKED: ATOM      3  H   UNL     1      29.055 -15.509   1.180 -0.86 -0.00    +0.000 HD
DOCKED: ENDROOT
DOCKED: BRANCH   1   4
DOCKED: ATOM      4  C   UNL     1      29.257 -16.083  -0.754 -0.22 -0.00    +0.000 C 
DOCKED: BRANCH   4   8
DOCKED: ATOM      5  C   UNL     1      24.995 -16.821  -0.729 -0.52 -0.00    +0.000 A 
DOCKED: ATOM      6  C   UNL     1      25.494 -15.505  -0.788 -0.32 -0.00    +0.000 A 
DOCKED: ATOM      7  C   UNL     1      26.873 -15.268  -0.784 -0.31 -0.00    +0.000 A 
DOCKED: ATOM      8  C   UNL     1      27.776 -16.338  -0.717 -0.33 -0.00    +0.000 A 
DOCKED: ATOM      9  C   UNL     1      27.284 -17.651  -0.691 -0.42 -0.00    +0.000 A 
DOCKED: ATOM     10  C   UNL     1      25.907 -17.889  -0.697 -0.57 -0.00    +0.000 A 
DOCKED: BRANCH   5  12
DOCKED: ATOM     11  C   UNL     1      23.041 -18.357  -0.553 -0.83 -0.00    +0.000 C 
DOCKED: ATOM     12  C   UNL     1      23.544 -17.128  -0.746 -0.70 -0.00    +0.000 C 
DOCKED: BRANCH  11  14
DOCKED: ATOM     13  O   UNL     1      20.814 -17.807  -1.081 -2.13 -0.00    +0.000 OA
DOCKED: ATOM     14  C   UNL     1      21.594 -18.655  -0.570 -0.85 -0.00    +0.000 C 
DOCKED: ATOM     15  N   UNL     1      21.050 -19.854  -0.005 -0.68 -0.00    +0.000 N 
DOCKED: ATOM     16  O   UNL     1      19.732 -20.131  -0.140 -1.29 -0.00    +0.000 OA
DOCKED: ATOM     17  H   UNL     1      21.636 -20.477   0.483 -0.58 -0.00    +0.000 HD
DOCKED: ENDBRANCH  11  14
DOCKED: ENDBRANCH   5  12
DOCKED: ENDBRANCH   4   8
DOCKED: ENDBRANCH   1   4
DOCKED: BRANCH   1  18
DOCKED: ATOM     18  C   UNL     1      30.998 -15.173   0.697 -0.12 -0.00    +0.000 C 
DOCKED: BRANCH  18  19
DOCKED: ATOM     19  C   UNL     1      30.946 -14.125   1.820 -0.11 -0.00    +0.000 C 
DOCKED: BRANCH  19  20
DOCKED: ATOM     20  C   UNL     1      29.521 -13.809   2.175 -0.15 -0.00    +0.000 A 
DOCKED: ATOM     21  C   UNL     1      28.843 -14.152   3.346 -0.31 -0.00    +0.000 A 
DOCKED: ATOM     22  N   UNL     1      27.550 -13.755   3.285 -0.40 -0.00    +0.000 N 
DOCKED: ATOM     23  C   UNL     1      27.399 -13.185   2.078 -0.27 -0.00    +0.000 A 
DOCKED: ATOM     24  C   UNL     1      28.574 -13.205   1.370 -0.15 -0.00    +0.000 A 
DOCKED: ATOM     25  C   UNL     1      28.661 -12.689   0.077 -0.08 -0.00    +0.000 A 
DOCKED: ATOM     26  C   UNL     1      27.499 -12.132  -0.488 -0.13 -0.00    +0.000 A 
DOCKED: ATOM     27  C   UNL     1      26.290 -12.107   0.242 -0.08 -0.00    +0.000 A 
DOCKED: ATOM     28  C   UNL     1      26.232 -12.641   1.543 -0.32 +0.00    +0.000 A 
DOCKED: ATOM     29  C   UNL     1      29.441 -14.845   4.530 -0.38 -0.00    +0.000 C 
DOCKED: ATOM     30  H   UNL     1      26.863 -13.863   3.982 -0.04 -0.00    +0.000 HD
DOCKED: ENDBRANCH  19  20
DOCKED: ENDBRANCH  18  19
DOCKED: ENDBRANCH   1  18
DOCKED: TORSDOF 7
DOCKED: TER
DOCKED: ENDMDL
________________________________________________________________________________


	BEGINNING GENETIC ALGORITHM DOCKING 3 of 100
Run: 3 Seed: 1808269374 1494224963 [ Run 3 of 100 GA/GALS ]
Beginning LAMARCKIAN GENETIC ALGORITHM (LGA), with a maximum of 2500000 energy evaluations.

Final-Value: -14.829


	FINAL GENETIC ALGORITHM DOCKED STATE
	_______________________________________________


Detailed state:  trans 28.872 -16.425 -0.327 quatxyzw 0.475079 -0.330825 0.082332 0.811219 center 0.578 -0.033 0.130 ntor 7 -117.7180 162.3281 -174.6007 -158.2937 179.0448 -178.8986 -176.9005
State:	 28.872 -16.425  -0.327   0.812 -0.566  0.141 71.570   -117.72  162.33 -174.60 -158.29  179.04 -178.90 -176.90

DOCKED: MODEL        3
DOCKED: USER    Run = 3
DOCKED: USER    DPF = ligand_dock.biased.dpf
DOCKED: USER  
DOCKED: USER    Estimated Free Energy of Binding    =  -11.37 kcal/mol  [=(1)+(2)+(3)-(4)]
DOCKED: USER    Estimated Inhibition Constant, Ki   =    4.59 nM (nanomolar)  [Temperature = 298.15 K]
DOCKED: USER    
DOCKED: USER    (1) Final Intermolecular Energy     =  -13.46 kcal/mol
DOCKED: USER        vdW + Hbond + desolv Energy     =  -13.46 kcal/mol
DOCKED: USER        Electrostatic Energy            =   +0.00 kcal/mol
DOCKED: USER    (2) Final Total Internal Energy     =   -1.37 kcal/mol
DOCKED: USER    (3) Torsional Free Energy           =   +2.09 kcal/mol
DOCKED: USER    (4) Unbound System's Energy  [=(2)] =   -1.37 kcal/mol
DOCKED: USER    
DOCKED: USER    
DOCKED: USER    NEWDPF move ligand.pdbqt
DOCKED: USER    NEWDPF about 0.578000 -0.033000 0.130000
DOCKED: USER    NEWDPF tran0 28.872252 -16.425463 -0.327499
DOCKED: USER    NEWDPF quaternion0 0.475079 -0.330825 0.082332 0.811219
DOCKED: USER    NEWDPF axisangle0 0.812459 -0.565761 0.140801 71.569597
DOCKED: USER    NEWDPF quat0 0.812459 -0.565761 0.140801 71.569597
DOCKED: USER    NEWDPF dihe0 -117.72 162.33 -174.60 -158.29 179.04 -178.90 -176.90 
DOCKED: USER  keepresnum = 1 
DOCKED: USER  
DOCKED: REMARK  Name = 
DOCKED: REMARK  8 active torsions:
DOCKED: REMARK  status: ('A' for Active; 'I' for Inactive)
DOCKED: REMARK    1  A    between atoms: C_2  and  C_3
DOCKED: REMARK    2  A    between atoms: C_4  and  C_5
DOCKED: REMARK    3  A    between atoms: C_8  and  C_9
DOCKED: REMARK    4  A    between atoms: C_9  and  N_10
DOCKED: REMARK    5  A    between atoms: N_10  and  C_11
DOCKED: REMARK    6  A    between atoms: C_11  and  C_12
DOCKED: REMARK    7  A    between atoms: C_12  and  C_13
DOCKED: REMARK    8  A    between atoms: C_14  and  C_22
DOCKED: REMARK                            x       y       z     vdW  Elec       q    Type
DOCKED: REMARK                         _______ _______ _______ _____ _____    ______ ____
DOCKED: USER                              x       y       z     vdW  Elec       q    Type
DOCKED: USER                           _______ _______ _______ _____ _____    ______ ____
DOCKED: ROOT
DOCKED: ATOM      1  N   UNL     1      28.519 -15.826   0.022 -0.25 -0.00    +0.000 N 
DOCKED: ATOM      2  H   UNL     1      29.179 -15.265  -0.516 -0.00 -0.00    +0.000 HD
DOCKED: ATOM      3  H   UNL     1      28.905 -16.091   0.928 -0.73 -0.00    +0.000 HD
DOCKED: ENDROOT
DOCKED: BRANCH   1   4
DOCKED: ATOM      4  C   UNL     1      28.235 -17.061  -0.722 -0.37 -0.00    +0.000 C 
DOCKED: BRANCH   4   8
DOCKED: ATOM      5  C   UNL     1      23.969 -17.735  -0.960 -0.68 -0.00    +0.000 A 
DOCKED: ATOM      6  C   UNL     1      24.639 -17.019  -1.972 -0.50 -0.00    +0.000 A 
DOCKED: ATOM      7  C   UNL     1      26.017 -16.792  -1.887 -0.47 -0.00    +0.000 A 
DOCKED: ATOM      8  C   UNL     1      26.748 -17.271  -0.790 -0.48 -0.00    +0.000 A 
DOCKED: ATOM      9  C   UNL     1      26.091 -18.012   0.203 -0.49 -0.00    +0.000 A 
DOCKED: ATOM     10  C   UNL     1      24.715 -18.241   0.118 -0.54 -0.00    +0.000 A 
DOCKED: BRANCH   5  12
DOCKED: ATOM     11  C   UNL     1      21.970 -19.190  -0.649 -0.81 -0.00    +0.000 C 
DOCKED: ATOM     12  C   UNL     1      22.513 -18.017  -1.009 -0.77 -0.00    +0.000 C 
DOCKED: BRANCH  11  14
DOCKED: ATOM     13  O   UNL     1      20.000 -19.738  -1.814 -2.39 -0.00    +0.000 OA
DOCKED: ATOM     14  C   UNL     1      20.519 -19.463  -0.700 -0.89 -0.00    +0.000 C 
DOCKED: ATOM     15  N   UNL     1      19.684 -19.397   0.463 -0.70 -0.00    +0.000 N 
DOCKED: ATOM     16  O   UNL     1      18.382 -19.760   0.385 -0.76 -0.00    +0.000 OA
DOCKED: ATOM     17  H   UNL     1      20.058 -19.089   1.320 -0.22 -0.00    +0.000 HD
DOCKED: ENDBRANCH  11  14
DOCKED: ENDBRANCH   5  12
DOCKED: ENDBRANCH   4   8
DOCKED: ENDBRANCH   1   4
DOCKED: BRANCH   1  18
DOCKED: ATOM     18  C   UNL     1      27.307 -15.028   0.266 -0.31 -0.00    +0.000 C 
DOCKED: BRANCH  18  19
DOCKED: ATOM     19  C   UNL     1      27.236 -13.781  -0.628 -0.24 -0.00    +0.000 C 
DOCKED: BRANCH  19  20
DOCKED: ATOM     20  C   UNL     1      28.178 -13.916  -1.791 -0.12 -0.00    +0.000 A 
DOCKED: ATOM     21  C   UNL     1      29.543 -13.626  -1.814 -0.04 -0.00    +0.000 A 
DOCKED: ATOM     22  N   UNL     1      30.050 -13.808  -3.056 -0.05 -0.00    +0.000 N 
DOCKED: ATOM     23  C   UNL     1      29.014 -14.187  -3.823 -0.12 -0.00    +0.000 A 
DOCKED: ATOM     24  C   UNL     1      27.856 -14.257  -3.090 -0.18 -0.00    +0.000 A 
DOCKED: ATOM     25  C   UNL     1      26.638 -14.609  -3.675 -0.38 -0.00    +0.000 A 
DOCKED: ATOM     26  C   UNL     1      26.630 -14.902  -5.050 -0.40 -0.00    +0.000 A 
DOCKED: ATOM     27  C   UNL     1      27.822 -14.835  -5.804 -0.35 -0.00    +0.000 A 
DOCKED: ATOM     28  C   UNL     1      29.035 -14.471  -5.188 -0.22 -0.00    +0.000 A 
DOCKED: ATOM     29  C   UNL     1      30.364 -13.193  -0.641 -0.03 -0.00    +0.000 C 
DOCKED: ATOM     30  H   UNL     1      30.985 -13.686  -3.339 +0.00 -0.00    +0.000 HD
DOCKED: ENDBRANCH  19  20
DOCKED: ENDBRANCH  18  19
DOCKED: ENDBRANCH   1  18
DOCKED: TORSDOF 7
DOCKED: TER
DOCKED: ENDMDL
________________________________________________________________________________


	BEGINNING GENETIC ALGORITHM DOCKING 4 of 100
Run: 4 Seed: 310843551 1952819788 [ Run 4 of 100 GA/GALS ]
Beginning LAMARCKIAN GENETIC ALGORITHM (LGA), with a maximum of 2500000 energy evaluations.

Final-Value: -16.536


	FINAL GENETIC ALGORITHM DOCKED STATE
	_______________________________________________


Detailed state:  trans 29.496 -16.259 0.398 quatxyzw 0.005768 -0.104848 0.765109 0.635281 center 0.578 -0.033 0.130 ntor 7 120.0591 -149.6629 17.0340 120.9502 175.8019 82.6236 72.4946
State:	 29.496 -16.259   0.398   0.007 -0.136  0.991 101.118    120.06 -149.66   17.03  120.95  175.80   82.62   72.49

DOCKED: MODEL        4
DOCKED: USER    Run = 4
DOCKED: USER    DPF = ligand_dock.biased.dpf
DOCKED: USER  
DOCKED: USER    Estimated Free Energy of Binding    =  -12.54 kcal/mol  [=(1)+(2)+(3)-(4)]
DOCKED: USER    Estimated Inhibition Constant, Ki   =  642.83 pM (picomolar)  [Temperature = 298.15 K]
DOCKED: USER    
DOCKED: USER    (1) Final Intermolecular Energy     =  -14.63 kcal/mol
DOCKED: USER        vdW + Hbond + desolv Energy     =  -14.63 kcal/mol
DOCKED: USER        Electrostatic Energy            =   +0.00 kcal/mol
DOCKED: USER    (2) Final Total Internal Energy     =   -1.91 kcal/mol
DOCKED: USER    (3) Torsional Free Energy           =   +2.09 kcal/mol
DOCKED: USER    (4) Unbound System's Energy  [=(2)] =   -1.91 kcal/mol
DOCKED: USER    
DOCKED: USER    
DOCKED: USER    NEWDPF move ligand.pdbqt
DOCKED: USER    NEWDPF about 0.578000 -0.033000 0.130000
DOCKED: USER    NEWDPF tran0 29.496298 -16.258874 0.398275
DOCKED: USER    NEWDPF quaternion0 0.005768 -0.104848 0.765109 0.635281
DOCKED: USER    NEWDPF axisangle0 0.007469 -0.135764 0.990713 101.118394
DOCKED: USER    NEWDPF quat0 0.007469 -0.135764 0.990713 101.118394
DOCKED: USER    NEWDPF dihe0 120.06 -149.66 17.03 120.95 175.80 82.62 72.49 
DOCKED: USER  keepresnum = 1 
DOCKED: USER  
DOCKED: REMARK  Name = 
DOCKED: REMARK  8 active torsions:
DOCKED: REMARK  status: ('A' for Active; 'I' for Inactive)
DOCKED: REMARK    1  A    between atoms: C_2  and  C_3
DOCKED: REMARK    2  A    between atoms: C_4  and  C_5
DOCKED: REMARK    3  A    between atoms: C_8  and  C_9
DOCKED: REMARK    4  A    between atoms: C_9  and  N_10
DOCKED: REMARK    5  A    between atoms: N_10  and  C_11
DOCKED: REMARK    6  A    between atoms: C_11  and  C_12
DOCKED: REMARK    7  A    between atoms: C_12  and  C_13
DOCKED: REMARK    8  A    between atoms: C_14  and  C_22
DOCKED: REMARK                            x       y       z     vdW  Elec       q    Type
DOCKED: REMARK                         _______ _______ _______ _____ _____    ______ ____
DOCKED: USER                              x       y       z     vdW  Elec       q    Type
DOCKED: USER                           _______ _______ _______ _____ _____    ______ ____
DOCKED: ROOT
DOCKED: ATOM      1  N   UNL     1      29.771 -15.644   0.789 -0.02 -0.00    +0.000 N 
DOCKED: ATOM      2  H   UNL     1      30.371 -16.336   1.239 -0.56 -0.00    +0.000 HD
DOCKED: ATOM      3  H   UNL     1      28.889 -15.533   1.289 -0.97 -0.00    +0.000 HD
DOCKED: ENDROOT
DOCKED: BRANCH   1   4
DOCKED: ATOM      4  C   UNL     1      29.460 -16.103  -0.571 -0.21 -0.00    +0.000 C 
DOCKED: BRANCH   4   8
DOCKED: ATOM      5  C   UNL     1      25.200 -16.691  -1.032 -0.53 -0.00    +0.000 A 
DOCKED: ATOM      6  C   UNL     1      25.782 -15.432  -1.284 -0.39 -0.00    +0.000 A 
DOCKED: ATOM      7  C   UNL     1      27.158 -15.241  -1.123 -0.28 -0.00    +0.000 A 
DOCKED: ATOM      8  C   UNL     1      27.976 -16.301  -0.705 -0.31 -0.00    +0.000 A 
DOCKED: ATOM      9  C   UNL     1      27.407 -17.563  -0.484 -0.39 -0.00    +0.000 A 
DOCKED: ATOM     10  C   UNL     1      26.032 -17.755  -0.647 -0.56 -0.00    +0.000 A 
DOCKED: BRANCH   5  12
DOCKED: ATOM     11  C   UNL     1      23.150 -18.095  -0.839 -0.81 -0.00    +0.000 C 
DOCKED: ATOM     12  C   UNL     1      23.749 -16.950  -1.203 -0.61 -0.00    +0.000 C 
DOCKED: BRANCH  11  14
DOCKED: ATOM     13  O   UNL     1      20.898 -17.425  -0.713 -2.01 +0.00    +0.000 OA
DOCKED: ATOM     14  C   UNL     1      21.705 -18.346  -1.010 -0.76 -0.00    +0.000 C 
DOCKED: ATOM     15  N   UNL     1      21.193 -19.602  -1.473 -0.71 -0.00    +0.000 N 
DOCKED: ATOM     16  O   UNL     1      19.869 -19.747  -1.715 -2.34 -0.00    +0.000 OA
DOCKED: ATOM     17  H   UNL     1      21.805 -20.359  -1.615 -0.37 -0.00    +0.000 HD
DOCKED: ENDBRANCH  11  14
DOCKED: ENDBRANCH   5  12
DOCKED: ENDBRANCH   4   8
DOCKED: ENDBRANCH   1   4
DOCKED: BRANCH   1  18
DOCKED: ATOM     18  C   UNL     1      30.459 -14.344   0.797 -0.11 -0.00    +0.000 C 
DOCKED: BRANCH  18  19
DOCKED: ATOM     19  C   UNL     1      30.265 -13.585   2.119 -0.13 -0.00    +0.000 C 
DOCKED: BRANCH  19  20
DOCKED: ATOM     20  C   UNL     1      28.814 -13.252   2.323 -0.18 -0.00    +0.000 A 
DOCKED: ATOM     21  C   UNL     1      27.932 -13.831   3.236 -0.36 -0.00    +0.000 A 
DOCKED: ATOM     22  N   UNL     1      26.686 -13.322   3.088 -0.34 -0.00    +0.000 N 
DOCKED: ATOM     23  C   UNL     1      26.768 -12.444   2.073 -0.30 +0.00    +0.000 A 
DOCKED: ATOM     24  C   UNL     1      28.046 -12.379   1.577 -0.16 -0.00    +0.000 A 
DOCKED: ATOM     25  C   UNL     1      28.374 -11.551   0.503 -0.08 -0.00    +0.000 A 
DOCKED: ATOM     26  C   UNL     1      27.350 -10.768  -0.060 -0.13 +0.00    +0.000 A 
DOCKED: ATOM     27  C   UNL     1      26.037 -10.831   0.453 -0.20 +0.00    +0.000 A 
DOCKED: ATOM     28  C   UNL     1      25.733 -11.680   1.534 -0.30 +0.00    +0.000 A 
DOCKED: ATOM     29  C   UNL     1      28.288 -14.859   4.264 -0.54 -0.00    +0.000 C 
DOCKED: ATOM     30  H   UNL     1      25.886 -13.550   3.614 +0.01 +0.00    +0.000 HD
DOCKED: ENDBRANCH  19  20
DOCKED: ENDBRANCH  18  19
DOCKED: ENDBRANCH   1  18
DOCKED: TORSDOF 7
DOCKED: TER
DOCKED: ENDMDL
________________________________________________________________________________


	BEGINNING GENETIC ALGORITHM DOCKING 5 of 100
Run: 5 Seed: 1135538145 1540062428 [ Run 5 of 100 GA/GALS ]
Beginning LAMARCKIAN GENETIC ALGORITHM (LGA), with a maximum of 2500000 energy evaluations.

Final-Value: -15.643


	FINAL GENETIC ALGORITHM DOCKED STATE
	_______________________________________________


Detailed state:  trans 28.527 -16.246 0.321 quatxyzw -0.228778 0.153576 -0.476820 -0.834696 center 0.578 -0.033 0.130 ntor 7 -46.8525 130.2278 -8.4633 -65.4378 -179.4257 40.5863 115.0883
State:	 28.527 -16.246   0.321  -0.415  0.279 -0.866 -66.832    -46.85  130.23   -8.46  -65.44 -179.43   40.59  115.09

DOCKED: MODEL        5
DOCKED: USER    Run = 5
DOCKED: USER    DPF = ligand_dock.biased.dpf
DOCKED: USER  
DOCKED: USER    Estimated Free Energy of Binding    =  -12.32 kcal/mol  [=(1)+(2)+(3)-(4)]
DOCKED: USER    Estimated Inhibition Constant, Ki   =  926.42 pM (picomolar)  [Temperature = 298.15 K]
DOCKED: USER    
DOCKED: USER    (1) Final Intermolecular Energy     =  -14.41 kcal/mol
DOCKED: USER        vdW + Hbond + desolv Energy     =  -14.41 kcal/mol
DOCKED: USER        Electrostatic Energy            =   +0.00 kcal/mol
DOCKED: USER    (2) Final Total Internal Energy     =   -1.23 kcal/mol
DOCKED: USER    (3) Torsional Free Energy           =   +2.09 kcal/mol
DOCKED: USER    (4) Unbound System's Energy  [=(2)] =   -1.23 kcal/mol
DOCKED: USER    
DOCKED: USER    
DOCKED: USER    NEWDPF move ligand.pdbqt
DOCKED: USER    NEWDPF about 0.578000 -0.033000 0.130000
DOCKED: USER    NEWDPF tran0 28.526758 -16.245762 0.320521
DOCKED: USER    NEWDPF quaternion0 -0.228778 0.153576 -0.476820 -0.834696
DOCKED: USER    NEWDPF axisangle0 -0.415423 0.278868 -0.865827 -66.831599
DOCKED: USER    NEWDPF quat0 -0.415423 0.278868 -0.865827 -66.831599
DOCKED: USER    NEWDPF dihe0 -46.85 130.23 -8.46 -65.44 -179.43 40.59 115.09 
DOCKED: USER  keepresnum = 1 
DOCKED: USER  
DOCKED: REMARK  Name = 
DOCKED: REMARK  8 active torsions:
DOCKED: REMARK  status: ('A' for Active; 'I' for Inactive)
DOCKED: REMARK    1  A    between atoms: C_2  and  C_3
DOCKED: REMARK    2  A    between atoms: C_4  and  C_5
DOCKED: REMARK    3  A    between atoms: C_8  and  C_9
DOCKED: REMARK    4  A    between atoms: C_9  and  N_10
DOCKED: REMARK    5  A    between atoms: N_10  and  C_11
DOCKED: REMARK    6  A    between atoms: C_11  and  C_12
DOCKED: REMARK    7  A    between atoms: C_12  and  C_13
DOCKED: REMARK    8  A    between atoms: C_14  and  C_22
DOCKED: REMARK                            x       y       z     vdW  Elec       q    Type
DOCKED: REMARK                         _______ _______ _______ _____ _____    ______ ____
DOCKED: USER                              x       y       z     vdW  Elec       q    Type
DOCKED: USER                           _______ _______ _______ _____ _____    ______ ____
DOCKED: ROOT
DOCKED: ATOM      1  N   UNL     1      28.403 -15.520   0.574 -0.19 -0.00    +0.000 N 
DOCKED: ATOM      2  H   UNL     1      29.406 -15.531   0.760 -0.40 -0.00    +0.000 HD
DOCKED: ATOM      3  H   UNL     1      27.872 -15.861   1.375 -0.59 -0.00    +0.000 HD
DOCKED: ENDROOT
DOCKED: BRANCH   1   4
DOCKED: ATOM      4  C   UNL     1      28.124 -16.411  -0.561 -0.34 -0.00    +0.000 C 
DOCKED: BRANCH   4   8
DOCKED: ATOM      5  C   UNL     1      23.943 -17.514  -0.625 -0.65 -0.00    +0.000 A 
DOCKED: ATOM      6  C   UNL     1      24.404 -16.406  -1.365 -0.44 -0.00    +0.000 A 
DOCKED: ATOM      7  C   UNL     1      25.754 -16.044  -1.333 -0.46 -0.00    +0.000 A 
DOCKED: ATOM      8  C   UNL     1      26.667 -16.778  -0.561 -0.45 -0.00    +0.000 A 
DOCKED: ATOM      9  C   UNL     1      26.219 -17.900   0.151 -0.50 -0.00    +0.000 A 
DOCKED: ATOM     10  C   UNL     1      24.869 -18.264   0.118 -0.52 -0.00    +0.000 A 
DOCKED: BRANCH   5  12
DOCKED: ATOM     11  C   UNL     1      22.090 -19.052  -1.267 -0.75 -0.00    +0.000 C 
DOCKED: ATOM     12  C   UNL     1      22.525 -17.950  -0.637 -0.82 -0.00    +0.000 C 
DOCKED: BRANCH  11  14
DOCKED: ATOM     13  O   UNL     1      20.246 -20.113  -2.275 -2.19 -0.00    +0.000 OA
DOCKED: ATOM     14  C   UNL     1      20.676 -19.480  -1.274 -0.84 -0.00    +0.000 C 
DOCKED: ATOM     15  N   UNL     1      19.777 -19.177  -0.200 -0.77 -0.00    +0.000 N 
DOCKED: ATOM     16  O   UNL     1      18.521 -19.682  -0.203 -0.93 -0.00    +0.000 OA
DOCKED: ATOM     17  H   UNL     1      20.074 -18.600   0.541 -0.08 -0.00    +0.000 HD
DOCKED: ENDBRANCH  11  14
DOCKED: ENDBRANCH   5  12
DOCKED: ENDBRANCH   4   8
DOCKED: ENDBRANCH   1   4
DOCKED: BRANCH   1  18
DOCKED: ATOM     18  C   UNL     1      27.985 -14.134   0.313 -0.22 -0.00    +0.000 C 
DOCKED: BRANCH  18  19
DOCKED: ATOM     19  C   UNL     1      26.827 -13.689   1.220 -0.27 -0.00    +0.000 C 
DOCKED: BRANCH  19  20
DOCKED: ATOM     20  C   UNL     1      27.303 -12.667   2.214 -0.27 -0.00    +0.000 A 
DOCKED: ATOM     21  C   UNL     1      27.464 -11.297   2.009 -0.22 +0.00    +0.000 A 
DOCKED: ATOM     22  N   UNL     1      27.975 -10.704   3.114 -0.21 +0.00    +0.000 N 
DOCKED: ATOM     23  C   UNL     1      28.160 -11.691   4.007 -0.26 +0.00    +0.000 A 
DOCKED: ATOM     24  C   UNL     1      27.769 -12.902   3.493 -0.32 -0.00    +0.000 A 
DOCKED: ATOM     25  C   UNL     1      27.886 -14.083   4.228 -0.50 -0.00    +0.000 A 
DOCKED: ATOM     26  C   UNL     1      28.414 -13.998   5.529 -0.38 -0.00    +0.000 A 
DOCKED: ATOM     27  C   UNL     1      28.812 -12.751   6.059 -0.36 -0.00    +0.000 A 
DOCKED: ATOM     28  C   UNL     1      28.688 -11.577   5.292 -0.27 +0.00    +0.000 A 
DOCKED: ATOM     29  C   UNL     1      27.112 -10.553   0.759 -0.22 +0.00    +0.000 C 
DOCKED: ATOM     30  H   UNL     1      28.172  -9.747   3.237 -0.01 +0.00    +0.000 HD
DOCKED: ENDBRANCH  19  20
DOCKED: ENDBRANCH  18  19
DOCKED: ENDBRANCH   1  18
DOCKED: TORSDOF 7
DOCKED: TER
DOCKED: ENDMDL
________________________________________________________________________________


	BEGINNING GENETIC ALGORITHM DOCKING 6 of 100
Run: 6 Seed: 2003722787 1216287899 [ Run 6 of 100 GA/GALS ]
Beginning LAMARCKIAN GENETIC ALGORITHM (LGA), with a maximum of 2500000 energy evaluations.

Final-Value: -15.310


	FINAL GENETIC ALGORITHM DOCKED STATE
	_______________________________________________


Detailed state:  trans 27.974 -15.961 0.182 quatxyzw -0.048802 0.368511 0.889760 0.264849 center 0.578 -0.033 0.130 ntor 7 -117.3489 179.8150 -0.4821 178.7283 148.8538 111.2958 13.1870
State:	 27.974 -15.961   0.182  -0.051  0.382  0.923 149.284   -117.35  179.82   -0.48  178.73  148.85  111.30   13.19

DOCKED: MODEL        6
DOCKED: USER    Run = 6
DOCKED: USER    DPF = ligand_dock.biased.dpf
DOCKED: USER  
DOCKED: USER    Estimated Free Energy of Binding    =  -11.68 kcal/mol  [=(1)+(2)+(3)-(4)]
DOCKED: USER    Estimated Inhibition Constant, Ki   =    2.74 nM (nanomolar)  [Temperature = 298.15 K]
DOCKED: USER    
DOCKED: USER    (1) Final Intermolecular Energy     =  -13.77 kcal/mol
DOCKED: USER        vdW + Hbond + desolv Energy     =  -13.77 kcal/mol
DOCKED: USER        Electrostatic Energy            =   +0.00 kcal/mol
DOCKED: USER    (2) Final Total Internal Energy     =   -1.54 kcal/mol
DOCKED: USER    (3) Torsional Free Energy           =   +2.09 kcal/mol
DOCKED: USER    (4) Unbound System's Energy  [=(2)] =   -1.54 kcal/mol
DOCKED: USER    
DOCKED: USER    
DOCKED: USER    NEWDPF move ligand.pdbqt
DOCKED: USER    NEWDPF about 0.578000 -0.033000 0.130000
DOCKED: USER    NEWDPF tran0 27.974487 -15.961007 0.181851
DOCKED: USER    NEWDPF quaternion0 -0.048802 0.368511 0.889760 0.264849
DOCKED: USER    NEWDPF axisangle0 -0.050610 0.382158 0.922710 149.283989
DOCKED: USER    NEWDPF quat0 -0.050610 0.382158 0.922710 149.283989
DOCKED: USER    NEWDPF dihe0 -117.35 179.82 -0.48 178.73 148.85 111.30 13.19 
DOCKED: USER  keepresnum = 1 
DOCKED: USER  
DOCKED: REMARK  Name = 
DOCKED: REMARK  8 active torsions:
DOCKED: REMARK  status: ('A' for Active; 'I' for Inactive)
DOCKED: REMARK    1  A    between atoms: C_2  and  C_3
DOCKED: REMARK    2  A    between atoms: C_4  and  C_5
DOCKED: REMARK    3  A    between atoms: C_8  and  C_9
DOCKED: REMARK    4  A    between atoms: C_9  and  N_10
DOCKED: REMARK    5  A    between atoms: N_10  and  C_11
DOCKED: REMARK    6  A    between atoms: C_11  and  C_12
DOCKED: REMARK    7  A    between atoms: C_12  and  C_13
DOCKED: REMARK    8  A    between atoms: C_14  and  C_22
DOCKED: REMARK                            x       y       z     vdW  Elec       q    Type
DOCKED: REMARK                         _______ _______ _______ _____ _____    ______ ____
DOCKED: USER                              x       y       z     vdW  Elec       q    Type
DOCKED: USER                           _______ _______ _______ _____ _____    ______ ____
DOCKED: ROOT
DOCKED: ATOM      1  N   UNL     1      28.523 -15.456   0.408 -0.23 -0.00    +0.000 N 
DOCKED: ATOM      2  H   UNL     1      28.187 -15.681   1.345 -0.74 -0.00    +0.000 HD
DOCKED: ATOM      3  H   UNL     1      28.007 -14.674   0.005 -0.00 -0.00    +0.000 HD
DOCKED: ENDROOT
DOCKED: BRANCH   1   4
DOCKED: ATOM      4  C   UNL     1      28.315 -16.624  -0.459 -0.32 -0.00    +0.000 C 
DOCKED: BRANCH   4   8
DOCKED: ATOM      5  C   UNL     1      24.116 -17.651  -0.613 -0.66 -0.00    +0.000 A 
DOCKED: ATOM      6  C   UNL     1      24.563 -16.394  -1.064 -0.45 -0.00    +0.000 A 
DOCKED: ATOM      7  C   UNL     1      25.920 -16.059  -1.003 -0.43 -0.00    +0.000 A 
DOCKED: ATOM      8  C   UNL     1      26.852 -16.971  -0.487 -0.45 -0.00    +0.000 A 
DOCKED: ATOM      9  C   UNL     1      26.416 -18.235  -0.066 -0.55 -0.00    +0.000 A 
DOCKED: ATOM     10  C   UNL     1      25.061 -18.571  -0.129 -0.46 -0.00    +0.000 A 
DOCKED: BRANCH   5  12
DOCKED: ATOM     11  C   UNL     1      22.286 -19.341  -0.688 -0.77 -0.00    +0.000 C 
DOCKED: ATOM     12  C   UNL     1      22.691 -18.062  -0.671 -0.82 -0.00    +0.000 C 
DOCKED: BRANCH  11  14
DOCKED: ATOM     13  O   UNL     1      20.276 -19.706  -1.858 -2.32 -0.00    +0.000 OA
DOCKED: ATOM     14  C   UNL     1      20.865 -19.742  -0.744 -0.80 -0.00    +0.000 C 
DOCKED: ATOM     15  N   UNL     1      20.133 -20.142   0.421 -0.72 -0.00    +0.000 N 
DOCKED: ATOM     16  O   UNL     1      18.866 -20.602   0.301 -0.93 -0.00    +0.000 OA
DOCKED: ATOM     17  H   UNL     1      20.553 -20.081   1.309 -0.34 -0.00    +0.000 HD
DOCKED: ENDBRANCH  11  14
DOCKED: ENDBRANCH   5  12
DOCKED: ENDBRANCH   4   8
DOCKED: ENDBRANCH   1   4
DOCKED: BRANCH   1  18
DOCKED: ATOM     18  C   UNL     1      29.939 -15.067   0.493 -0.14 -0.00    +0.000 C 
DOCKED: BRANCH  18  19
DOCKED: ATOM     19  C   UNL     1      30.173 -13.915   1.481 -0.12 -0.00    +0.000 C 
DOCKED: BRANCH  19  20
DOCKED: ATOM     20  C   UNL     1      28.862 -13.399   2.004 -0.17 -0.00    +0.000 A 
DOCKED: ATOM     21  C   UNL     1      28.172 -13.831   3.137 -0.33 -0.00    +0.000 A 
DOCKED: ATOM     22  N   UNL     1      26.992 -13.178   3.257 -0.37 -0.00    +0.000 N 
DOCKED: ATOM     23  C   UNL     1      26.920 -12.353   2.199 -0.29 +0.00    +0.000 A 
DOCKED: ATOM     24  C   UNL     1      28.037 -12.464   1.409 -0.16 -0.00    +0.000 A 
DOCKED: ATOM     25  C   UNL     1      28.183 -11.721   0.237 -0.09 -0.00    +0.000 A 
DOCKED: ATOM     26  C   UNL     1      27.146 -10.837  -0.115 -0.14 +0.00    +0.000 A 
DOCKED: ATOM     27  C   UNL     1      25.999 -10.720   0.700 -0.29 +0.00    +0.000 A 
DOCKED: ATOM     28  C   UNL     1      25.877 -11.487   1.874 -0.25 +0.00    +0.000 A 
DOCKED: ATOM     29  C   UNL     1      28.652 -14.859   4.113 -0.43 -0.00    +0.000 C 
DOCKED: ATOM     30  H   UNL     1      26.324 -13.287   3.972 +0.00 +0.00    +0.000 HD
DOCKED: ENDBRANCH  19  20
DOCKED: ENDBRANCH  18  19
DOCKED: ENDBRANCH   1  18
DOCKED: TORSDOF 7
DOCKED: TER
DOCKED: ENDMDL
________________________________________________________________________________


	BEGINNING GENETIC ALGORITHM DOCKING 7 of 100
Run: 7 Seed: 1820823554 485643833 [ Run 7 of 100 GA/GALS ]
Beginning LAMARCKIAN GENETIC ALGORITHM (LGA), with a maximum of 2500000 energy evaluations.

Final-Value: -14.737


	FINAL GENETIC ALGORITHM DOCKED STATE
	_______________________________________________


Detailed state:  trans 27.907 -15.215 -0.890 quatxyzw -0.539686 -0.632424 -0.462402 -0.308162 center 0.578 -0.033 0.130 ntor 7 161.2867 -87.6011 -180.0000 -97.3223 68.0330 38.0771 101.0653
State:	 27.907 -15.215  -0.890  -0.567 -0.665 -0.486 -144.103    161.29  -87.60 -180.00  -97.32   68.03   38.08  101.07

DOCKED: MODEL        7
DOCKED: USER    Run = 7
DOCKED: USER    DPF = ligand_dock.biased.dpf
DOCKED: USER  
DOCKED: USER    Estimated Free Energy of Binding    =  -11.38 kcal/mol  [=(1)+(2)+(3)-(4)]
DOCKED: USER    Estimated Inhibition Constant, Ki   =    4.58 nM (nanomolar)  [Temperature = 298.15 K]
DOCKED: USER    
DOCKED: USER    (1) Final Intermolecular Energy     =  -13.46 kcal/mol
DOCKED: USER        vdW + Hbond + desolv Energy     =  -13.46 kcal/mol
DOCKED: USER        Electrostatic Energy            =   +0.00 kcal/mol
DOCKED: USER    (2) Final Total Internal Energy     =   -1.27 kcal/mol
DOCKED: USER    (3) Torsional Free Energy           =   +2.09 kcal/mol
DOCKED: USER    (4) Unbound System's Energy  [=(2)] =   -1.27 kcal/mol
DOCKED: USER    
DOCKED: USER    
DOCKED: USER    NEWDPF move ligand.pdbqt
DOCKED: USER    NEWDPF about 0.578000 -0.033000 0.130000
DOCKED: USER    NEWDPF tran0 27.907407 -15.215012 -0.890101
DOCKED: USER    NEWDPF quaternion0 -0.539686 -0.632424 -0.462402 -0.308162
DOCKED: USER    NEWDPF axisangle0 -0.567294 -0.664776 -0.486057 -144.103005
DOCKED: USER    NEWDPF quat0 -0.567294 -0.664776 -0.486057 -144.103005
DOCKED: USER    NEWDPF dihe0 161.29 -87.60 -180.00 -97.32 68.03 38.08 101.07 
DOCKED: USER  keepresnum = 1 
DOCKED: USER  
DOCKED: REMARK  Name = 
DOCKED: REMARK  8 active torsions:
DOCKED: REMARK  status: ('A' for Active; 'I' for Inactive)
DOCKED: REMARK    1  A    between atoms: C_2  and  C_3
DOCKED: REMARK    2  A    between atoms: C_4  and  C_5
DOCKED: REMARK    3  A    between atoms: C_8  and  C_9
DOCKED: REMARK    4  A    between atoms: C_9  and  N_10
DOCKED: REMARK    5  A    between atoms: N_10  and  C_11
DOCKED: REMARK    6  A    between atoms: C_11  and  C_12
DOCKED: REMARK    7  A    between atoms: C_12  and  C_13
DOCKED: REMARK    8  A    between atoms: C_14  and  C_22
DOCKED: REMARK                            x       y       z     vdW  Elec       q    Type
DOCKED: REMARK                         _______ _______ _______ _____ _____    ______ ____
DOCKED: USER                              x       y       z     vdW  Elec       q    Type
DOCKED: USER                           _______ _______ _______ _____ _____    ______ ____
DOCKED: ROOT
DOCKED: ATOM      1  N   UNL     1      28.195 -15.194  -1.613 -0.18 -0.00    +0.000 N 
DOCKED: ATOM      2  H   UNL     1      28.755 -14.422  -1.251 +0.01 -0.00    +0.000 HD
DOCKED: ATOM      3  H   UNL     1      27.305 -14.866  -1.988 +0.00 -0.00    +0.000 HD
DOCKED: ENDROOT
DOCKED: BRANCH   1   4
DOCKED: ATOM      4  C   UNL     1      27.904 -16.122  -0.512 -0.34 -0.00    +0.000 C 
DOCKED: BRANCH   4   8
DOCKED: ATOM      5  C   UNL     1      24.037 -17.938  -1.186 -0.69 -0.00    +0.000 A 
DOCKED: ATOM      6  C   UNL     1      24.386 -16.736  -1.832 -0.50 -0.00    +0.000 A 
DOCKED: ATOM      7  C   UNL     1      25.633 -16.144  -1.604 -0.48 -0.00    +0.000 A 
DOCKED: ATOM      8  C   UNL     1      26.550 -16.739  -0.725 -0.46 -0.00    +0.000 A 
DOCKED: ATOM      9  C   UNL     1      26.219 -17.952  -0.104 -0.56 -0.00    +0.000 A 
DOCKED: ATOM     10  C   UNL     1      24.974 -18.545  -0.334 -0.56 -0.00    +0.000 A 
DOCKED: BRANCH   5  12
DOCKED: ATOM     11  C   UNL     1      21.772 -18.695  -0.473 -0.85 -0.00    +0.000 C 
DOCKED: ATOM     12  C   UNL     1      22.735 -18.615  -1.405 -0.74 -0.00    +0.000 C 
DOCKED: BRANCH  11  14
DOCKED: ATOM     13  O   UNL     1      20.249 -19.863  -1.835 -2.35 -0.00    +0.000 OA
DOCKED: ATOM     14  C   UNL     1      20.477 -19.370  -0.699 -0.90 -0.00    +0.000 C 
DOCKED: ATOM     15  N   UNL     1      19.469 -19.456   0.316 -0.73 -0.00    +0.000 N 
DOCKED: ATOM     16  O   UNL     1      18.345 -20.176   0.096 -0.90 -0.00    +0.000 OA
DOCKED: ATOM     17  H   UNL     1      19.596 -18.991   1.175 -0.28 -0.00    +0.000 HD
DOCKED: ENDBRANCH  11  14
DOCKED: ENDBRANCH   5  12
DOCKED: ENDBRANCH   4   8
DOCKED: ENDBRANCH   1   4
DOCKED: BRANCH   1  18
DOCKED: ATOM     18  C   UNL     1      28.934 -15.840  -2.709 -0.23 -0.00    +0.000 C 
DOCKED: BRANCH  18  19
DOCKED: ATOM     19  C   UNL     1      28.088 -15.983  -3.984 -0.22 -0.00    +0.000 C 
DOCKED: BRANCH  19  20
DOCKED: ATOM     20  C   UNL     1      28.023 -14.674  -4.718 -0.30 -0.00    +0.000 A 
DOCKED: ATOM     21  C   UNL     1      27.085 -13.654  -4.550 -0.29 -0.00    +0.000 A 
DOCKED: ATOM     22  N   UNL     1      27.304 -12.652  -5.433 -0.22 -0.00    +0.000 N 
DOCKED: ATOM     23  C   UNL     1      28.359 -13.038  -6.172 -0.22 -0.00    +0.000 A 
DOCKED: ATOM     24  C   UNL     1      28.819 -14.267  -5.771 -0.28 -0.00    +0.000 A 
DOCKED: ATOM     25  C   UNL     1      29.896 -14.889  -6.404 -0.27 -0.00    +0.000 A 
DOCKED: ATOM     26  C   UNL     1      30.511 -14.211  -7.472 -0.20 -0.00    +0.000 A 
DOCKED: ATOM     27  C   UNL     1      30.040 -12.945  -7.882 -0.17 -0.00    +0.000 A 
DOCKED: ATOM     28  C   UNL     1      28.948 -12.344  -7.228 -0.18 -0.00    +0.000 A 
DOCKED: ATOM     29  C   UNL     1      25.988 -13.635  -3.532 -0.37 -0.00    +0.000 C 
DOCKED: ATOM     30  H   UNL     1      26.796 -11.813  -5.517 -0.01 -0.00    +0.000 HD
DOCKED: ENDBRANCH  19  20
DOCKED: ENDBRANCH  18  19
DOCKED: ENDBRANCH   1  18
DOCKED: TORSDOF 7
DOCKED: TER
DOCKED: ENDMDL
________________________________________________________________________________


	BEGINNING GENETIC ALGORITHM DOCKING 8 of 100
Run: 8 Seed: 317195304 1665294551 [ Run 8 of 100 GA/GALS ]
Beginning LAMARCKIAN GENETIC ALGORITHM (LGA), with a maximum of 2500000 energy evaluations.

Final-Value: -15.158


	FINAL GENETIC ALGORITHM DOCKED STATE
	_______________________________________________


Detailed state:  trans 28.339 -16.630 0.284 quatxyzw -0.215932 0.095244 -0.555711 -0.797174 center 0.578 -0.033 0.130 ntor 7 -127.2804 170.2565 154.8210 -115.8921 -175.5805 -151.1902 107.4364
State:	 28.339 -16.630   0.284  -0.358  0.158 -0.920 -74.278   -127.28  170.26  154.82 -115.89 -175.58 -151.19  107.44

DOCKED: MODEL        8
DOCKED: USER    Run = 8
DOCKED: USER    DPF = ligand_dock.biased.dpf
DOCKED: USER  
DOCKED: USER    Estimated Free Energy of Binding    =  -11.52 kcal/mol  [=(1)+(2)+(3)-(4)]
DOCKED: USER    Estimated Inhibition Constant, Ki   =    3.59 nM (nanomolar)  [Temperature = 298.15 K]
DOCKED: USER    
DOCKED: USER    (1) Final Intermolecular Energy     =  -13.61 kcal/mol
DOCKED: USER        vdW + Hbond + desolv Energy     =  -13.61 kcal/mol
DOCKED: USER        Electrostatic Energy            =   +0.00 kcal/mol
DOCKED: USER    (2) Final Total Internal Energy     =   -1.55 kcal/mol
DOCKED: USER    (3) Torsional Free Energy           =   +2.09 kcal/mol
DOCKED: USER    (4) Unbound System's Energy  [=(2)] =   -1.55 kcal/mol
DOCKED: USER    
DOCKED: USER    
DOCKED: USER    NEWDPF move ligand.pdbqt
DOCKED: USER    NEWDPF about 0.578000 -0.033000 0.130000
DOCKED: USER    NEWDPF tran0 28.338732 -16.630255 0.284405
DOCKED: USER    NEWDPF quaternion0 -0.215932 0.095244 -0.555711 -0.797174
DOCKED: USER    NEWDPF axisangle0 -0.357652 0.157754 -0.920434 -74.277795
DOCKED: USER    NEWDPF quat0 -0.357652 0.157754 -0.920434 -74.277795
DOCKED: USER    NEWDPF dihe0 -127.28 170.26 154.82 -115.89 -175.58 -151.19 107.44 
DOCKED: USER  keepresnum = 1 
DOCKED: USER  
DOCKED: REMARK  Name = 
DOCKED: REMARK  8 active torsions:
DOCKED: REMARK  status: ('A' for Active; 'I' for Inactive)
DOCKED: REMARK    1  A    between atoms: C_2  and  C_3
DOCKED: REMARK    2  A    between atoms: C_4  and  C_5
DOCKED: REMARK    3  A    between atoms: C_8  and  C_9
DOCKED: REMARK    4  A    between atoms: C_9  and  N_10
DOCKED: REMARK    5  A    between atoms: N_10  and  C_11
DOCKED: REMARK    6  A    between atoms: C_11  and  C_12
DOCKED: REMARK    7  A    between atoms: C_12  and  C_13
DOCKED: REMARK    8  A    between atoms: C_14  and  C_22
DOCKED: REMARK                            x       y       z     vdW  Elec       q    Type
DOCKED: REMARK                         _______ _______ _______ _____ _____    ______ ____
DOCKED: USER                              x       y       z     vdW  Elec       q    Type
DOCKED: USER                           _______ _______ _______ _____ _____    ______ ____
DOCKED: ROOT
DOCKED: ATOM      1  N   UNL     1      28.293 -15.876   0.470 -0.15 -0.00    +0.000 N 
DOCKED: ATOM      2  H   UNL     1      29.251 -16.010   0.794 -0.69 -0.00    +0.000 HD
DOCKED: ATOM      3  H   UNL     1      27.619 -16.070   1.210 -0.43 -0.00    +0.000 HD
DOCKED: ENDROOT
DOCKED: BRANCH   1   4
DOCKED: ATOM      4  C   UNL     1      28.032 -16.812  -0.631 -0.37 -0.00    +0.000 C 
DOCKED: BRANCH   4   8
DOCKED: ATOM      5  C   UNL     1      23.815 -17.745  -0.856 -0.69 -0.00    +0.000 A 
DOCKED: ATOM      6  C   UNL     1      24.375 -16.752  -1.684 -0.52 -0.00    +0.000 A 
DOCKED: ATOM      7  C   UNL     1      25.736 -16.443  -1.602 -0.49 -0.00    +0.000 A 
DOCKED: ATOM      8  C   UNL     1      26.562 -17.117  -0.690 -0.49 -0.00    +0.000 A 
DOCKED: ATOM      9  C   UNL     1      26.016 -18.128   0.114 -0.55 -0.00    +0.000 A 
DOCKED: ATOM     10  C   UNL     1      24.655 -18.439   0.030 -0.47 -0.00    +0.000 A 
DOCKED: BRANCH   5  12
DOCKED: ATOM     11  C   UNL     1      21.928 -19.363  -0.684 -0.79 -0.00    +0.000 C 
DOCKED: ATOM     12  C   UNL     1      22.381 -18.121  -0.915 -0.79 -0.00    +0.000 C 
DOCKED: BRANCH  11  14
DOCKED: ATOM     13  O   UNL     1      19.926 -19.733  -1.866 -2.39 -0.00    +0.000 OA
DOCKED: ATOM     14  C   UNL     1      20.498 -19.730  -0.743 -0.85 -0.00    +0.000 C 
DOCKED: ATOM     15  N   UNL     1      19.738 -20.052   0.428 -0.72 -0.00    +0.000 N 
DOCKED: ATOM     16  O   UNL     1      18.461 -20.485   0.311 -0.90 -0.00    +0.000 OA
DOCKED: ATOM     17  H   UNL     1      20.147 -19.958   1.319 -0.10 -0.00    +0.000 HD
DOCKED: ENDBRANCH  11  14
DOCKED: ENDBRANCH   5  12
DOCKED: ENDBRANCH   4   8
DOCKED: ENDBRANCH   1   4
DOCKED: BRANCH   1  18
DOCKED: ATOM     18  C   UNL     1      28.123 -14.472   0.064 -0.23 -0.00    +0.000 C 
DOCKED: BRANCH  18  19
DOCKED: ATOM     19  C   UNL     1      29.324 -13.941  -0.734 -0.08 -0.00    +0.000 C 
DOCKED: BRANCH  19  20
DOCKED: ATOM     20  C   UNL     1      29.524 -14.754  -1.982 -0.08 -0.00    +0.000 A 
DOCKED: ATOM     21  C   UNL     1      30.608 -15.576  -2.294 -0.07 -0.00    +0.000 A 
DOCKED: ATOM     22  N   UNL     1      30.471 -16.098  -3.535 -0.12 -0.00    +0.000 N 
DOCKED: ATOM     23  C   UNL     1      29.323 -15.596  -4.020 -0.20 -0.00    +0.000 A 
DOCKED: ATOM     24  C   UNL     1      28.721 -14.768  -3.105 -0.14 -0.00    +0.000 A 
DOCKED: ATOM     25  C   UNL     1      27.523 -14.110  -3.389 -0.22 -0.00    +0.000 A 
DOCKED: ATOM     26  C   UNL     1      26.937 -14.326  -4.649 -0.38 -0.00    +0.000 A 
DOCKED: ATOM     27  C   UNL     1      27.554 -15.181  -5.588 -0.33 +0.00    +0.000 A 
DOCKED: ATOM     28  C   UNL     1      28.765 -15.827  -5.276 -0.30 -0.00    +0.000 A 
DOCKED: ATOM     29  C   UNL     1      31.766 -15.873  -1.394 -0.05 -0.00    +0.000 C 
DOCKED: ATOM     30  H   UNL     1      31.088 -16.717  -3.990 +0.00 -0.00    +0.000 HD
DOCKED: ENDBRANCH  19  20
DOCKED: ENDBRANCH  18  19
DOCKED: ENDBRANCH   1  18
DOCKED: TORSDOF 7
DOCKED: TER
DOCKED: ENDMDL
________________________________________________________________________________


	BEGINNING GENETIC ALGORITHM DOCKING 9 of 100
Run: 9 Seed: 795217986 412359782 [ Run 9 of 100 GA/GALS ]
Beginning LAMARCKIAN GENETIC ALGORITHM (LGA), with a maximum of 2500000 energy evaluations.

Final-Value: -15.537


	FINAL GENETIC ALGORITHM DOCKED STATE
	_______________________________________________


Detailed state:  trans 28.147 -16.898 -0.638 quatxyzw 0.045324 -0.917048 0.357781 0.170183 center 0.578 -0.033 0.130 ntor 7 -180.0000 76.8932 175.4625 173.4547 157.8084 -170.6795 4.3014
State:	 28.147 -16.898  -0.638   0.046 -0.931  0.363 160.403   -180.00   76.89  175.46  173.45  157.81 -170.68    4.30

DOCKED: MODEL        9
DOCKED: USER    Run = 9
DOCKED: USER    DPF = ligand_dock.biased.dpf
DOCKED: USER  
DOCKED: USER    Estimated Free Energy of Binding    =  -11.63 kcal/mol  [=(1)+(2)+(3)-(4)]
DOCKED: USER    Estimated Inhibition Constant, Ki   =    2.98 nM (nanomolar)  [Temperature = 298.15 K]
DOCKED: USER    
DOCKED: USER    (1) Final Intermolecular Energy     =  -13.72 kcal/mol
DOCKED: USER        vdW + Hbond + desolv Energy     =  -13.72 kcal/mol
DOCKED: USER        Electrostatic Energy            =   +0.00 kcal/mol
DOCKED: USER    (2) Final Total Internal Energy     =   -1.82 kcal/mol
DOCKED: USER    (3) Torsional Free Energy           =   +2.09 kcal/mol
DOCKED: USER    (4) Unbound System's Energy  [=(2)] =   -1.82 kcal/mol
DOCKED: USER    
DOCKED: USER    
DOCKED: USER    NEWDPF move ligand.pdbqt
DOCKED: USER    NEWDPF about 0.578000 -0.033000 0.130000
DOCKED: USER    NEWDPF tran0 28.146758 -16.897705 -0.638442
DOCKED: USER    NEWDPF quaternion0 0.045324 -0.917048 0.357781 0.170183
DOCKED: USER    NEWDPF axisangle0 0.045995 -0.930623 0.363077 160.403069
DOCKED: USER    NEWDPF quat0 0.045995 -0.930623 0.363077 160.403069
DOCKED: USER    NEWDPF dihe0 -180.00 76.89 175.46 173.45 157.81 -170.68 4.30 
DOCKED: USER  keepresnum = 1 
DOCKED: USER  
DOCKED: REMARK  Name = 
DOCKED: REMARK  8 active torsions:
DOCKED: REMARK  status: ('A' for Active; 'I' for Inactive)
DOCKED: REMARK    1  A    between atoms: C_2  and  C_3
DOCKED: REMARK    2  A    between atoms: C_4  and  C_5
DOCKED: REMARK    3  A    between atoms: C_8  and  C_9
DOCKED: REMARK    4  A    between atoms: C_9  and  N_10
DOCKED: REMARK    5  A    between atoms: N_10  and  C_11
DOCKED: REMARK    6  A    between atoms: C_11  and  C_12
DOCKED: REMARK    7  A    between atoms: C_12  and  C_13
DOCKED: REMARK    8  A    between atoms: C_14  and  C_22
DOCKED: REMARK                            x       y       z     vdW  Elec       q    Type
DOCKED: REMARK                         _______ _______ _______ _____ _____    ______ ____
DOCKED: USER                              x       y       z     vdW  Elec       q    Type
DOCKED: USER                           _______ _______ _______ _____ _____    ______ ____
DOCKED: ROOT
DOCKED: ATOM      1  N   UNL     1      28.920 -16.893  -0.731 -0.28 -0.00    +0.000 N 
DOCKED: ATOM      2  H   UNL     1      28.690 -16.938  -1.725 -0.01 -0.00    +0.000 HD
DOCKED: ATOM      3  H   UNL     1      29.002 -17.825  -0.325 -0.47 -0.00    +0.000 HD
DOCKED: ENDROOT
DOCKED: BRANCH   1   4
DOCKED: ATOM      4  C   UNL     1      27.837 -16.192  -0.029 -0.32 -0.00    +0.000 C 
DOCKED: BRANCH   4   8
DOCKED: ATOM      5  C   UNL     1      24.005 -17.903  -1.079 -0.69 -0.00    +0.000 A 
DOCKED: ATOM      6  C   UNL     1      24.917 -18.622  -0.281 -0.50 -0.00    +0.000 A 
DOCKED: ATOM      7  C   UNL     1      26.160 -18.072   0.048 -0.57 -0.00    +0.000 A 
DOCKED: ATOM      8  C   UNL     1      26.517 -16.797  -0.417 -0.45 -0.00    +0.000 A 
DOCKED: ATOM      9  C   UNL     1      25.599 -16.065  -1.185 -0.46 -0.00    +0.000 A 
DOCKED: ATOM     10  C   UNL     1      24.356 -16.614  -1.512 -0.50 -0.00    +0.000 A 
DOCKED: BRANCH   5  12
DOCKED: ATOM     11  C   UNL     1      21.774 -18.877  -0.545 -0.84 -0.00    +0.000 C 
DOCKED: ATOM     12  C   UNL     1      22.669 -18.434  -1.443 -0.66 -0.00    +0.000 C 
DOCKED: BRANCH  11  14
DOCKED: ATOM     13  O   UNL     1      20.246 -19.740  -2.113 -2.34 -0.00    +0.000 OA
DOCKED: ATOM     14  C   UNL     1      20.445 -19.404  -0.915 -0.89 -0.00    +0.000 C 
DOCKED: ATOM     15  N   UNL     1      19.374 -19.518   0.030 -0.76 -0.00    +0.000 N 
DOCKED: ATOM     16  O   UNL     1      18.209 -20.105  -0.332 -0.95 -0.00    +0.000 OA
DOCKED: ATOM     17  H   UNL     1      19.486 -19.168   0.943 -0.18 -0.00    +0.000 HD
DOCKED: ENDBRANCH  11  14
DOCKED: ENDBRANCH   5  12
DOCKED: ENDBRANCH   4   8
DOCKED: ENDBRANCH   1   4
DOCKED: BRANCH   1  18
DOCKED: ATOM     18  C   UNL     1      30.217 -16.217  -0.575 -0.17 -0.00    +0.000 C 
DOCKED: BRANCH  18  19
DOCKED: ATOM     19  C   UNL     1      30.560 -15.319  -1.774 -0.07 -0.00    +0.000 C 
DOCKED: BRANCH  19  20
DOCKED: ATOM     20  C   UNL     1      29.604 -15.570  -2.906 -0.14 -0.00    +0.000 A 
DOCKED: ATOM     21  C   UNL     1      29.773 -16.444  -3.980 -0.22 -0.00    +0.000 A 
DOCKED: ATOM     22  N   UNL     1      28.731 -16.355  -4.839 -0.28 -0.00    +0.000 N 
DOCKED: ATOM     23  C   UNL     1      27.915 -15.416  -4.329 -0.32 -0.00    +0.000 A 
DOCKED: ATOM     24  C   UNL     1      28.416 -14.910  -3.156 -0.18 -0.00    +0.000 A 
DOCKED: ATOM     25  C   UNL     1      27.756 -13.904  -2.450 -0.16 -0.00    +0.000 A 
DOCKED: ATOM     26  C   UNL     1      26.542 -13.422  -2.973 -0.21 -0.00    +0.000 A 
DOCKED: ATOM     27  C   UNL     1      26.024 -13.946  -4.177 -0.42 -0.00    +0.000 A 
DOCKED: ATOM     28  C   UNL     1      26.715 -14.957  -4.871 -0.46 -0.00    +0.000 A 
DOCKED: ATOM     29  C   UNL     1      30.927 -17.377  -4.174 -0.20 -0.00    +0.000 C 
DOCKED: ATOM     30  H   UNL     1      28.598 -16.871  -5.667 -0.03 -0.00    +0.000 HD
DOCKED: ENDBRANCH  19  20
DOCKED: ENDBRANCH  18  19
DOCKED: ENDBRANCH   1  18
DOCKED: TORSDOF 7
DOCKED: TER
DOCKED: ENDMDL
________________________________________________________________________________


	BEGINNING GENETIC ALGORITHM DOCKING 10 of 100
Run: 10 Seed: 1999111844 1842535088 [ Run 10 of 100 GA/GALS ]
Beginning LAMARCKIAN GENETIC ALGORITHM (LGA), with a maximum of 2500000 energy evaluations.

Final-Value: -15.163


	FINAL GENETIC ALGORITHM DOCKED STATE
	_______________________________________________


Detailed state:  trans 28.916 -17.056 -2.015 quatxyzw 0.004460 0.974475 -0.217125 0.056886 center 0.578 -0.033 0.130 ntor 7 153.5410 -161.0055 178.9754 171.5492 3.6527 -170.7198 2.0934
State:	 28.916 -17.056  -2.015   0.004  0.976 -0.217 173.478    153.54 -161.01  178.98  171.55    3.65 -170.72    2.09

DOCKED: MODEL       10
DOCKED: USER    Run = 10
DOCKED: USER    DPF = ligand_dock.biased.dpf
DOCKED: USER  
DOCKED: USER    Estimated Free Energy of Binding    =  -11.22 kcal/mol  [=(1)+(2)+(3)-(4)]
DOCKED: USER    Estimated Inhibition Constant, Ki   =    5.94 nM (nanomolar)  [Temperature = 298.15 K]
DOCKED: USER    
DOCKED: USER    (1) Final Intermolecular Energy     =  -13.31 kcal/mol
DOCKED: USER        vdW + Hbond + desolv Energy     =  -13.31 kcal/mol
DOCKED: USER        Electrostatic Energy            =   +0.00 kcal/mol
DOCKED: USER    (2) Final Total Internal Energy     =   -1.85 kcal/mol
DOCKED: USER    (3) Torsional Free Energy           =   +2.09 kcal/mol
DOCKED: USER    (4) Unbound System's Energy  [=(2)] =   -1.85 kcal/mol
DOCKED: USER    
DOCKED: USER    
DOCKED: USER    NEWDPF move ligand.pdbqt
DOCKED: USER    NEWDPF about 0.578000 -0.033000 0.130000
DOCKED: USER    NEWDPF tran0 28.915569 -17.055798 -2.014589
DOCKED: USER    NEWDPF quaternion0 0.004460 0.974475 -0.217125 0.056886
DOCKED: USER    NEWDPF axisangle0 0.004467 0.976055 -0.217477 173.477814
DOCKED: USER    NEWDPF quat0 0.004467 0.976055 -0.217477 173.477814
DOCKED: USER    NEWDPF dihe0 153.54 -161.01 178.98 171.55 3.65 -170.72 2.09 
DOCKED: USER  keepresnum = 1 
DOCKED: USER  
DOCKED: REMARK  Name = 
DOCKED: REMARK  8 active torsions:
DOCKED: REMARK  status: ('A' for Active; 'I' for Inactive)
DOCKED: REMARK    1  A    between atoms: C_2  and  C_3
DOCKED: REMARK    2  A    between atoms: C_4  and  C_5
DOCKED: REMARK    3  A    between atoms: C_8  and  C_9
DOCKED: REMARK    4  A    between atoms: C_9  and  N_10
DOCKED: REMARK    5  A    between atoms: N_10  and  C_11
DOCKED: REMARK    6  A    between atoms: C_11  and  C_12
DOCKED: REMARK    7  A    between atoms: C_12  and  C_13
DOCKED: REMARK    8  A    between atoms: C_14  and  C_22
DOCKED: REMARK                            x       y       z     vdW  Elec       q    Type
DOCKED: REMARK                         _______ _______ _______ _____ _____    ______ ____
DOCKED: USER                              x       y       z     vdW  Elec       q    Type
DOCKED: USER                           _______ _______ _______ _____ _____    ______ ____
DOCKED: ROOT
DOCKED: ATOM      1  N   UNL     1      29.573 -17.130  -2.426 -0.23 -0.00    +0.000 N 
DOCKED: ATOM      2  H   UNL     1      28.993 -16.814  -3.203 -0.02 -0.00    +0.000 HD
DOCKED: ATOM      3  H   UNL     1      29.549 -18.146  -2.331 -0.02 -0.00    +0.000 HD
DOCKED: ENDROOT
DOCKED: BRANCH   1   4
DOCKED: ATOM      4  C   UNL     1      29.048 -16.552  -1.181 -0.27 -0.00    +0.000 C 
DOCKED: BRANCH   4   8
DOCKED: ATOM      5  C   UNL     1      24.770 -17.182  -1.086 -0.61 -0.00    +0.000 A 
DOCKED: ATOM      6  C   UNL     1      25.318 -16.083  -1.779 -0.49 -0.00    +0.000 A 
DOCKED: ATOM      7  C   UNL     1      26.701 -15.875  -1.798 -0.36 -0.00    +0.000 A 
DOCKED: ATOM      8  C   UNL     1      27.560 -16.756  -1.125 -0.37 -0.00    +0.000 A 
DOCKED: ATOM      9  C   UNL     1      27.022 -17.868  -0.462 -0.46 -0.00    +0.000 A 
DOCKED: ATOM     10  C   UNL     1      25.640 -18.078  -0.443 -0.61 -0.00    +0.000 A 
DOCKED: BRANCH   5  12
DOCKED: ATOM     11  C   UNL     1      22.775 -18.539  -0.463 -0.83 -0.00    +0.000 C 
DOCKED: ATOM     12  C   UNL     1      23.312 -17.457  -1.047 -0.73 -0.00    +0.000 C 
DOCKED: BRANCH  11  14
DOCKED: ATOM     13  O   UNL     1      20.537 -17.894  -0.801 -2.28 -0.00    +0.000 OA
DOCKED: ATOM     14  C   UNL     1      21.322 -18.806  -0.427 -0.84 -0.00    +0.000 C 
DOCKED: ATOM     15  N   UNL     1      20.781 -20.046   0.043 -0.69 -0.00    +0.000 N 
DOCKED: ATOM     16  O   UNL     1      19.451 -20.282  -0.044 -1.19 -0.00    +0.000 OA
DOCKED: ATOM     17  H   UNL     1      21.378 -20.728   0.428 -0.61 -0.00    +0.000 HD
DOCKED: ENDBRANCH  11  14
DOCKED: ENDBRANCH   5  12
DOCKED: ENDBRANCH   4   8
DOCKED: ENDBRANCH   1   4
DOCKED: BRANCH   1  18
DOCKED: ATOM     18  C   UNL     1      30.966 -16.735  -2.683 -0.12 -0.00    +0.000 C 
DOCKED: BRANCH  18  19
DOCKED: ATOM     19  C   UNL     1      31.070 -15.553  -3.659 -0.08 -0.00    +0.000 C 
DOCKED: BRANCH  19  20
DOCKED: ATOM     20  C   UNL     1      29.748 -15.310  -4.331 -0.16 -0.00    +0.000 A 
DOCKED: ATOM     21  C   UNL     1      29.291 -15.865  -5.526 -0.31 -0.00    +0.000 A 
DOCKED: ATOM     22  N   UNL     1      28.077 -15.363  -5.854 -0.39 +0.00    +0.000 N 
DOCKED: ATOM     23  C   UNL     1      27.773 -14.480  -4.888 -0.33 -0.00    +0.000 A 
DOCKED: ATOM     24  C   UNL     1      28.769 -14.414  -3.946 -0.15 -0.00    +0.000 A 
DOCKED: ATOM     25  C   UNL     1      28.691 -13.548  -2.855 -0.09 -0.00    +0.000 A 
DOCKED: ATOM     26  C   UNL     1      27.546 -12.740  -2.738 -0.13 -0.00    +0.000 A 
DOCKED: ATOM     27  C   UNL     1      26.519 -12.810  -3.704 -0.24 -0.00    +0.000 A 
DOCKED: ATOM     28  C   UNL     1      26.628 -13.689  -4.798 -0.30 -0.00    +0.000 A 
DOCKED: ATOM     29  C   UNL     1      30.011 -16.889  -6.346 -0.34 -0.00    +0.000 C 
DOCKED: ATOM     30  H   UNL     1      27.530 -15.597  -6.639 -0.07 +0.00    +0.000 HD
DOCKED: ENDBRANCH  19  20
DOCKED: ENDBRANCH  18  19
DOCKED: ENDBRANCH   1  18
DOCKED: TORSDOF 7
DOCKED: TER
DOCKED: ENDMDL
________________________________________________________________________________


	BEGINNING GENETIC ALGORITHM DOCKING 11 of 100
Run: 11 Seed: 85121291 1721082903 [ Run 11 of 100 GA/GALS ]
Beginning LAMARCKIAN GENETIC ALGORITHM (LGA), with a maximum of 2500000 energy evaluations.

Final-Value: -15.119


	FINAL GENETIC ALGORITHM DOCKED STATE
	_______________________________________________


Detailed state:  trans 28.936 -16.431 -1.439 quatxyzw 0.038519 -0.514894 0.092891 0.851335 center 0.578 -0.033 0.130 ntor 7 -26.4654 -104.3089 -179.8496 6.3358 44.8735 173.1124 138.1302
State:	 28.936 -16.431  -1.439   0.073 -0.981  0.177 63.286    -26.47 -104.31 -179.85    6.34   44.87  173.11  138.13

DOCKED: MODEL       11
DOCKED: USER    Run = 11
DOCKED: USER    DPF = ligand_dock.biased.dpf
DOCKED: USER  
DOCKED: USER    Estimated Free Energy of Binding    =  -11.93 kcal/mol  [=(1)+(2)+(3)-(4)]
DOCKED: USER    Estimated Inhibition Constant, Ki   =    1.80 nM (nanomolar)  [Temperature = 298.15 K]
DOCKED: USER    
DOCKED: USER    (1) Final Intermolecular Energy     =  -14.02 kcal/mol
DOCKED: USER        vdW + Hbond + desolv Energy     =  -14.02 kcal/mol
DOCKED: USER        Electrostatic Energy            =   +0.00 kcal/mol
DOCKED: USER    (2) Final Total Internal Energy     =   -1.10 kcal/mol
DOCKED: USER    (3) Torsional Free Energy           =   +2.09 kcal/mol
DOCKED: USER    (4) Unbound System's Energy  [=(2)] =   -1.10 kcal/mol
DOCKED: USER    
DOCKED: USER    
DOCKED: USER    NEWDPF move ligand.pdbqt
DOCKED: USER    NEWDPF about 0.578000 -0.033000 0.130000
DOCKED: USER    NEWDPF tran0 28.936207 -16.431166 -1.439062
DOCKED: USER    NEWDPF quaternion0 0.038519 -0.514894 0.092891 0.851335
DOCKED: USER    NEWDPF axisangle0 0.073422 -0.981457 0.177062 63.285554
DOCKED: USER    NEWDPF quat0 0.073422 -0.981457 0.177062 63.285554
DOCKED: USER    NEWDPF dihe0 -26.47 -104.31 -179.85 6.34 44.87 173.11 138.13 
DOCKED: USER  keepresnum = 1 
DOCKED: USER  
DOCKED: REMARK  Name = 
DOCKED: REMARK  8 active torsions:
DOCKED: REMARK  status: ('A' for Active; 'I' for Inactive)
DOCKED: REMARK    1  A    between atoms: C_2  and  C_3
DOCKED: REMARK    2  A    between atoms: C_4  and  C_5
DOCKED: REMARK    3  A    between atoms: C_8  and  C_9
DOCKED: REMARK    4  A    between atoms: C_9  and  N_10
DOCKED: REMARK    5  A    between atoms: N_10  and  C_11
DOCKED: REMARK    6  A    between atoms: C_11  and  C_12
DOCKED: REMARK    7  A    between atoms: C_12  and  C_13
DOCKED: REMARK    8  A    between atoms: C_14  and  C_22
DOCKED: REMARK                            x       y       z     vdW  Elec       q    Type
DOCKED: REMARK                         _______ _______ _______ _____ _____    ______ ____
DOCKED: USER                              x       y       z     vdW  Elec       q    Type
DOCKED: USER                           _______ _______ _______ _____ _____    ______ ____
DOCKED: ROOT
DOCKED: ATOM      1  N   UNL     1      28.920 -16.208  -0.693 -0.23 -0.00    +0.000 N 
DOCKED: ATOM      2  H   UNL     1      29.779 -15.714  -0.936 -0.00 -0.00    +0.000 HD
DOCKED: ATOM      3  H   UNL     1      29.113 -17.159  -0.377 -0.12 -0.00    +0.000 HD
DOCKED: ENDROOT
DOCKED: BRANCH   1   4
DOCKED: ATOM      4  C   UNL     1      28.074 -16.298  -1.891 -0.32 -0.00    +0.000 C 
DOCKED: BRANCH   4   8
DOCKED: ATOM      5  C   UNL     1      24.295 -18.089  -0.785 -0.69 -0.00    +0.000 A 
DOCKED: ATOM      6  C   UNL     1      25.508 -18.607  -0.287 -0.52 -0.00    +0.000 A 
DOCKED: ATOM      7  C   UNL     1      26.729 -18.034  -0.655 -0.47 -0.00    +0.000 A 
DOCKED: ATOM      8  C   UNL     1      26.762 -16.937  -1.528 -0.41 -0.00    +0.000 A 
DOCKED: ATOM      9  C   UNL     1      25.557 -16.398  -2.001 -0.50 -0.00    +0.000 A 
DOCKED: ATOM     10  C   UNL     1      24.336 -16.969  -1.632 -0.55 -0.00    +0.000 A 
DOCKED: BRANCH   5  12
DOCKED: ATOM     11  C   UNL     1      22.047 -19.028  -1.309 -0.74 -0.00    +0.000 C 
DOCKED: ATOM     12  C   UNL     1      22.973 -18.650  -0.413 -0.82 -0.00    +0.000 C 
DOCKED: BRANCH  11  14
DOCKED: ATOM     13  O   UNL     1      19.865 -19.735  -1.833 -2.39 -0.00    +0.000 OA
DOCKED: ATOM     14  C   UNL     1      20.733 -19.587  -0.932 -0.85 -0.00    +0.000 C 
DOCKED: ATOM     15  N   UNL     1      20.405 -19.936   0.419 -0.71 -0.00    +0.000 N 
DOCKED: ATOM     16  O   UNL     1      19.228 -20.543   0.696 -0.85 -0.00    +0.000 OA
DOCKED: ATOM     17  H   UNL     1      21.038 -19.734   1.145 -0.48 -0.00    +0.000 HD
DOCKED: ENDBRANCH  11  14
DOCKED: ENDBRANCH   5  12
DOCKED: ENDBRANCH   4   8
DOCKED: ENDBRANCH   1   4
DOCKED: BRANCH   1  18
DOCKED: ATOM     18  C   UNL     1      28.257 -15.493   0.408 -0.22 -0.00    +0.000 C 
DOCKED: BRANCH  18  19
DOCKED: ATOM     19  C   UNL     1      28.949 -14.163   0.745 -0.17 -0.00    +0.000 C 
DOCKED: BRANCH  19  20
DOCKED: ATOM     20  C   UNL     1      28.265 -13.497   1.906 -0.21 -0.00    +0.000 A 
DOCKED: ATOM     21  C   UNL     1      27.194 -12.605   1.861 -0.26 -0.00    +0.000 A 
DOCKED: ATOM     22  N   UNL     1      26.887 -12.161   3.102 -0.22 +0.00    +0.000 N 
DOCKED: ATOM     23  C   UNL     1      27.771 -12.746   3.929 -0.34 -0.00    +0.000 A 
DOCKED: ATOM     24  C   UNL     1      28.630 -13.561   3.237 -0.27 -0.00    +0.000 A 
DOCKED: ATOM     25  C   UNL     1      29.653 -14.262   3.878 -0.30 -0.00    +0.000 A 
DOCKED: ATOM     26  C   UNL     1      29.776 -14.116   5.272 -0.31 -0.00    +0.000 A 
DOCKED: ATOM     27  C   UNL     1      28.888 -13.280   5.985 -0.39 -0.00    +0.000 A 
DOCKED: ATOM     28  C   UNL     1      27.870 -12.581   5.310 -0.40 +0.00    +0.000 A 
DOCKED: ATOM     29  C   UNL     1      26.452 -12.192   0.628 -0.29 -0.00    +0.000 C 
DOCKED: ATOM     30  H   UNL     1      26.167 -11.536   3.348 +0.02 +0.00    +0.000 HD
DOCKED: ENDBRANCH  19  20
DOCKED: ENDBRANCH  18  19
DOCKED: ENDBRANCH   1  18
DOCKED: TORSDOF 7
DOCKED: TER
DOCKED: ENDMDL
________________________________________________________________________________


	BEGINNING GENETIC ALGORITHM DOCKING 12 of 100
Run: 12 Seed: 1111386903 522031559 [ Run 12 of 100 GA/GALS ]
Beginning LAMARCKIAN GENETIC ALGORITHM (LGA), with a maximum of 2500000 energy evaluations.

Final-Value: -15.286


	FINAL GENETIC ALGORITHM DOCKED STATE
	_______________________________________________


Detailed state:  trans 27.974 -16.314 -0.222 quatxyzw 0.015923 -0.279824 -0.937019 -0.208422 center 0.578 -0.033 0.130 ntor 7 -81.3953 146.4819 3.7312 -94.5378 178.2635 77.0074 7.9234
State:	 27.974 -16.314  -0.222   0.016 -0.286 -0.958 -155.940    -81.40  146.48    3.73  -94.54  178.26   77.01    7.92

DOCKED: MODEL       12
DOCKED: USER    Run = 12
DOCKED: USER    DPF = ligand_dock.biased.dpf
DOCKED: USER  
DOCKED: USER    Estimated Free Energy of Binding    =  -11.97 kcal/mol  [=(1)+(2)+(3)-(4)]
DOCKED: USER    Estimated Inhibition Constant, Ki   =    1.68 nM (nanomolar)  [Temperature = 298.15 K]
DOCKED: USER    
DOCKED: USER    (1) Final Intermolecular Energy     =  -14.06 kcal/mol
DOCKED: USER        vdW + Hbond + desolv Energy     =  -14.06 kcal/mol
DOCKED: USER        Electrostatic Energy            =   +0.00 kcal/mol
DOCKED: USER    (2) Final Total Internal Energy     =   -1.23 kcal/mol
DOCKED: USER    (3) Torsional Free Energy           =   +2.09 kcal/mol
DOCKED: USER    (4) Unbound System's Energy  [=(2)] =   -1.23 kcal/mol
DOCKED: USER    
DOCKED: USER    
DOCKED: USER    NEWDPF move ligand.pdbqt
DOCKED: USER    NEWDPF about 0.578000 -0.033000 0.130000
DOCKED: USER    NEWDPF tran0 27.973603 -16.313647 -0.222218
DOCKED: USER    NEWDPF quaternion0 0.015923 -0.279824 -0.937019 -0.208422
DOCKED: USER    NEWDPF axisangle0 0.016281 -0.286107 -0.958059 -155.940265
DOCKED: USER    NEWDPF quat0 0.016281 -0.286107 -0.958059 -155.940265
DOCKED: USER    NEWDPF dihe0 -81.40 146.48 3.73 -94.54 178.26 77.01 7.92 
DOCKED: USER  keepresnum = 1 
DOCKED: USER  
DOCKED: REMARK  Name = 
DOCKED: REMARK  8 active torsions:
DOCKED: REMARK  status: ('A' for Active; 'I' for Inactive)
DOCKED: REMARK    1  A    between atoms: C_2  and  C_3
DOCKED: REMARK    2  A    between atoms: C_4  and  C_5
DOCKED: REMARK    3  A    between atoms: C_8  and  C_9
DOCKED: REMARK    4  A    between atoms: C_9  and  N_10
DOCKED: REMARK    5  A    between atoms: N_10  and  C_11
DOCKED: REMARK    6  A    between atoms: C_11  and  C_12
DOCKED: REMARK    7  A    between atoms: C_12  and  C_13
DOCKED: REMARK    8  A    between atoms: C_14  and  C_22
DOCKED: REMARK                            x       y       z     vdW  Elec       q    Type
DOCKED: REMARK                         _______ _______ _______ _____ _____    ______ ____
DOCKED: USER                              x       y       z     vdW  Elec       q    Type
DOCKED: USER                           _______ _______ _______ _____ _____    ______ ____
DOCKED: ROOT
DOCKED: ATOM      1  N   UNL     1      28.601 -15.937   0.044 -0.24 -0.00    +0.000 N 
DOCKED: ATOM      2  H   UNL     1      28.289 -16.284   0.951 -0.60 -0.00    +0.000 HD
DOCKED: ATOM      3  H   UNL     1      28.184 -15.032  -0.173 -0.01 -0.00    +0.000 HD
DOCKED: ENDROOT
DOCKED: BRANCH   1   4
DOCKED: ATOM      4  C   UNL     1      28.177 -16.886  -0.994 -0.37 -0.00    +0.000 C 
DOCKED: BRANCH   4   8
DOCKED: ATOM      5  C   UNL     1      23.922 -17.615  -0.729 -0.67 -0.00    +0.000 A 
DOCKED: ATOM      6  C   UNL     1      24.423 -16.582  -1.547 -0.50 -0.00    +0.000 A 
DOCKED: ATOM      7  C   UNL     1      25.799 -16.341  -1.622 -0.48 -0.00    +0.000 A 
DOCKED: ATOM      8  C   UNL     1      26.697 -17.122  -0.880 -0.47 -0.00    +0.000 A 
DOCKED: ATOM      9  C   UNL     1      26.205 -18.171  -0.091 -0.58 -0.00    +0.000 A 
DOCKED: ATOM     10  C   UNL     1      24.831 -18.414  -0.017 -0.49 -0.00    +0.000 A 
DOCKED: BRANCH   5  12
DOCKED: ATOM     11  C   UNL     1      21.949 -19.129  -0.889 -0.81 -0.00    +0.000 C 
DOCKED: ATOM     12  C   UNL     1      22.474 -17.923  -0.626 -0.82 -0.00    +0.000 C 
DOCKED: BRANCH  11  14
DOCKED: ATOM     13  O   UNL     1      19.879 -19.732  -1.833 -2.40 -0.00    +0.000 OA
DOCKED: ATOM     14  C   UNL     1      20.507 -19.429  -0.783 -0.89 -0.00    +0.000 C 
DOCKED: ATOM     15  N   UNL     1      19.797 -19.358   0.459 -0.69 -0.00    +0.000 N 
DOCKED: ATOM     16  O   UNL     1      18.501 -19.745   0.524 -0.77 -0.00    +0.000 OA
DOCKED: ATOM     17  H   UNL     1      20.253 -19.028   1.267 -0.23 -0.00    +0.000 HD
DOCKED: ENDBRANCH  11  14
DOCKED: ENDBRANCH   5  12
DOCKED: ENDBRANCH   4   8
DOCKED: ENDBRANCH   1   4
DOCKED: BRANCH   1  18
DOCKED: ATOM     18  C   UNL     1      30.061 -15.763   0.080 -0.15 -0.00    +0.000 C 
DOCKED: BRANCH  18  19
DOCKED: ATOM     19  C   UNL     1      30.474 -14.362   0.557 -0.10 -0.00    +0.000 C 
DOCKED: BRANCH  19  20
DOCKED: ATOM     20  C   UNL     1      30.428 -14.286   2.057 -0.13 -0.00    +0.000 A 
DOCKED: ATOM     21  C   UNL     1      31.482 -14.489   2.949 -0.17 -0.00    +0.000 A 
DOCKED: ATOM     22  N   UNL     1      31.050 -14.402   4.229 -0.26 -0.00    +0.000 N 
DOCKED: ATOM     23  C   UNL     1      29.729 -14.168   4.155 -0.31 -0.00    +0.000 A 
DOCKED: ATOM     24  C   UNL     1      29.312 -14.098   2.849 -0.22 -0.00    +0.000 A 
DOCKED: ATOM     25  C   UNL     1      27.973 -13.885   2.517 -0.29 -0.00    +0.000 A 
DOCKED: ATOM     26  C   UNL     1      27.051 -13.733   3.568 -0.37 -0.00    +0.000 A 
DOCKED: ATOM     27  C   UNL     1      27.481 -13.801   4.912 -0.48 -0.00    +0.000 A 
DOCKED: ATOM     28  C   UNL     1      28.837 -14.023   5.217 -0.43 -0.00    +0.000 A 
DOCKED: ATOM     29  C   UNL     1      32.907 -14.749   2.573 -0.11 -0.00    +0.000 C 
DOCKED: ATOM     30  H   UNL     1      31.592 -14.492   5.046 -0.02 -0.00    +0.000 HD
DOCKED: ENDBRANCH  19  20
DOCKED: ENDBRANCH  18  19
DOCKED: ENDBRANCH   1  18
DOCKED: TORSDOF 7
DOCKED: TER
DOCKED: ENDMDL
________________________________________________________________________________


	BEGINNING GENETIC ALGORITHM DOCKING 13 of 100
Run: 13 Seed: 470188465 619532298 [ Run 13 of 100 GA/GALS ]
Beginning LAMARCKIAN GENETIC ALGORITHM (LGA), with a maximum of 2500000 energy evaluations.

Final-Value: -15.378


	FINAL GENETIC ALGORITHM DOCKED STATE
	_______________________________________________


Detailed state:  trans 29.121 -15.384 -1.146 quatxyzw 0.430335 -0.506264 -0.361223 0.654237 center 0.578 -0.033 0.130 ntor 7 167.4645 -177.1138 45.8834 60.5908 167.7689 -173.1315 -125.9360
State:	 29.121 -15.384  -1.146   0.569 -0.669 -0.478 98.276    167.46 -177.11   45.88   60.59  167.77 -173.13 -125.94

DOCKED: MODEL       13
DOCKED: USER    Run = 13
DOCKED: USER    DPF = ligand_dock.biased.dpf
DOCKED: USER  
DOCKED: USER    Estimated Free Energy of Binding    =  -12.16 kcal/mol  [=(1)+(2)+(3)-(4)]
DOCKED: USER    Estimated Inhibition Constant, Ki   =    1.22 nM (nanomolar)  [Temperature = 298.15 K]
DOCKED: USER    
DOCKED: USER    (1) Final Intermolecular Energy     =  -14.25 kcal/mol
DOCKED: USER        vdW + Hbond + desolv Energy     =  -14.25 kcal/mol
DOCKED: USER        Electrostatic Energy            =   +0.00 kcal/mol
DOCKED: USER    (2) Final Total Internal Energy     =   -1.13 kcal/mol
DOCKED: USER    (3) Torsional Free Energy           =   +2.09 kcal/mol
DOCKED: USER    (4) Unbound System's Energy  [=(2)] =   -1.13 kcal/mol
DOCKED: USER    
DOCKED: USER    
DOCKED: USER    NEWDPF move ligand.pdbqt
DOCKED: USER    NEWDPF about 0.578000 -0.033000 0.130000
DOCKED: USER    NEWDPF tran0 29.121172 -15.384315 -1.145870
DOCKED: USER    NEWDPF quaternion0 0.430335 -0.506264 -0.361223 0.654237
DOCKED: USER    NEWDPF axisangle0 0.569008 -0.669406 -0.477625 98.276295
DOCKED: USER    NEWDPF quat0 0.569008 -0.669406 -0.477625 98.276295
DOCKED: USER    NEWDPF dihe0 167.46 -177.11 45.88 60.59 167.77 -173.13 -125.94 
DOCKED: USER  keepresnum = 1 
DOCKED: USER  
DOCKED: REMARK  Name = 
DOCKED: REMARK  8 active torsions:
DOCKED: REMARK  status: ('A' for Active; 'I' for Inactive)
DOCKED: REMARK    1  A    between atoms: C_2  and  C_3
DOCKED: REMARK    2  A    between atoms: C_4  and  C_5
DOCKED: REMARK    3  A    between atoms: C_8  and  C_9
DOCKED: REMARK    4  A    between atoms: C_9  and  N_10
DOCKED: REMARK    5  A    between atoms: N_10  and  C_11
DOCKED: REMARK    6  A    between atoms: C_11  and  C_12
DOCKED: REMARK    7  A    between atoms: C_12  and  C_13
DOCKED: REMARK    8  A    between atoms: C_14  and  C_22
DOCKED: REMARK                            x       y       z     vdW  Elec       q    Type
DOCKED: REMARK                         _______ _______ _______ _____ _____    ______ ____
DOCKED: USER                              x       y       z     vdW  Elec       q    Type
DOCKED: USER                           _______ _______ _______ _____ _____    ______ ____
DOCKED: ROOT
DOCKED: ATOM      1  N   UNL     1      28.990 -15.071  -0.445 -0.16 -0.00    +0.000 N 
DOCKED: ATOM      2  H   UNL     1      28.758 -14.236  -0.983 +0.00 -0.00    +0.000 HD
DOCKED: ATOM      3  H   UNL     1      29.984 -15.102  -0.215 -0.00 -0.00    +0.000 HD
DOCKED: ENDROOT
DOCKED: BRANCH   1   4
DOCKED: ATOM      4  C   UNL     1      28.681 -16.255  -1.257 -0.28 -0.00    +0.000 C 
DOCKED: BRANCH   4   8
DOCKED: ATOM      5  C   UNL     1      24.444 -17.114  -1.120 -0.61 -0.00    +0.000 A 
DOCKED: ATOM      6  C   UNL     1      24.945 -16.111  -1.974 -0.46 -0.00    +0.000 A 
DOCKED: ATOM      7  C   UNL     1      26.314 -15.827  -2.008 -0.40 -0.00    +0.000 A 
DOCKED: ATOM      8  C   UNL     1      27.205 -16.535  -1.189 -0.38 -0.00    +0.000 A 
DOCKED: ATOM      9  C   UNL     1      26.715 -17.556  -0.361 -0.51 -0.00    +0.000 A 
DOCKED: ATOM     10  C   UNL     1      25.347 -17.842  -0.328 -0.61 -0.00    +0.000 A 
DOCKED: BRANCH   5  12
DOCKED: ATOM     11  C   UNL     1      22.542 -18.631  -0.578 -0.83 -0.00    +0.000 C 
DOCKED: ATOM     12  C   UNL     1      23.003 -17.465  -1.057 -0.71 -0.00    +0.000 C 
DOCKED: BRANCH  11  14
DOCKED: ATOM     13  O   UNL     1      20.276 -18.162  -1.008 -2.13 -0.00    +0.000 OA
DOCKED: ATOM     14  C   UNL     1      21.107 -18.974  -0.518 -0.87 -0.00    +0.000 C 
DOCKED: ATOM     15  N   UNL     1      20.629 -20.175   0.101 -0.69 -0.00    +0.000 N 
DOCKED: ATOM     16  O   UNL     1      19.315 -20.495   0.037 -1.11 -0.00    +0.000 OA
DOCKED: ATOM     17  H   UNL     1      21.257 -20.768   0.572 -0.58 -0.00    +0.000 HD
DOCKED: ENDBRANCH  11  14
DOCKED: ENDBRANCH   5  12
DOCKED: ENDBRANCH   4   8
DOCKED: ENDBRANCH   1   4
DOCKED: BRANCH   1  18
DOCKED: ATOM     18  C   UNL     1      28.237 -15.045   0.818 -0.20 -0.00    +0.000 C 
DOCKED: BRANCH  18  19
DOCKED: ATOM     19  C   UNL     1      27.013 -14.118   0.753 -0.30 -0.00    +0.000 C 
DOCKED: BRANCH  19  20
DOCKED: ATOM     20  C   UNL     1      27.078 -13.088   1.844 -0.29 -0.00    +0.000 A 
DOCKED: ATOM     21  C   UNL     1      26.798 -11.725   1.741 -0.29 +0.00    +0.000 A 
DOCKED: ATOM     22  N   UNL     1      27.029 -11.098   2.919 -0.31 +0.00    +0.000 N 
DOCKED: ATOM     23  C   UNL     1      27.475 -12.048   3.758 -0.23 +0.00    +0.000 A 
DOCKED: ATOM     24  C   UNL     1      27.525 -13.271   3.139 -0.34 -0.00    +0.000 A 
DOCKED: ATOM     25  C   UNL     1      27.978 -14.412   3.803 -0.46 -0.00    +0.000 A 
DOCKED: ATOM     26  C   UNL     1      28.379 -14.275   5.145 -0.45 -0.00    +0.000 A 
DOCKED: ATOM     27  C   UNL     1      28.323 -13.017   5.784 -0.40 -0.00    +0.000 A 
DOCKED: ATOM     28  C   UNL     1      27.866 -11.883   5.086 -0.35 +0.00    +0.000 A 
DOCKED: ATOM     29  C   UNL     1      26.292 -11.027   0.518 -0.27 +0.00    +0.000 C 
DOCKED: ATOM     30  H   UNL     1      26.898 -10.142   3.118 -0.03 +0.00    +0.000 HD
DOCKED: ENDBRANCH  19  20
DOCKED: ENDBRANCH  18  19
DOCKED: ENDBRANCH   1  18
DOCKED: TORSDOF 7
DOCKED: TER
DOCKED: ENDMDL
________________________________________________________________________________


	BEGINNING GENETIC ALGORITHM DOCKING 14 of 100
Run: 14 Seed: 1165705821 1387651608 [ Run 14 of 100 GA/GALS ]
Beginning LAMARCKIAN GENETIC ALGORITHM (LGA), with a maximum of 2500000 energy evaluations.

Final-Value: -15.368


	FINAL GENETIC ALGORITHM DOCKED STATE
	_______________________________________________


Detailed state:  trans 28.259 -16.413 0.507 quatxyzw 0.250955 -0.099439 0.464210 0.843589 center 0.578 -0.033 0.130 ntor 7 -138.8502 176.3138 162.6112 -166.5362 -172.4024 113.6515 121.4502
State:	 28.259 -16.413   0.507   0.467 -0.185  0.864 64.958   -138.85  176.31  162.61 -166.54 -172.40  113.65  121.45

DOCKED: MODEL       14
DOCKED: USER    Run = 14
DOCKED: USER    DPF = ligand_dock.biased.dpf
DOCKED: USER  
DOCKED: USER    Estimated Free Energy of Binding    =  -11.94 kcal/mol  [=(1)+(2)+(3)-(4)]
DOCKED: USER    Estimated Inhibition Constant, Ki   =    1.76 nM (nanomolar)  [Temperature = 298.15 K]
DOCKED: USER    
DOCKED: USER    (1) Final Intermolecular Energy     =  -14.03 kcal/mol
DOCKED: USER        vdW + Hbond + desolv Energy     =  -14.03 kcal/mol
DOCKED: USER        Electrostatic Energy            =   +0.00 kcal/mol
DOCKED: USER    (2) Final Total Internal Energy     =   -1.34 kcal/mol
DOCKED: USER    (3) Torsional Free Energy           =   +2.09 kcal/mol
DOCKED: USER    (4) Unbound System's Energy  [=(2)] =   -1.34 kcal/mol
DOCKED: USER    
DOCKED: USER    
DOCKED: USER    NEWDPF move ligand.pdbqt
DOCKED: USER    NEWDPF about 0.578000 -0.033000 0.130000
DOCKED: USER    NEWDPF tran0 28.259214 -16.413444 0.506666
DOCKED: USER    NEWDPF quaternion0 0.250955 -0.099439 0.464210 0.843589
DOCKED: USER    NEWDPF axisangle0 0.467337 -0.185179 0.864468 64.957849
DOCKED: USER    NEWDPF quat0 0.467337 -0.185179 0.864468 64.957849
DOCKED: USER    NEWDPF dihe0 -138.85 176.31 162.61 -166.54 -172.40 113.65 121.45 
DOCKED: USER  keepresnum = 1 
DOCKED: USER  
DOCKED: REMARK  Name = 
DOCKED: REMARK  8 active torsions:
DOCKED: REMARK  status: ('A' for Active; 'I' for Inactive)
DOCKED: REMARK    1  A    between atoms: C_2  and  C_3
DOCKED: REMARK    2  A    between atoms: C_4  and  C_5
DOCKED: REMARK    3  A    between atoms: C_8  and  C_9
DOCKED: REMARK    4  A    between atoms: C_9  and  N_10
DOCKED: REMARK    5  A    between atoms: N_10  and  C_11
DOCKED: REMARK    6  A    between atoms: C_11  and  C_12
DOCKED: REMARK    7  A    between atoms: C_12  and  C_13
DOCKED: REMARK    8  A    between atoms: C_14  and  C_22
DOCKED: REMARK                            x       y       z     vdW  Elec       q    Type
DOCKED: REMARK                         _______ _______ _______ _____ _____    ______ ____
DOCKED: USER                              x       y       z     vdW  Elec       q    Type
DOCKED: USER                           _______ _______ _______ _____ _____    ______ ____
DOCKED: ROOT
DOCKED: ATOM      1  N   UNL     1      28.076 -15.679   0.691 -0.17 -0.00    +0.000 N 
DOCKED: ATOM      2  H   UNL     1      29.063 -15.612   0.940 -0.67 -0.00    +0.000 HD
DOCKED: ATOM      3  H   UNL     1      27.512 -15.989   1.482 -0.44 -0.00    +0.000 HD
DOCKED: ENDROOT
DOCKED: BRANCH   1   4
DOCKED: ATOM      4  C   UNL     1      27.929 -16.672  -0.382 -0.37 -0.00    +0.000 C 
DOCKED: BRANCH   4   8
DOCKED: ATOM      5  C   UNL     1      23.765 -17.717  -0.910 -0.68 -0.00    +0.000 A 
DOCKED: ATOM      6  C   UNL     1      24.390 -16.800  -1.779 -0.52 -0.00    +0.000 A 
DOCKED: ATOM      7  C   UNL     1      25.733 -16.455  -1.599 -0.49 -0.00    +0.000 A 
DOCKED: ATOM      8  C   UNL     1      26.474 -17.015  -0.548 -0.48 -0.00    +0.000 A 
DOCKED: ATOM      9  C   UNL     1      25.866 -17.952   0.299 -0.39 -0.00    +0.000 A 
DOCKED: ATOM     10  C   UNL     1      24.524 -18.299   0.118 -0.51 -0.00    +0.000 A 
DOCKED: BRANCH   5  12
DOCKED: ATOM     11  C   UNL     1      21.866 -19.309  -0.647 -0.80 -0.00    +0.000 C 
DOCKED: ATOM     12  C   UNL     1      22.348 -18.129  -1.066 -0.76 -0.00    +0.000 C 
DOCKED: BRANCH  11  14
DOCKED: ATOM     13  O   UNL     1      19.965 -19.739  -1.966 -2.37 -0.00    +0.000 OA
DOCKED: ATOM     14  C   UNL     1      20.454 -19.712  -0.805 -0.85 -0.00    +0.000 C 
DOCKED: ATOM     15  N   UNL     1      19.620 -20.044   0.313 -0.73 -0.00    +0.000 N 
DOCKED: ATOM     16  O   UNL     1      18.365 -20.509   0.109 -0.92 -0.00    +0.000 OA
DOCKED: ATOM     17  H   UNL     1      19.961 -19.933   1.230 -0.05 -0.00    +0.000 HD
DOCKED: ENDBRANCH  11  14
DOCKED: ENDBRANCH   5  12
DOCKED: ENDBRANCH   4   8
DOCKED: ENDBRANCH   1   4
DOCKED: BRANCH   1  18
DOCKED: ATOM     18  C   UNL     1      27.597 -14.348   0.291 -0.27 -0.00    +0.000 C 
DOCKED: BRANCH  18  19
DOCKED: ATOM     19  C   UNL     1      27.900 -13.273   1.346 -0.24 -0.00    +0.000 C 
DOCKED: BRANCH  19  20
DOCKED: ATOM     20  C   UNL     1      28.804 -13.825   2.411 -0.22 -0.00    +0.000 A 
DOCKED: ATOM     21  C   UNL     1      28.463 -14.166   3.720 -0.40 -0.00    +0.000 A 
DOCKED: ATOM     22  N   UNL     1      29.555 -14.570   4.411 -0.40 -0.00    +0.000 N 
DOCKED: ATOM     23  C   UNL     1      30.587 -14.466   3.557 -0.25 -0.00    +0.000 A 
DOCKED: ATOM     24  C   UNL     1      30.171 -14.009   2.331 -0.14 -0.00    +0.000 A 
DOCKED: ATOM     25  C   UNL     1      31.069 -13.799   1.283 -0.06 -0.00    +0.000 A 
DOCKED: ATOM     26  C   UNL     1      32.427 -14.079   1.516 -0.04 -0.00    +0.000 A 
DOCKED: ATOM     27  C   UNL     1      32.855 -14.553   2.775 -0.10 -0.00    +0.000 A 
DOCKED: ATOM     28  C   UNL     1      31.928 -14.750   3.815 -0.10 -0.00    +0.000 A 
DOCKED: ATOM     29  C   UNL     1      27.086 -14.120   4.304 -0.53 -0.00    +0.000 C 
DOCKED: ATOM     30  H   UNL     1      29.586 -14.875   5.346 -0.09 -0.00    +0.000 HD
DOCKED: ENDBRANCH  19  20
DOCKED: ENDBRANCH  18  19
DOCKED: ENDBRANCH   1  18
DOCKED: TORSDOF 7
DOCKED: TER
DOCKED: ENDMDL
________________________________________________________________________________


	BEGINNING GENETIC ALGORITHM DOCKING 15 of 100
Run: 15 Seed: 1298396339 183627388 [ Run 15 of 100 GA/GALS ]
Beginning LAMARCKIAN GENETIC ALGORITHM (LGA), with a maximum of 2500000 energy evaluations.

Final-Value: -15.542


	FINAL GENETIC ALGORITHM DOCKED STATE
	_______________________________________________


Detailed state:  trans 27.101 -15.104 -1.674 quatxyzw 0.027103 0.680330 0.578181 0.449582 center 0.578 -0.033 0.130 ntor 7 19.7565 -128.1055 29.6998 157.0172 -79.0378 -129.7230 24.7389
State:	 27.101 -15.104  -1.674   0.030  0.762  0.647 126.566     19.76 -128.11   29.70  157.02  -79.04 -129.72   24.74

DOCKED: MODEL       15
DOCKED: USER    Run = 15
DOCKED: USER    DPF = ligand_dock.biased.dpf
DOCKED: USER  
DOCKED: USER    Estimated Free Energy of Binding    =  -12.01 kcal/mol  [=(1)+(2)+(3)-(4)]
DOCKED: USER    Estimated Inhibition Constant, Ki   =    1.56 nM (nanomolar)  [Temperature = 298.15 K]
DOCKED: USER    
DOCKED: USER    (1) Final Intermolecular Energy     =  -14.10 kcal/mol
DOCKED: USER        vdW + Hbond + desolv Energy     =  -14.10 kcal/mol
DOCKED: USER        Electrostatic Energy            =   +0.00 kcal/mol
DOCKED: USER    (2) Final Total Internal Energy     =   -1.44 kcal/mol
DOCKED: USER    (3) Torsional Free Energy           =   +2.09 kcal/mol
DOCKED: USER    (4) Unbound System's Energy  [=(2)] =   -1.44 kcal/mol
DOCKED: USER    
DOCKED: USER    
DOCKED: USER    NEWDPF move ligand.pdbqt
DOCKED: USER    NEWDPF about 0.578000 -0.033000 0.130000
DOCKED: USER    NEWDPF tran0 27.101058 -15.103855 -1.674421
DOCKED: USER    NEWDPF quaternion0 0.027103 0.680330 0.578181 0.449582
DOCKED: USER    NEWDPF axisangle0 0.030342 0.761643 0.647286 126.566297
DOCKED: USER    NEWDPF quat0 0.030342 0.761643 0.647286 126.566297
DOCKED: USER    NEWDPF dihe0 19.76 -128.11 29.70 157.02 -79.04 -129.72 24.74 
DOCKED: USER  keepresnum = 1 
DOCKED: USER  
DOCKED: REMARK  Name = 
DOCKED: REMARK  8 active torsions:
DOCKED: REMARK  status: ('A' for Active; 'I' for Inactive)
DOCKED: REMARK    1  A    between atoms: C_2  and  C_3
DOCKED: REMARK    2  A    between atoms: C_4  and  C_5
DOCKED: REMARK    3  A    between atoms: C_8  and  C_9
DOCKED: REMARK    4  A    between atoms: C_9  and  N_10
DOCKED: REMARK    5  A    between atoms: N_10  and  C_11
DOCKED: REMARK    6  A    between atoms: C_11  and  C_12
DOCKED: REMARK    7  A    between atoms: C_12  and  C_13
DOCKED: REMARK    8  A    between atoms: C_14  and  C_22
DOCKED: REMARK                            x       y       z     vdW  Elec       q    Type
DOCKED: REMARK                         _______ _______ _______ _____ _____    ______ ____
DOCKED: USER                              x       y       z     vdW  Elec       q    Type
DOCKED: USER                           _______ _______ _______ _____ _____    ______ ____
DOCKED: ROOT
DOCKED: ATOM      1  N   UNL     1      27.381 -14.469  -2.028 -0.20 -0.00    +0.000 N 
DOCKED: ATOM      2  H   UNL     1      27.064 -13.993  -1.182 +0.00 -0.00    +0.000 HD
DOCKED: ATOM      3  H   UNL     1      26.645 -14.504  -2.733 -0.00 -0.00    +0.000 HD
DOCKED: ENDROOT
DOCKED: BRANCH   1   4
DOCKED: ATOM      4  C   UNL     1      27.739 -15.851  -1.684 -0.31 -0.00    +0.000 C 
DOCKED: BRANCH   4   8
DOCKED: ATOM      5  C   UNL     1      24.143 -18.047  -0.707 -0.70 -0.00    +0.000 A 
DOCKED: ATOM      6  C   UNL     1      25.412 -18.572  -0.390 -0.54 -0.00    +0.000 A 
DOCKED: ATOM      7  C   UNL     1      26.573 -17.866  -0.717 -0.51 -0.00    +0.000 A 
DOCKED: ATOM      8  C   UNL     1      26.490 -16.627  -1.369 -0.44 -0.00    +0.000 A 
DOCKED: ATOM      9  C   UNL     1      25.229 -16.086  -1.658 -0.49 -0.00    +0.000 A 
DOCKED: ATOM     10  C   UNL     1      24.067 -16.790  -1.329 -0.53 -0.00    +0.000 A 
DOCKED: BRANCH   5  12
DOCKED: ATOM     11  C   UNL     1      21.747 -18.624  -1.076 -0.81 -0.00    +0.000 C 
DOCKED: ATOM     12  C   UNL     1      22.880 -18.748  -0.368 -0.81 -0.00    +0.000 C 
DOCKED: BRANCH  11  14
DOCKED: ATOM     13  O   UNL     1      19.762 -19.739  -1.673 -2.27 -0.00    +0.000 OA
DOCKED: ATOM     14  C   UNL     1      20.493 -19.326  -0.734 -0.90 -0.00    +0.000 C 
DOCKED: ATOM     15  N   UNL     1      20.070 -19.525   0.621 -0.69 -0.00    +0.000 N 
DOCKED: ATOM     16  O   UNL     1      18.969 -20.267   0.886 -0.80 -0.00    +0.000 OA
DOCKED: ATOM     17  H   UNL     1      20.582 -19.123   1.359 -0.20 -0.00    +0.000 HD
DOCKED: ENDBRANCH  11  14
DOCKED: ENDBRANCH   5  12
DOCKED: ENDBRANCH   4   8
DOCKED: ENDBRANCH   1   4
DOCKED: BRANCH   1  18
DOCKED: ATOM     18  C   UNL     1      28.514 -13.722  -2.595 -0.12 -0.00    +0.000 C 
DOCKED: BRANCH  18  19
DOCKED: ATOM     19  C   UNL     1      29.733 -13.703  -1.659 -0.05 -0.00    +0.000 C 
DOCKED: BRANCH  19  20
DOCKED: ATOM     20  C   UNL     1      29.296 -13.838  -0.228 -0.08 -0.00    +0.000 A 
DOCKED: ATOM     21  C   UNL     1      29.651 -14.839   0.677 -0.13 -0.00    +0.000 A 
DOCKED: ATOM     22  N   UNL     1      29.011 -14.667   1.857 -0.11 -0.00    +0.000 N 
DOCKED: ATOM     23  C   UNL     1      28.237 -13.580   1.700 -0.21 -0.00    +0.000 A 
DOCKED: ATOM     24  C   UNL     1      28.377 -13.051   0.441 -0.12 -0.00    +0.000 A 
DOCKED: ATOM     25  C   UNL     1      27.656 -11.929   0.033 -0.12 -0.00    +0.000 A 
DOCKED: ATOM     26  C   UNL     1      26.775 -11.341   0.959 -0.25 +0.00    +0.000 A 
DOCKED: ATOM     27  C   UNL     1      26.634 -11.882   2.255 -0.29 +0.00    +0.000 A 
DOCKED: ATOM     28  C   UNL     1      27.371 -13.019   2.638 -0.30 -0.00    +0.000 A 
DOCKED: ATOM     29  C   UNL     1      30.619 -15.950   0.414 -0.12 -0.00    +0.000 C 
DOCKED: ATOM     30  H   UNL     1      29.095 -15.225   2.664 -2.01 -0.00    +0.000 HD
DOCKED: ENDBRANCH  19  20
DOCKED: ENDBRANCH  18  19
DOCKED: ENDBRANCH   1  18
DOCKED: TORSDOF 7
DOCKED: TER
DOCKED: ENDMDL
________________________________________________________________________________


	BEGINNING GENETIC ALGORITHM DOCKING 16 of 100
Run: 16 Seed: 1494494903 353290801 [ Run 16 of 100 GA/GALS ]
Beginning LAMARCKIAN GENETIC ALGORITHM (LGA), with a maximum of 2500000 energy evaluations.

Final-Value: -16.028


	FINAL GENETIC ALGORITHM DOCKED STATE
	_______________________________________________


Detailed state:  trans 28.877 -15.552 0.851 quatxyzw 0.064548 0.104142 0.778218 0.615926 center 0.578 -0.033 0.130 ntor 7 96.1397 -176.4179 -179.3896 -158.5256 174.4770 85.1005 67.9622
State:	 28.877 -15.552   0.851   0.082  0.132  0.988 103.961     96.14 -176.42 -179.39 -158.53  174.48   85.10   67.96

DOCKED: MODEL       16
DOCKED: USER    Run = 16
DOCKED: USER    DPF = ligand_dock.biased.dpf
DOCKED: USER  
DOCKED: USER    Estimated Free Energy of Binding    =  -12.46 kcal/mol  [=(1)+(2)+(3)-(4)]
DOCKED: USER    Estimated Inhibition Constant, Ki   =  741.46 pM (picomolar)  [Temperature = 298.15 K]
DOCKED: USER    
DOCKED: USER    (1) Final Intermolecular Energy     =  -14.54 kcal/mol
DOCKED: USER        vdW + Hbond + desolv Energy     =  -14.54 kcal/mol
DOCKED: USER        Electrostatic Energy            =   +0.00 kcal/mol
DOCKED: USER    (2) Final Total Internal Energy     =   -1.48 kcal/mol
DOCKED: USER    (3) Torsional Free Energy           =   +2.09 kcal/mol
DOCKED: USER    (4) Unbound System's Energy  [=(2)] =   -1.48 kcal/mol
DOCKED: USER    
DOCKED: USER    
DOCKED: USER    NEWDPF move ligand.pdbqt
DOCKED: USER    NEWDPF about 0.578000 -0.033000 0.130000
DOCKED: USER    NEWDPF tran0 28.877177 -15.551681 0.851062
DOCKED: USER    NEWDPF quaternion0 0.064548 0.104142 0.778218 0.615926
DOCKED: USER    NEWDPF axisangle0 0.081934 0.132193 0.987832 103.961483
DOCKED: USER    NEWDPF quat0 0.081934 0.132193 0.987832 103.961483
DOCKED: USER    NEWDPF dihe0 96.14 -176.42 -179.39 -158.53 174.48 85.10 67.96 
DOCKED: USER  keepresnum = 1 
DOCKED: USER  
DOCKED: REMARK  Name = 
DOCKED: REMARK  8 active torsions:
DOCKED: REMARK  status: ('A' for Active; 'I' for Inactive)
DOCKED: REMARK    1  A    between atoms: C_2  and  C_3
DOCKED: REMARK    2  A    between atoms: C_4  and  C_5
DOCKED: REMARK    3  A    between atoms: C_8  and  C_9
DOCKED: REMARK    4  A    between atoms: C_9  and  N_10
DOCKED: REMARK    5  A    between atoms: N_10  and  C_11
DOCKED: REMARK    6  A    between atoms: C_11  and  C_12
DOCKED: REMARK    7  A    between atoms: C_12  and  C_13
DOCKED: REMARK    8  A    between atoms: C_14  and  C_22
DOCKED: REMARK                            x       y       z     vdW  Elec       q    Type
DOCKED: REMARK                         _______ _______ _______ _____ _____    ______ ____
DOCKED: USER                              x       y       z     vdW  Elec       q    Type
DOCKED: USER                           _______ _______ _______ _____ _____    ______ ____
DOCKED: ROOT
DOCKED: ATOM      1  N   UNL     1      29.124 -14.832   1.016 -0.18 -0.00    +0.000 N 
DOCKED: ATOM      2  H   UNL     1      29.598 -15.291   1.795 -1.34 -0.00    +0.000 HD
DOCKED: ATOM      3  H   UNL     1      28.183 -14.538   1.273 -0.21 -0.00    +0.000 HD
DOCKED: ENDROOT
DOCKED: BRANCH   1   4
DOCKED: ATOM      4  C   UNL     1      29.008 -15.787  -0.094 -0.20 -0.00    +0.000 C 
DOCKED: BRANCH   4   8
DOCKED: ATOM      5  C   UNL     1      24.858 -16.764  -0.819 -0.53 -0.00    +0.000 A 
DOCKED: ATOM      6  C   UNL     1      25.449 -15.643  -1.435 -0.41 -0.00    +0.000 A 
DOCKED: ATOM      7  C   UNL     1      26.788 -15.323  -1.191 -0.31 -0.00    +0.000 A 
DOCKED: ATOM      8  C   UNL     1      27.558 -16.111  -0.324 -0.32 -0.00    +0.000 A 
DOCKED: ATOM      9  C   UNL     1      26.984 -17.246   0.267 -0.27 -0.00    +0.000 A 
DOCKED: ATOM     10  C   UNL     1      25.646 -17.568   0.021 -0.43 -0.00    +0.000 A 
DOCKED: BRANCH   5  12
DOCKED: ATOM     11  C   UNL     1      22.964 -18.384  -0.808 -0.83 -0.00    +0.000 C 
DOCKED: ATOM     12  C   UNL     1      23.447 -17.157  -1.057 -0.68 -0.00    +0.000 C 
DOCKED: BRANCH  11  14
DOCKED: ATOM     13  O   UNL     1      20.664 -18.240  -0.332 -2.01 -0.00    +0.000 OA
DOCKED: ATOM     14  C   UNL     1      21.558 -18.768  -1.046 -0.82 -0.00    +0.000 C 
DOCKED: ATOM     15  N   UNL     1      21.182 -19.735  -2.035 -0.40 -0.00    +0.000 N 
DOCKED: ATOM     16  O   UNL     1      19.874 -19.974  -2.288 -2.15 -0.00    +0.000 OA
DOCKED: ATOM     17  H   UNL     1      21.877 -20.226  -2.530 -0.59 -0.00    +0.000 HD
DOCKED: ENDBRANCH  11  14
DOCKED: ENDBRANCH   5  12
DOCKED: ENDBRANCH   4   8
DOCKED: ENDBRANCH   1   4
DOCKED: BRANCH   1  18
DOCKED: ATOM     18  C   UNL     1      29.886 -13.630   0.643 -0.09 -0.00    +0.000 C 
DOCKED: BRANCH  18  19
DOCKED: ATOM     19  C   UNL     1      29.575 -12.432   1.553 -0.08 -0.00    +0.000 C 
DOCKED: BRANCH  19  20
DOCKED: ATOM     20  C   UNL     1      28.911 -12.894   2.819 -0.17 -0.00    +0.000 A 
DOCKED: ATOM     21  C   UNL     1      27.545 -13.071   3.044 -0.31 -0.00    +0.000 A 
DOCKED: ATOM     22  N   UNL     1      27.315 -13.436   4.327 -0.47 -0.00    +0.000 N 
DOCKED: ATOM     23  C   UNL     1      28.520 -13.470   4.921 -0.41 -0.00    +0.000 A 
DOCKED: ATOM     24  C   UNL     1      29.516 -13.139   4.037 -0.21 -0.00    +0.000 A 
DOCKED: ATOM     25  C   UNL     1      30.854 -13.084   4.427 -0.15 -0.00    +0.000 A 
DOCKED: ATOM     26  C   UNL     1      31.162 -13.388   5.766 -0.17 -0.00    +0.000 A 
DOCKED: ATOM     27  C   UNL     1      30.137 -13.732   6.674 -0.23 -0.00    +0.000 A 
DOCKED: ATOM     28  C   UNL     1      28.795 -13.775   6.253 -0.23 -0.00    +0.000 A 
DOCKED: ATOM     29  C   UNL     1      26.463 -12.906   2.024 -0.30 -0.00    +0.000 C 
DOCKED: ATOM     30  H   UNL     1      26.443 -13.635   4.740 -0.04 -0.00    +0.000 HD
DOCKED: ENDBRANCH  19  20
DOCKED: ENDBRANCH  18  19
DOCKED: ENDBRANCH   1  18
DOCKED: TORSDOF 7
DOCKED: TER
DOCKED: ENDMDL
________________________________________________________________________________


	BEGINNING GENETIC ALGORITHM DOCKING 17 of 100
Run: 17 Seed: 1681402320 2129167604 [ Run 17 of 100 GA/GALS ]
Beginning LAMARCKIAN GENETIC ALGORITHM (LGA), with a maximum of 2500000 energy evaluations.

Final-Value: -15.202


	FINAL GENETIC ALGORITHM DOCKED STATE
	_______________________________________________


Detailed state:  trans 28.951 -15.708 0.456 quatxyzw -0.025576 -0.317417 0.923219 0.215077 center 0.578 -0.033 0.130 ntor 7 -49.2483 174.7046 -144.2131 85.9277 47.1945 175.4583 -12.9950
State:	 28.951 -15.708   0.456  -0.026 -0.325  0.945 155.160    -49.25  174.70 -144.21   85.93   47.19  175.46  -12.99

DOCKED: MODEL       17
DOCKED: USER    Run = 17
DOCKED: USER    DPF = ligand_dock.biased.dpf
DOCKED: USER  
DOCKED: USER    Estimated Free Energy of Binding    =  -12.12 kcal/mol  [=(1)+(2)+(3)-(4)]
DOCKED: USER    Estimated Inhibition Constant, Ki   =    1.31 nM (nanomolar)  [Temperature = 298.15 K]
DOCKED: USER    
DOCKED: USER    (1) Final Intermolecular Energy     =  -14.21 kcal/mol
DOCKED: USER        vdW + Hbond + desolv Energy     =  -14.21 kcal/mol
DOCKED: USER        Electrostatic Energy            =   +0.00 kcal/mol
DOCKED: USER    (2) Final Total Internal Energy     =   -0.99 kcal/mol
DOCKED: USER    (3) Torsional Free Energy           =   +2.09 kcal/mol
DOCKED: USER    (4) Unbound System's Energy  [=(2)] =   -0.99 kcal/mol
DOCKED: USER    
DOCKED: USER    
DOCKED: USER    NEWDPF move ligand.pdbqt
DOCKED: USER    NEWDPF about 0.578000 -0.033000 0.130000
DOCKED: USER    NEWDPF tran0 28.950502 -15.708283 0.456474
DOCKED: USER    NEWDPF quaternion0 -0.025576 -0.317417 0.923219 0.215077
DOCKED: USER    NEWDPF axisangle0 -0.026188 -0.325024 0.945343 155.159898
DOCKED: USER    NEWDPF quat0 -0.026188 -0.325024 0.945343 155.159898
DOCKED: USER    NEWDPF dihe0 -49.25 174.70 -144.21 85.93 47.19 175.46 -12.99 
DOCKED: USER  keepresnum = 1 
DOCKED: USER  
DOCKED: REMARK  Name = 
DOCKED: REMARK  8 active torsions:
DOCKED: REMARK  status: ('A' for Active; 'I' for Inactive)
DOCKED: REMARK    1  A    between atoms: C_2  and  C_3
DOCKED: REMARK    2  A    between atoms: C_4  and  C_5
DOCKED: REMARK    3  A    between atoms: C_8  and  C_9
DOCKED: REMARK    4  A    between atoms: C_9  and  N_10
DOCKED: REMARK    5  A    between atoms: N_10  and  C_11
DOCKED: REMARK    6  A    between atoms: C_11  and  C_12
DOCKED: REMARK    7  A    between atoms: C_12  and  C_13
DOCKED: REMARK    8  A    between atoms: C_14  and  C_22
DOCKED: REMARK                            x       y       z     vdW  Elec       q    Type
DOCKED: REMARK                         _______ _______ _______ _____ _____    ______ ____
DOCKED: USER                              x       y       z     vdW  Elec       q    Type
DOCKED: USER                           _______ _______ _______ _____ _____    ______ ____
DOCKED: ROOT
DOCKED: ATOM      1  N   UNL     1      29.654 -15.705   0.791 +0.08 -0.00    +0.000 N 
DOCKED: ATOM      2  H   UNL     1      29.514 -16.714   0.842 -0.59 -0.00    +0.000 HD
DOCKED: ATOM      3  H   UNL     1      29.288 -15.235   1.619 -1.29 -0.00    +0.000 HD
DOCKED: ENDROOT
DOCKED: BRANCH   1   4
DOCKED: ATOM      4  C   UNL     1      28.927 -15.187  -0.376 -0.19 -0.00    +0.000 C 
DOCKED: BRANCH   4   8
DOCKED: ATOM      5  C   UNL     1      25.333 -17.530  -0.922 -0.60 -0.00    +0.000 A 
DOCKED: ATOM      6  C   UNL     1      26.546 -18.151  -0.564 -0.50 -0.00    +0.000 A 
DOCKED: ATOM      7  C   UNL     1      27.709 -17.393  -0.399 -0.31 -0.00    +0.000 A 
DOCKED: ATOM      8  C   UNL     1      27.684 -16.004  -0.593 -0.31 -0.00    +0.000 A 
DOCKED: ATOM      9  C   UNL     1      26.472 -15.378  -0.917 -0.34 -0.00    +0.000 A 
DOCKED: ATOM     10  C   UNL     1      25.308 -16.135  -1.080 -0.47 -0.00    +0.000 A 
DOCKED: BRANCH   5  12
DOCKED: ATOM     11  C   UNL     1      22.851 -17.757  -0.888 -0.77 -0.00    +0.000 C 
DOCKED: ATOM     12  C   UNL     1      24.067 -18.286  -1.093 -0.78 -0.00    +0.000 C 
DOCKED: BRANCH  11  14
DOCKED: ATOM     13  O   UNL     1      20.619 -18.235  -0.317 -1.97 +0.00    +0.000 OA
DOCKED: ATOM     14  C   UNL     1      21.595 -18.515  -1.062 -0.78 -0.00    +0.000 C 
DOCKED: ATOM     15  N   UNL     1      21.461 -19.569  -2.023 -0.20 -0.00    +0.000 N 
DOCKED: ATOM     16  O   UNL     1      20.260 -20.161  -2.218 -2.11 -0.00    +0.000 OA
DOCKED: ATOM     17  H   UNL     1      22.245 -19.862  -2.543 -0.56 -0.00    +0.000 HD
DOCKED: ENDBRANCH  11  14
DOCKED: ENDBRANCH   5  12
DOCKED: ENDBRANCH   4   8
DOCKED: ENDBRANCH   1   4
DOCKED: BRANCH   1  18
DOCKED: ATOM     18  C   UNL     1      31.097 -15.430   0.718 -0.12 -0.00    +0.000 C 
DOCKED: BRANCH  18  19
DOCKED: ATOM     19  C   UNL     1      31.929 -16.707   0.520 -0.13 -0.00    +0.000 C 
DOCKED: BRANCH  19  20
DOCKED: ATOM     20  C   UNL     1      32.481 -17.181   1.834 -0.16 -0.00    +0.000 A 
DOCKED: ATOM     21  C   UNL     1      33.233 -16.446   2.752 -0.16 -0.00    +0.000 A 
DOCKED: ATOM     22  N   UNL     1      33.612 -17.224   3.793 -0.19 -0.00    +0.000 N 
DOCKED: ATOM     23  C   UNL     1      33.126 -18.449   3.531 -0.28 -0.00    +0.000 A 
DOCKED: ATOM     24  C   UNL     1      32.438 -18.464   2.343 -0.21 -0.00    +0.000 A 
DOCKED: ATOM     25  C   UNL     1      31.859 -19.633   1.846 -0.14 -0.00    +0.000 A 
DOCKED: ATOM     26  C   UNL     1      31.993 -20.808   2.607 -0.27 -0.00    +0.000 A 
DOCKED: ATOM     27  C   UNL     1      32.698 -20.792   3.831 -0.33 -0.00    +0.000 A 
DOCKED: ATOM     28  C   UNL     1      33.276 -19.599   4.305 -0.33 -0.00    +0.000 A 
DOCKED: ATOM     29  C   UNL     1      33.573 -14.993   2.638 -0.10 -0.00    +0.000 C 
DOCKED: ATOM     30  H   UNL     1      34.136 -16.948   4.580 -0.08 -0.00    +0.000 HD
DOCKED: ENDBRANCH  19  20
DOCKED: ENDBRANCH  18  19
DOCKED: ENDBRANCH   1  18
DOCKED: TORSDOF 7
DOCKED: TER
DOCKED: ENDMDL
________________________________________________________________________________


	BEGINNING GENETIC ALGORITHM DOCKING 18 of 100
Run: 18 Seed: 823766107 1930169520 [ Run 18 of 100 GA/GALS ]
Beginning LAMARCKIAN GENETIC ALGORITHM (LGA), with a maximum of 2500000 energy evaluations.

Final-Value: -15.309


	FINAL GENETIC ALGORITHM DOCKED STATE
	_______________________________________________


Detailed state:  trans 29.449 -17.289 -2.251 quatxyzw -0.278046 0.701730 -0.627504 0.191062 center 0.578 -0.033 0.130 ntor 7 141.9251 -37.2122 7.0061 -50.3221 149.0420 -174.1898 -35.2498
State:	 29.449 -17.289  -2.251  -0.283  0.715 -0.639 157.970    141.93  -37.21    7.01  -50.32  149.04 -174.19  -35.25

DOCKED: MODEL       18
DOCKED: USER    Run = 18
DOCKED: USER    DPF = ligand_dock.biased.dpf
DOCKED: USER  
DOCKED: USER    Estimated Free Energy of Binding    =  -11.86 kcal/mol  [=(1)+(2)+(3)-(4)]
DOCKED: USER    Estimated Inhibition Constant, Ki   =    2.02 nM (nanomolar)  [Temperature = 298.15 K]
DOCKED: USER    
DOCKED: USER    (1) Final Intermolecular Energy     =  -13.95 kcal/mol
DOCKED: USER        vdW + Hbond + desolv Energy     =  -13.95 kcal/mol
DOCKED: USER        Electrostatic Energy            =   +0.00 kcal/mol
DOCKED: USER    (2) Final Total Internal Energy     =   -1.36 kcal/mol
DOCKED: USER    (3) Torsional Free Energy           =   +2.09 kcal/mol
DOCKED: USER    (4) Unbound System's Energy  [=(2)] =   -1.36 kcal/mol
DOCKED: USER    
DOCKED: USER    
DOCKED: USER    NEWDPF move ligand.pdbqt
DOCKED: USER    NEWDPF about 0.578000 -0.033000 0.130000
DOCKED: USER    NEWDPF tran0 29.448778 -17.289283 -2.250972
DOCKED: USER    NEWDPF quaternion0 -0.278046 0.701730 -0.627504 0.191062
DOCKED: USER    NEWDPF axisangle0 -0.283264 0.714900 -0.639281 157.970483
DOCKED: USER    NEWDPF quat0 -0.283264 0.714900 -0.639281 157.970483
DOCKED: USER    NEWDPF dihe0 141.93 -37.21 7.01 -50.32 149.04 -174.19 -35.25 
DOCKED: USER  keepresnum = 1 
DOCKED: USER  
DOCKED: REMARK  Name = 
DOCKED: REMARK  8 active torsions:
DOCKED: REMARK  status: ('A' for Active; 'I' for Inactive)
DOCKED: REMARK    1  A    between atoms: C_2  and  C_3
DOCKED: REMARK    2  A    between atoms: C_4  and  C_5
DOCKED: REMARK    3  A    between atoms: C_8  and  C_9
DOCKED: REMARK    4  A    between atoms: C_9  and  N_10
DOCKED: REMARK    5  A    between atoms: N_10  and  C_11
DOCKED: REMARK    6  A    between atoms: C_11  and  C_12
DOCKED: REMARK    7  A    between atoms: C_12  and  C_13
DOCKED: REMARK    8  A    between atoms: C_14  and  C_22
DOCKED: REMARK                            x       y       z     vdW  Elec       q    Type
DOCKED: REMARK                         _______ _______ _______ _____ _____    ______ ____
DOCKED: USER                              x       y       z     vdW  Elec       q    Type
DOCKED: USER                           _______ _______ _______ _____ _____    ______ ____
DOCKED: ROOT
DOCKED: ATOM      1  N   UNL     1      29.955 -17.501  -2.803 -0.20 -0.00    +0.000 N 
DOCKED: ATOM      2  H   UNL     1      29.225 -18.163  -3.065 +0.05 -0.00    +0.000 HD
DOCKED: ATOM      3  H   UNL     1      30.588 -17.899  -2.109 -0.01 -0.00    +0.000 HD
DOCKED: ENDROOT
DOCKED: BRANCH   1   4
DOCKED: ATOM      4  C   UNL     1      29.325 -16.316  -2.208 -0.22 -0.00    +0.000 C 
DOCKED: BRANCH   4   8
DOCKED: ATOM      5  C   UNL     1      25.139 -17.074  -1.425 -0.57 -0.00    +0.000 A 
DOCKED: ATOM      6  C   UNL     1      26.138 -17.843  -0.793 -0.54 -0.00    +0.000 A 
DOCKED: ATOM      7  C   UNL     1      27.490 -17.603  -1.057 -0.33 -0.00    +0.000 A 
DOCKED: ATOM      8  C   UNL     1      27.870 -16.597  -1.957 -0.30 -0.00    +0.000 A 
DOCKED: ATOM      9  C   UNL     1      26.881 -15.809  -2.563 -0.35 -0.00    +0.000 A 
DOCKED: ATOM     10  C   UNL     1      25.529 -16.046  -2.298 -0.49 -0.00    +0.000 A 
DOCKED: BRANCH   5  12
DOCKED: ATOM     11  C   UNL     1      23.048 -18.429  -1.410 -0.75 -0.00    +0.000 C 
DOCKED: ATOM     12  C   UNL     1      23.692 -17.276  -1.168 -0.70 -0.00    +0.000 C 
DOCKED: BRANCH  11  14
DOCKED: ATOM     13  O   UNL     1      21.036 -17.857  -0.330 -1.91 +0.00    +0.000 OA
DOCKED: ATOM     14  C   UNL     1      21.606 -18.623  -1.151 -0.72 -0.00    +0.000 C 
DOCKED: ATOM     15  N   UNL     1      20.847 -19.665  -1.778 -0.73 -0.00    +0.000 N 
DOCKED: ATOM     16  O   UNL     1      19.509 -19.736  -1.591 -2.11 -0.00    +0.000 OA
DOCKED: ATOM     17  H   UNL     1      21.301 -20.330  -2.345 -0.53 -0.00    +0.000 HD
DOCKED: ENDBRANCH  11  14
DOCKED: ENDBRANCH   5  12
DOCKED: ENDBRANCH   4   8
DOCKED: ENDBRANCH   1   4
DOCKED: BRANCH   1  18
DOCKED: ATOM     18  C   UNL     1      30.748 -17.173  -3.998 -0.20 -0.00    +0.000 C 
DOCKED: BRANCH  18  19
DOCKED: ATOM     19  C   UNL     1      30.007 -17.503  -5.303 -0.33 -0.00    +0.000 C 
DOCKED: BRANCH  19  20
DOCKED: ATOM     20  C   UNL     1      29.942 -16.290  -6.188 -0.31 -0.00    +0.000 A 
DOCKED: ATOM     21  C   UNL     1      30.782 -15.974  -7.256 -0.27 -0.00    +0.000 A 
DOCKED: ATOM     22  N   UNL     1      30.460 -14.767  -7.778 -0.23 -0.00    +0.000 N 
DOCKED: ATOM     23  C   UNL     1      29.438 -14.308  -7.036 -0.30 -0.00    +0.000 A 
DOCKED: ATOM     24  C   UNL     1      29.099 -15.204  -6.053 -0.34 -0.00    +0.000 A 
DOCKED: ATOM     25  C   UNL     1      28.078 -14.939  -5.140 -0.36 -0.00    +0.000 A 
DOCKED: ATOM     26  C   UNL     1      27.390 -13.717  -5.258 -0.28 -0.00    +0.000 A 
DOCKED: ATOM     27  C   UNL     1      27.736 -12.797  -6.272 -0.16 -0.00    +0.000 A 
DOCKED: ATOM     28  C   UNL     1      28.775 -13.089  -7.176 -0.25 -0.00    +0.000 A 
DOCKED: ATOM     29  C   UNL     1      31.884 -16.837  -7.786 -0.24 -0.00    +0.000 C 
DOCKED: ATOM     30  H   UNL     1      30.887 -14.318  -8.544 -0.28 -0.00    +0.000 HD
DOCKED: ENDBRANCH  19  20
DOCKED: ENDBRANCH  18  19
DOCKED: ENDBRANCH   1  18
DOCKED: TORSDOF 7
DOCKED: TER
DOCKED: ENDMDL
________________________________________________________________________________


	BEGINNING GENETIC ALGORITHM DOCKING 19 of 100
Run: 19 Seed: 1286836794 1588711384 [ Run 19 of 100 GA/GALS ]
Beginning LAMARCKIAN GENETIC ALGORITHM (LGA), with a maximum of 2500000 energy evaluations.

Final-Value: -14.809


	FINAL GENETIC ALGORITHM DOCKED STATE
	_______________________________________________


Detailed state:  trans 27.885 -15.917 -2.139 quatxyzw -0.373672 -0.910699 -0.062720 0.164505 center 0.578 -0.033 0.130 ntor 7 103.3521 144.1175 -0.6917 129.2244 175.5415 139.8337 84.3380
State:	 27.885 -15.917  -2.139  -0.379 -0.923 -0.064 161.063    103.35  144.12   -0.69  129.22  175.54  139.83   84.34

DOCKED: MODEL       19
DOCKED: USER    Run = 19
DOCKED: USER    DPF = ligand_dock.biased.dpf
DOCKED: USER  
DOCKED: USER    Estimated Free Energy of Binding    =  -11.49 kcal/mol  [=(1)+(2)+(3)-(4)]
DOCKED: USER    Estimated Inhibition Constant, Ki   =    3.78 nM (nanomolar)  [Temperature = 298.15 K]
DOCKED: USER    
DOCKED: USER    (1) Final Intermolecular Energy     =  -13.58 kcal/mol
DOCKED: USER        vdW + Hbond + desolv Energy     =  -13.58 kcal/mol
DOCKED: USER        Electrostatic Energy            =   +0.00 kcal/mol
DOCKED: USER    (2) Final Total Internal Energy     =   -1.23 kcal/mol
DOCKED: USER    (3) Torsional Free Energy           =   +2.09 kcal/mol
DOCKED: USER    (4) Unbound System's Energy  [=(2)] =   -1.23 kcal/mol
DOCKED: USER    
DOCKED: USER    
DOCKED: USER    NEWDPF move ligand.pdbqt
DOCKED: USER    NEWDPF about 0.578000 -0.033000 0.130000
DOCKED: USER    NEWDPF tran0 27.885051 -15.916808 -2.138939
DOCKED: USER    NEWDPF quaternion0 -0.373672 -0.910699 -0.062720 0.164505
DOCKED: USER    NEWDPF axisangle0 -0.378833 -0.923278 -0.063587 161.063016
DOCKED: USER    NEWDPF quat0 -0.378833 -0.923278 -0.063587 161.063016
DOCKED: USER    NEWDPF dihe0 103.35 144.12 -0.69 129.22 175.54 139.83 84.34 
DOCKED: USER  keepresnum = 1 
DOCKED: USER  
DOCKED: REMARK  Name = 
DOCKED: REMARK  8 active torsions:
DOCKED: REMARK  status: ('A' for Active; 'I' for Inactive)
DOCKED: REMARK    1  A    between atoms: C_2  and  C_3
DOCKED: REMARK    2  A    between atoms: C_4  and  C_5
DOCKED: REMARK    3  A    between atoms: C_8  and  C_9
DOCKED: REMARK    4  A    between atoms: C_9  and  N_10
DOCKED: REMARK    5  A    between atoms: N_10  and  C_11
DOCKED: REMARK    6  A    between atoms: C_11  and  C_12
DOCKED: REMARK    7  A    between atoms: C_12  and  C_13
DOCKED: REMARK    8  A    between atoms: C_14  and  C_22
DOCKED: REMARK                            x       y       z     vdW  Elec       q    Type
DOCKED: REMARK                         _______ _______ _______ _____ _____    ______ ____
DOCKED: USER                              x       y       z     vdW  Elec       q    Type
DOCKED: USER                           _______ _______ _______ _____ _____    ______ ____
DOCKED: ROOT
DOCKED: ATOM      1  N   UNL     1      28.528 -16.342  -2.246 -0.25 -0.00    +0.000 N 
DOCKED: ATOM      2  H   UNL     1      28.825 -15.550  -2.816 +0.00 -0.00    +0.000 HD
DOCKED: ATOM      3  H   UNL     1      28.016 -17.029  -2.799 -0.02 -0.00    +0.000 HD
DOCKED: ENDROOT
DOCKED: BRANCH   1   4
DOCKED: ATOM      4  C   UNL     1      27.629 -15.853  -1.192 -0.33 -0.00    +0.000 C 
DOCKED: BRANCH   4   8
DOCKED: ATOM      5  C   UNL     1      24.016 -18.227  -1.067 -0.71 -0.00    +0.000 A 
DOCKED: ATOM      6  C   UNL     1      25.151 -18.609  -0.323 -0.53 -0.00    +0.000 A 
DOCKED: ATOM      7  C   UNL     1      26.322 -17.846  -0.375 -0.56 -0.00    +0.000 A 
DOCKED: ATOM      8  C   UNL     1      26.383 -16.693  -1.171 -0.46 -0.00    +0.000 A 
DOCKED: ATOM      9  C   UNL     1      25.246 -16.292  -1.887 -0.52 -0.00    +0.000 A 
DOCKED: ATOM     10  C   UNL     1      24.074 -17.053  -1.834 -0.41 -0.00    +0.000 A 
DOCKED: BRANCH   5  12
DOCKED: ATOM     11  C   UNL     1      21.570 -18.467  -0.652 -0.85 -0.00    +0.000 C 
DOCKED: ATOM     12  C   UNL     1      22.745 -18.992  -1.035 -0.81 -0.00    +0.000 C 
DOCKED: BRANCH  11  14
DOCKED: ATOM     13  O   UNL     1      19.887 -19.732  -1.702 -2.36 -0.00    +0.000 OA
DOCKED: ATOM     14  C   UNL     1      20.308 -19.235  -0.624 -0.89 -0.00    +0.000 C 
DOCKED: ATOM     15  N   UNL     1      19.539 -19.406   0.573 -0.68 -0.00    +0.000 N 
DOCKED: ATOM     16  O   UNL     1      18.448 -20.206   0.570 -0.83 -0.00    +0.000 OA
DOCKED: ATOM     17  H   UNL     1      19.807 -18.941   1.399 -0.30 -0.00    +0.000 HD
DOCKED: ENDBRANCH  11  14
DOCKED: ENDBRANCH   5  12
DOCKED: ENDBRANCH   4   8
DOCKED: ENDBRANCH   1   4
DOCKED: BRANCH   1  18
DOCKED: ATOM     18  C   UNL     1      29.722 -17.005  -1.700 -0.24 -0.00    +0.000 C 
DOCKED: BRANCH  18  19
DOCKED: ATOM     19  C   UNL     1      30.963 -16.803  -2.583 -0.13 -0.00    +0.000 C 
DOCKED: BRANCH  19  20
DOCKED: ATOM     20  C   UNL     1      30.683 -17.254  -3.989 -0.18 -0.00    +0.000 A 
DOCKED: ATOM     21  C   UNL     1      30.176 -16.490  -5.040 -0.24 -0.00    +0.000 A 
DOCKED: ATOM     22  N   UNL     1      29.995 -17.252  -6.144 -0.36 -0.00    +0.000 N 
DOCKED: ATOM     23  C   UNL     1      30.362 -18.497  -5.793 -0.33 -0.00    +0.000 A 
DOCKED: ATOM     24  C   UNL     1      30.781 -18.539  -4.487 -0.22 -0.00    +0.000 A 
DOCKED: ATOM     25  C   UNL     1      31.192 -19.730  -3.887 -0.14 -0.00    +0.000 A 
DOCKED: ATOM     26  C   UNL     1      31.174 -20.900  -4.668 -0.24 -0.00    +0.000 A 
DOCKED: ATOM     27  C   UNL     1      30.748 -20.856  -6.013 -0.36 -0.00    +0.000 A 
DOCKED: ATOM     28  C   UNL     1      30.333 -19.640  -6.590 -0.41 -0.00    +0.000 A 
DOCKED: ATOM     29  C   UNL     1      29.880 -15.024  -4.990 -0.19 -0.00    +0.000 C 
DOCKED: ATOM     30  H   UNL     1      29.662 -16.956  -7.022 -0.04 -0.00    +0.000 HD
DOCKED: ENDBRANCH  19  20
DOCKED: ENDBRANCH  18  19
DOCKED: ENDBRANCH   1  18
DOCKED: TORSDOF 7
DOCKED: TER
DOCKED: ENDMDL
________________________________________________________________________________


	BEGINNING GENETIC ALGORITHM DOCKING 20 of 100
Run: 20 Seed: 330307907 612541933 [ Run 20 of 100 GA/GALS ]
Beginning LAMARCKIAN GENETIC ALGORITHM (LGA), with a maximum of 2500000 energy evaluations.

Final-Value: -15.625


	FINAL GENETIC ALGORITHM DOCKED STATE
	_______________________________________________


Detailed state:  trans 28.835 -15.557 0.490 quatxyzw -0.085712 0.322472 0.923048 0.191435 center 0.578 -0.033 0.130 ntor 7 137.5328 161.1242 157.9263 102.9965 166.7981 175.9466 10.3922
State:	 28.835 -15.557   0.490  -0.087  0.329  0.940 157.927    137.53  161.12  157.93  103.00  166.80  175.95   10.39

DOCKED: MODEL       20
DOCKED: USER    Run = 20
DOCKED: USER    DPF = ligand_dock.biased.dpf
DOCKED: USER  
DOCKED: USER    Estimated Free Energy of Binding    =  -12.33 kcal/mol  [=(1)+(2)+(3)-(4)]
DOCKED: USER    Estimated Inhibition Constant, Ki   =  908.61 pM (picomolar)  [Temperature = 298.15 K]
DOCKED: USER    
DOCKED: USER    (1) Final Intermolecular Energy     =  -14.42 kcal/mol
DOCKED: USER        vdW + Hbond + desolv Energy     =  -14.42 kcal/mol
DOCKED: USER        Electrostatic Energy            =   +0.00 kcal/mol
DOCKED: USER    (2) Final Total Internal Energy     =   -1.20 kcal/mol
DOCKED: USER    (3) Torsional Free Energy           =   +2.09 kcal/mol
DOCKED: USER    (4) Unbound System's Energy  [=(2)] =   -1.20 kcal/mol
DOCKED: USER    
DOCKED: USER    
DOCKED: USER    NEWDPF move ligand.pdbqt
DOCKED: USER    NEWDPF about 0.578000 -0.033000 0.130000
DOCKED: USER    NEWDPF tran0 28.835483 -15.557124 0.489958
DOCKED: USER    NEWDPF quaternion0 -0.085712 0.322472 0.923048 0.191435
DOCKED: USER    NEWDPF axisangle0 -0.087327 0.328549 0.940441 157.926958
DOCKED: USER    NEWDPF quat0 -0.087327 0.328549 0.940441 157.926958
DOCKED: USER    NEWDPF dihe0 137.53 161.12 157.93 103.00 166.80 175.95 10.39 
DOCKED: USER  keepresnum = 1 
DOCKED: USER  
DOCKED: REMARK  Name = 
DOCKED: REMARK  8 active torsions:
DOCKED: REMARK  status: ('A' for Active; 'I' for Inactive)
DOCKED: REMARK    1  A    between atoms: C_2  and  C_3
DOCKED: REMARK    2  A    between atoms: C_4  and  C_5
DOCKED: REMARK    3  A    between atoms: C_8  and  C_9
DOCKED: REMARK    4  A    between atoms: C_9  and  N_10
DOCKED: REMARK    5  A    between atoms: N_10  and  C_11
DOCKED: REMARK    6  A    between atoms: C_11  and  C_12
DOCKED: REMARK    7  A    between atoms: C_12  and  C_13
DOCKED: REMARK    8  A    between atoms: C_14  and  C_22
DOCKED: REMARK                            x       y       z     vdW  Elec       q    Type
DOCKED: REMARK                         _______ _______ _______ _____ _____    ______ ____
DOCKED: USER                              x       y       z     vdW  Elec       q    Type
DOCKED: USER                           _______ _______ _______ _____ _____    ______ ____
DOCKED: ROOT
DOCKED: ATOM      1  N   UNL     1      29.410 -15.156   0.829 -0.14 -0.00    +0.000 N 
DOCKED: ATOM      2  H   UNL     1      28.961 -15.456   1.694 -1.35 -0.00    +0.000 HD
DOCKED: ATOM      3  H   UNL     1      29.027 -14.272   0.496 -0.04 -0.00    +0.000 HD
DOCKED: ENDROOT
DOCKED: BRANCH   1   4
DOCKED: ATOM      4  C   UNL     1      29.163 -16.169  -0.205 -0.19 -0.00    +0.000 C 
DOCKED: BRANCH   4   8
DOCKED: ATOM      5  C   UNL     1      24.915 -16.813  -0.703 -0.52 -0.00    +0.000 A 
DOCKED: ATOM      6  C   UNL     1      25.545 -15.698  -1.291 -0.42 -0.00    +0.000 A 
DOCKED: ATOM      7  C   UNL     1      26.916 -15.485  -1.119 -0.32 -0.00    +0.000 A 
DOCKED: ATOM      8  C   UNL     1      27.682 -16.378  -0.355 -0.33 -0.00    +0.000 A 
DOCKED: ATOM      9  C   UNL     1      27.065 -17.506   0.205 -0.22 -0.00    +0.000 A 
DOCKED: ATOM     10  C   UNL     1      25.695 -17.721   0.032 -0.49 -0.00    +0.000 A 
DOCKED: BRANCH   5  12
DOCKED: ATOM     11  C   UNL     1      22.966 -18.318  -1.090 -0.81 -0.00    +0.000 C 
DOCKED: ATOM     12  C   UNL     1      23.467 -17.093  -0.867 -0.68 -0.00    +0.000 C 
DOCKED: BRANCH  11  14
DOCKED: ATOM     13  O   UNL     1      20.702 -17.799  -0.714 -2.28 -0.00    +0.000 OA
DOCKED: ATOM     14  C   UNL     1      21.523 -18.589  -1.252 -0.56 -0.00    +0.000 C 
DOCKED: ATOM     15  N   UNL     1      21.031 -19.727  -1.969 -0.56 -0.00    +0.000 N 
DOCKED: ATOM     16  O   UNL     1      19.703 -19.874  -2.181 -2.00 -0.00    +0.000 OA
DOCKED: ATOM     17  H   UNL     1      21.662 -20.403  -2.310 -0.56 -0.00    +0.000 HD
DOCKED: ENDBRANCH  11  14
DOCKED: ENDBRANCH   5  12
DOCKED: ENDBRANCH   4   8
DOCKED: ENDBRANCH   1   4
DOCKED: BRANCH   1  18
DOCKED: ATOM     18  C   UNL     1      30.845 -14.956   1.085 -0.13 -0.00    +0.000 C 
DOCKED: BRANCH  18  19
DOCKED: ATOM     19  C   UNL     1      31.272 -15.468   2.469 -0.14 -0.00    +0.000 C 
DOCKED: BRANCH  19  20
DOCKED: ATOM     20  C   UNL     1      30.945 -14.451   3.526 -0.23 -0.00    +0.000 A 
DOCKED: ATOM     21  C   UNL     1      31.841 -13.692   4.278 -0.14 -0.00    +0.000 A 
DOCKED: ATOM     22  N   UNL     1      31.183 -12.928   5.182 -0.17 -0.00    +0.000 N 
DOCKED: ATOM     23  C   UNL     1      29.880 -13.215   5.023 -0.25 -0.00    +0.000 A 
DOCKED: ATOM     24  C   UNL     1      29.695 -14.143   4.029 -0.31 -0.00    +0.000 A 
DOCKED: ATOM     25  C   UNL     1      28.426 -14.617   3.694 -0.32 -0.00    +0.000 A 
DOCKED: ATOM     26  C   UNL     1      27.325 -14.106   4.405 -0.52 -0.00    +0.000 A 
DOCKED: ATOM     27  C   UNL     1      27.514 -13.148   5.425 -0.28 -0.00    +0.000 A 
DOCKED: ATOM     28  C   UNL     1      28.807 -12.692   5.744 -0.35 -0.00    +0.000 A 
DOCKED: ATOM     29  C   UNL     1      33.329 -13.686   4.119 -0.11 -0.00    +0.000 C 
DOCKED: ATOM     30  H   UNL     1      31.578 -12.294   5.824 +0.00 -0.00    +0.000 HD
DOCKED: ENDBRANCH  19  20
DOCKED: ENDBRANCH  18  19
DOCKED: ENDBRANCH   1  18
DOCKED: TORSDOF 7
DOCKED: TER
DOCKED: ENDMDL
________________________________________________________________________________


	BEGINNING GENETIC ALGORITHM DOCKING 21 of 100
Run: 21 Seed: 2082200230 240444242 [ Run 21 of 100 GA/GALS ]
Beginning LAMARCKIAN GENETIC ALGORITHM (LGA), with a maximum of 2500000 energy evaluations.

Final-Value: -14.813


	FINAL GENETIC ALGORITHM DOCKED STATE
	_______________________________________________


Detailed state:  trans 28.851 -16.284 -0.275 quatxyzw 0.084820 -0.452840 -0.887352 -0.018627 center 0.578 -0.033 0.130 ntor 7 175.0939 171.2341 -163.6343 -177.1472 165.9430 115.3038 -10.4381
State:	 28.851 -16.284  -0.275   0.085 -0.453 -0.888 -177.865    175.09  171.23 -163.63 -177.15  165.94  115.30  -10.44

DOCKED: MODEL       21
DOCKED: USER    Run = 21
DOCKED: USER    DPF = ligand_dock.biased.dpf
DOCKED: USER  
DOCKED: USER    Estimated Free Energy of Binding    =  -11.36 kcal/mol  [=(1)+(2)+(3)-(4)]
DOCKED: USER    Estimated Inhibition Constant, Ki   =    4.71 nM (nanomolar)  [Temperature = 298.15 K]
DOCKED: USER    
DOCKED: USER    (1) Final Intermolecular Energy     =  -13.45 kcal/mol
DOCKED: USER        vdW + Hbond + desolv Energy     =  -13.45 kcal/mol
DOCKED: USER        Electrostatic Energy            =   +0.00 kcal/mol
DOCKED: USER    (2) Final Total Internal Energy     =   -1.37 kcal/mol
DOCKED: USER    (3) Torsional Free Energy           =   +2.09 kcal/mol
DOCKED: USER    (4) Unbound System's Energy  [=(2)] =   -1.37 kcal/mol
DOCKED: USER    
DOCKED: USER    
DOCKED: USER    NEWDPF move ligand.pdbqt
DOCKED: USER    NEWDPF about 0.578000 -0.033000 0.130000
DOCKED: USER    NEWDPF tran0 28.851309 -16.284230 -0.274576
DOCKED: USER    NEWDPF quaternion0 0.084820 -0.452840 -0.887352 -0.018627
DOCKED: USER    NEWDPF axisangle0 0.084834 -0.452919 -0.887506 -177.865339
DOCKED: USER    NEWDPF quat0 0.084834 -0.452919 -0.887506 -177.865339
DOCKED: USER    NEWDPF dihe0 175.09 171.23 -163.63 -177.15 165.94 115.30 -10.44 
DOCKED: USER  keepresnum = 1 
DOCKED: USER  
DOCKED: REMARK  Name = 
DOCKED: REMARK  8 active torsions:
DOCKED: REMARK  status: ('A' for Active; 'I' for Inactive)
DOCKED: REMARK    1  A    between atoms: C_2  and  C_3
DOCKED: REMARK    2  A    between atoms: C_4  and  C_5
DOCKED: REMARK    3  A    between atoms: C_8  and  C_9
DOCKED: REMARK    4  A    between atoms: C_9  and  N_10
DOCKED: REMARK    5  A    between atoms: N_10  and  C_11
DOCKED: REMARK    6  A    between atoms: C_11  and  C_12
DOCKED: REMARK    7  A    between atoms: C_12  and  C_13
DOCKED: REMARK    8  A    between atoms: C_14  and  C_22
DOCKED: REMARK                            x       y       z     vdW  Elec       q    Type
DOCKED: REMARK                         _______ _______ _______ _____ _____    ______ ____
DOCKED: USER                              x       y       z     vdW  Elec       q    Type
DOCKED: USER                           _______ _______ _______ _____ _____    ______ ____
DOCKED: ROOT
DOCKED: ATOM      1  N   UNL     1      29.482 -16.002   0.085 -0.18 -0.00    +0.000 N 
DOCKED: ATOM      2  H   UNL     1      28.854 -15.920   0.885 -0.70 -0.00    +0.000 HD
DOCKED: ATOM      3  H   UNL     1      29.466 -15.159  -0.489 -0.00 -0.00    +0.000 HD
DOCKED: ENDROOT
DOCKED: BRANCH   1   4
DOCKED: ATOM      4  C   UNL     1      29.034 -17.123  -0.752 -0.28 -0.00    +0.000 C 
DOCKED: BRANCH   4   8
DOCKED: ATOM      5  C   UNL     1      24.716 -17.379  -0.751 -0.62 -0.00    +0.000 A 
DOCKED: ATOM      6  C   UNL     1      25.378 -16.422  -1.547 -0.52 -0.00    +0.000 A 
DOCKED: ATOM      7  C   UNL     1      26.774 -16.333  -1.537 -0.39 -0.00    +0.000 A 
DOCKED: ATOM      8  C   UNL     1      27.533 -17.194  -0.730 -0.40 -0.00    +0.000 A 
DOCKED: ATOM      9  C   UNL     1      26.881 -18.168   0.039 -0.31 -0.00    +0.000 A 
DOCKED: ATOM     10  C   UNL     1      25.486 -18.259   0.028 -0.58 -0.00    +0.000 A 
DOCKED: BRANCH   5  12
DOCKED: ATOM     11  C   UNL     1      22.610 -18.693  -0.541 -0.83 -0.00    +0.000 C 
DOCKED: ATOM     12  C   UNL     1      23.240 -17.524  -0.736 -0.77 -0.00    +0.000 C 
DOCKED: BRANCH  11  14
DOCKED: ATOM     13  O   UNL     1      20.443 -17.859  -0.926 -2.23 -0.00    +0.000 OA
DOCKED: ATOM     14  C   UNL     1      21.139 -18.831  -0.527 -0.84 -0.00    +0.000 C 
DOCKED: ATOM     15  N   UNL     1      20.482 -20.012  -0.051 -0.73 -0.00    +0.000 N 
DOCKED: ATOM     16  O   UNL     1      19.139 -20.131  -0.158 -1.20 -0.00    +0.000 OA
DOCKED: ATOM     17  H   UNL     1      21.011 -20.738   0.354 -0.42 -0.00    +0.000 HD
DOCKED: ENDBRANCH  11  14
DOCKED: ENDBRANCH   5  12
DOCKED: ENDBRANCH   4   8
DOCKED: ENDBRANCH   1   4
DOCKED: BRANCH   1  18
DOCKED: ATOM     18  C   UNL     1      30.856 -16.185   0.577 -0.09 -0.00    +0.000 C 
DOCKED: BRANCH  18  19
DOCKED: ATOM     19  C   UNL     1      31.255 -15.123   1.613 -0.14 -0.00    +0.000 C 
DOCKED: BRANCH  19  20
DOCKED: ATOM     20  C   UNL     1      30.130 -14.149   1.824 -0.13 -0.00    +0.000 A 
DOCKED: ATOM     21  C   UNL     1      29.701 -13.149   0.950 -0.07 -0.00    +0.000 A 
DOCKED: ATOM     22  N   UNL     1      28.702 -12.423   1.507 -0.11 -0.00    +0.000 N 
DOCKED: ATOM     23  C   UNL     1      28.513 -12.941   2.732 -0.20 -0.00    +0.000 A 
DOCKED: ATOM     24  C   UNL     1      29.368 -13.988   2.965 -0.22 -0.00    +0.000 A 
DOCKED: ATOM     25  C   UNL     1      29.374 -14.674   4.180 -0.34 -0.00    +0.000 A 
DOCKED: ATOM     26  C   UNL     1      28.464 -14.265   5.171 -0.45 -0.00    +0.000 A 
DOCKED: ATOM     27  C   UNL     1      27.581 -13.190   4.930 -0.40 -0.00    +0.000 A 
DOCKED: ATOM     28  C   UNL     1      27.601 -12.512   3.696 -0.28 -0.00    +0.000 A 
DOCKED: ATOM     29  C   UNL     1      30.237 -12.900  -0.425 -0.03 -0.00    +0.000 C 
DOCKED: ATOM     30  H   UNL     1      28.217 -11.671   1.098 +0.01 -0.00    +0.000 HD
DOCKED: ENDBRANCH  19  20
DOCKED: ENDBRANCH  18  19
DOCKED: ENDBRANCH   1  18
DOCKED: TORSDOF 7
DOCKED: TER
DOCKED: ENDMDL
________________________________________________________________________________


	BEGINNING GENETIC ALGORITHM DOCKING 22 of 100
Run: 22 Seed: 2066323630 808225678 [ Run 22 of 100 GA/GALS ]
Beginning LAMARCKIAN GENETIC ALGORITHM (LGA), with a maximum of 2500000 energy evaluations.

Final-Value: -14.468


	FINAL GENETIC ALGORITHM DOCKED STATE
	_______________________________________________


Detailed state:  trans 28.466 -16.540 0.161 quatxyzw 0.483594 -0.304089 0.789028 -0.226056 center 0.578 -0.033 0.130 ntor 7 130.1392 -50.2848 -173.8672 -170.9792 -49.0033 90.3955 -92.4512
State:	 28.466 -16.540   0.161   0.496 -0.312  0.810 -153.870    130.14  -50.28 -173.87 -170.98  -49.00   90.40  -92.45

DOCKED: MODEL       22
DOCKED: USER    Run = 22
DOCKED: USER    DPF = ligand_dock.biased.dpf
DOCKED: USER  
DOCKED: USER    Estimated Free Energy of Binding    =  -11.07 kcal/mol  [=(1)+(2)+(3)-(4)]
DOCKED: USER    Estimated Inhibition Constant, Ki   =    7.67 nM (nanomolar)  [Temperature = 298.15 K]
DOCKED: USER    
DOCKED: USER    (1) Final Intermolecular Energy     =  -13.16 kcal/mol
DOCKED: USER        vdW + Hbond + desolv Energy     =  -13.16 kcal/mol
DOCKED: USER        Electrostatic Energy            =   +0.00 kcal/mol
DOCKED: USER    (2) Final Total Internal Energy     =   -1.31 kcal/mol
DOCKED: USER    (3) Torsional Free Energy           =   +2.09 kcal/mol
DOCKED: USER    (4) Unbound System's Energy  [=(2)] =   -1.31 kcal/mol
DOCKED: USER    
DOCKED: USER    
DOCKED: USER    NEWDPF move ligand.pdbqt
DOCKED: USER    NEWDPF about 0.578000 -0.033000 0.130000
DOCKED: USER    NEWDPF tran0 28.466139 -16.539615 0.160699
DOCKED: USER    NEWDPF quaternion0 0.483594 -0.304089 0.789028 -0.226056
DOCKED: USER    NEWDPF axisangle0 0.496445 -0.312169 0.809996 -153.870005
DOCKED: USER    NEWDPF quat0 0.496445 -0.312169 0.809996 -153.870005
DOCKED: USER    NEWDPF dihe0 130.14 -50.28 -173.87 -170.98 -49.00 90.40 -92.45 
DOCKED: USER  keepresnum = 1 
DOCKED: USER  
DOCKED: REMARK  Name = 
DOCKED: REMARK  8 active torsions:
DOCKED: REMARK  status: ('A' for Active; 'I' for Inactive)
DOCKED: REMARK    1  A    between atoms: C_2  and  C_3
DOCKED: REMARK    2  A    between atoms: C_4  and  C_5
DOCKED: REMARK    3  A    between atoms: C_8  and  C_9
DOCKED: REMARK    4  A    between atoms: C_9  and  N_10
DOCKED: REMARK    5  A    between atoms: N_10  and  C_11
DOCKED: REMARK    6  A    between atoms: C_11  and  C_12
DOCKED: REMARK    7  A    between atoms: C_12  and  C_13
DOCKED: REMARK    8  A    between atoms: C_14  and  C_22
DOCKED: REMARK                            x       y       z     vdW  Elec       q    Type
DOCKED: REMARK                         _______ _______ _______ _____ _____    ______ ____
DOCKED: USER                              x       y       z     vdW  Elec       q    Type
DOCKED: USER                           _______ _______ _______ _____ _____    ______ ____
DOCKED: ROOT
DOCKED: ATOM      1  N   UNL     1      28.909 -16.880  -0.381 -0.26 -0.00    +0.000 N 
DOCKED: ATOM      2  H   UNL     1      28.681 -17.735   0.127 -0.54 -0.00    +0.000 HD
DOCKED: ATOM      3  H   UNL     1      29.751 -16.439  -0.010 -0.10 -0.00    +0.000 HD
DOCKED: ENDROOT
DOCKED: BRANCH   1   4
DOCKED: ATOM      4  C   UNL     1      27.799 -15.931  -0.227 -0.33 -0.00    +0.000 C 
DOCKED: BRANCH   4   8
DOCKED: ATOM      5  C   UNL     1      24.084 -18.005  -1.003 -0.70 -0.00    +0.000 A 
DOCKED: ATOM      6  C   UNL     1      24.314 -16.721  -1.538 -0.52 -0.00    +0.000 A 
DOCKED: ATOM      7  C   UNL     1      25.512 -16.048  -1.276 -0.47 -0.00    +0.000 A 
DOCKED: ATOM      8  C   UNL     1      26.497 -16.640  -0.473 -0.44 -0.00    +0.000 A 
DOCKED: ATOM      9  C   UNL     1      26.286 -17.930   0.035 -0.55 -0.00    +0.000 A 
DOCKED: ATOM     10  C   UNL     1      25.091 -18.605  -0.228 -0.49 -0.00    +0.000 A 
DOCKED: BRANCH   5  12
DOCKED: ATOM     11  C   UNL     1      21.654 -18.470  -0.707 -0.86 -0.00    +0.000 C 
DOCKED: ATOM     12  C   UNL     1      22.839 -18.768  -1.263 -0.78 -0.00    +0.000 C 
DOCKED: BRANCH  11  14
DOCKED: ATOM     13  O   UNL     1      20.259 -19.740  -2.114 -2.33 -0.00    +0.000 OA
DOCKED: ATOM     14  C   UNL     1      20.418 -19.235  -0.971 -0.89 -0.00    +0.000 C 
DOCKED: ATOM     15  N   UNL     1      19.388 -19.394   0.013 -0.77 -0.00    +0.000 N 
DOCKED: ATOM     16  O   UNL     1      18.325 -20.192  -0.241 -0.97 -0.00    +0.000 OA
DOCKED: ATOM     17  H   UNL     1      19.456 -18.923   0.875 -0.24 -0.00    +0.000 HD
DOCKED: ENDBRANCH  11  14
DOCKED: ENDBRANCH   5  12
DOCKED: ENDBRANCH   4   8
DOCKED: ENDBRANCH   1   4
DOCKED: BRANCH   1  18
DOCKED: ATOM     18  C   UNL     1      29.163 -17.220  -1.790 -0.24 -0.00    +0.000 C 
DOCKED: BRANCH  18  19
DOCKED: ATOM     19  C   UNL     1      30.540 -17.870  -1.999 -0.20 -0.00    +0.000 C 
DOCKED: BRANCH  19  20
DOCKED: ATOM     20  C   UNL     1      31.220 -18.091  -0.677 -0.16 -0.00    +0.000 A 
DOCKED: ATOM     21  C   UNL     1      31.960 -17.167   0.061 -0.11 -0.00    +0.000 A 
DOCKED: ATOM     22  N   UNL     1      32.477 -17.743   1.171 -0.14 -0.00    +0.000 N 
DOCKED: ATOM     23  C   UNL     1      32.090 -19.029   1.130 -0.14 -0.00    +0.000 A 
DOCKED: ATOM     24  C   UNL     1      31.328 -19.281   0.016 -0.09 -0.00    +0.000 A 
DOCKED: ATOM     25  C   UNL     1      30.827 -20.555  -0.257 -0.13 -0.00    +0.000 A 
DOCKED: ATOM     26  C   UNL     1      31.119 -21.586   0.655 -0.24 -0.00    +0.000 A 
DOCKED: ATOM     27  C   UNL     1      31.898 -21.326   1.803 -0.22 -0.00    +0.000 A 
DOCKED: ATOM     28  C   UNL     1      32.395 -20.032   2.050 -0.19 -0.00    +0.000 A 
DOCKED: ATOM     29  C   UNL     1      32.157 -15.725  -0.291 -0.06 -0.00    +0.000 C 
DOCKED: ATOM     30  H   UNL     1      33.025 -17.310   1.865 +0.00 -0.00    +0.000 HD
DOCKED: ENDBRANCH  19  20
DOCKED: ENDBRANCH  18  19
DOCKED: ENDBRANCH   1  18
DOCKED: TORSDOF 7
DOCKED: TER
DOCKED: ENDMDL
________________________________________________________________________________


	BEGINNING GENETIC ALGORITHM DOCKING 23 of 100
Run: 23 Seed: 957361927 1520157837 [ Run 23 of 100 GA/GALS ]
Beginning LAMARCKIAN GENETIC ALGORITHM (LGA), with a maximum of 2500000 energy evaluations.

Final-Value: -15.890


	FINAL GENETIC ALGORITHM DOCKED STATE
	_______________________________________________


Detailed state:  trans 28.896 -16.274 -2.213 quatxyzw -0.026319 0.910526 0.391641 0.129872 center 0.578 -0.033 0.130 ntor 7 -179.8363 177.0415 -2.7435 -139.3737 78.4143 -164.3767 -3.4517
State:	 28.896 -16.274  -2.213  -0.027  0.918  0.395 165.076   -179.84  177.04   -2.74 -139.37   78.41 -164.38   -3.45

DOCKED: MODEL       23
DOCKED: USER    Run = 23
DOCKED: USER    DPF = ligand_dock.biased.dpf
DOCKED: USER  
DOCKED: USER    Estimated Free Energy of Binding    =  -11.68 kcal/mol  [=(1)+(2)+(3)-(4)]
DOCKED: USER    Estimated Inhibition Constant, Ki   =    2.73 nM (nanomolar)  [Temperature = 298.15 K]
DOCKED: USER    
DOCKED: USER    (1) Final Intermolecular Energy     =  -13.77 kcal/mol
DOCKED: USER        vdW + Hbond + desolv Energy     =  -13.77 kcal/mol
DOCKED: USER        Electrostatic Energy            =   +0.00 kcal/mol
DOCKED: USER    (2) Final Total Internal Energy     =   -2.12 kcal/mol
DOCKED: USER    (3) Torsional Free Energy           =   +2.09 kcal/mol
DOCKED: USER    (4) Unbound System's Energy  [=(2)] =   -2.12 kcal/mol
DOCKED: USER    
DOCKED: USER    
DOCKED: USER    NEWDPF move ligand.pdbqt
DOCKED: USER    NEWDPF about 0.578000 -0.033000 0.130000
DOCKED: USER    NEWDPF tran0 28.896219 -16.273999 -2.213062
DOCKED: USER    NEWDPF quaternion0 -0.026319 0.910526 0.391641 0.129872
DOCKED: USER    NEWDPF axisangle0 -0.026544 0.918303 0.394986 165.075566
DOCKED: USER    NEWDPF quat0 -0.026544 0.918303 0.394986 165.075566
DOCKED: USER    NEWDPF dihe0 -179.84 177.04 -2.74 -139.37 78.41 -164.38 -3.45 
DOCKED: USER  keepresnum = 1 
DOCKED: USER  
DOCKED: REMARK  Name = 
DOCKED: REMARK  8 active torsions:
DOCKED: REMARK  status: ('A' for Active; 'I' for Inactive)
DOCKED: REMARK    1  A    between atoms: C_2  and  C_3
DOCKED: REMARK    2  A    between atoms: C_4  and  C_5
DOCKED: REMARK    3  A    between atoms: C_8  and  C_9
DOCKED: REMARK    4  A    between atoms: C_9  and  N_10
DOCKED: REMARK    5  A    between atoms: N_10  and  C_11
DOCKED: REMARK    6  A    between atoms: C_11  and  C_12
DOCKED: REMARK    7  A    between atoms: C_12  and  C_13
DOCKED: REMARK    8  A    between atoms: C_14  and  C_22
DOCKED: REMARK                            x       y       z     vdW  Elec       q    Type
DOCKED: REMARK                         _______ _______ _______ _____ _____    ______ ____
DOCKED: USER                              x       y       z     vdW  Elec       q    Type
DOCKED: USER                           _______ _______ _______ _____ _____    ______ ____
DOCKED: ROOT
DOCKED: ATOM      1  N   UNL     1      29.493 -15.872  -2.511 -0.16 -0.00    +0.000 N 
DOCKED: ATOM      2  H   UNL     1      28.880 -15.069  -2.368 +0.01 -0.00    +0.000 HD
DOCKED: ATOM      3  H   UNL     1      29.352 -16.290  -3.430 -0.01 -0.00    +0.000 HD
DOCKED: ENDROOT
DOCKED: BRANCH   1   4
DOCKED: ATOM      4  C   UNL     1      29.176 -16.891  -1.501 -0.28 -0.00    +0.000 C 
DOCKED: BRANCH   4   8
DOCKED: ATOM      5  C   UNL     1      24.881 -17.248  -1.138 -0.60 -0.00    +0.000 A 
DOCKED: ATOM      6  C   UNL     1      25.452 -16.205  -1.894 -0.50 -0.00    +0.000 A 
DOCKED: ATOM      7  C   UNL     1      26.842 -16.084  -2.001 -0.36 -0.00    +0.000 A 
DOCKED: ATOM      8  C   UNL     1      27.684 -16.999  -1.352 -0.36 -0.00    +0.000 A 
DOCKED: ATOM      9  C   UNL     1      27.120 -18.057  -0.626 -0.37 -0.00    +0.000 A 
DOCKED: ATOM     10  C   UNL     1      25.731 -18.179  -0.520 -0.59 -0.00    +0.000 A 
DOCKED: BRANCH   5  12
DOCKED: ATOM     11  C   UNL     1      22.831 -18.612  -0.756 -0.83 -0.00    +0.000 C 
DOCKED: ATOM     12  C   UNL     1      23.414 -17.430  -1.006 -0.73 -0.00    +0.000 C 
DOCKED: BRANCH  11  14
DOCKED: ATOM     13  O   UNL     1      20.617 -17.874  -1.061 -2.22 -0.00    +0.000 OA
DOCKED: ATOM     14  C   UNL     1      21.370 -18.785  -0.625 -0.86 -0.00    +0.000 C 
DOCKED: ATOM     15  N   UNL     1      20.786 -19.934   0.003 -0.71 -0.00    +0.000 N 
DOCKED: ATOM     16  O   UNL     1      19.442 -20.097   0.003 -1.19 -0.00    +0.000 OA
DOCKED: ATOM     17  H   UNL     1      21.363 -20.605   0.433 -0.59 -0.00    +0.000 HD
DOCKED: ENDBRANCH  11  14
DOCKED: ENDBRANCH   5  12
DOCKED: ENDBRANCH   4   8
DOCKED: ENDBRANCH   1   4
DOCKED: BRANCH   1  18
DOCKED: ATOM     18  C   UNL     1      30.890 -15.420  -2.431 -0.07 -0.00    +0.000 C 
DOCKED: BRANCH  18  19
DOCKED: ATOM     19  C   UNL     1      31.062 -14.200  -1.514 -0.03 -0.00    +0.000 C 
DOCKED: BRANCH  19  20
DOCKED: ATOM     20  C   UNL     1      30.133 -14.295  -0.337 -0.07 -0.00    +0.000 A 
DOCKED: ATOM     21  C   UNL     1      30.375 -14.922   0.886 -0.11 -0.00    +0.000 A 
DOCKED: ATOM     22  N   UNL     1      29.281 -14.860   1.681 -0.07 -0.00    +0.000 N 
DOCKED: ATOM     23  C   UNL     1      28.343 -14.219   0.964 -0.20 -0.00    +0.000 A 
DOCKED: ATOM     24  C   UNL     1      28.821 -13.865  -0.273 -0.10 -0.00    +0.000 A 
DOCKED: ATOM     25  C   UNL     1      28.022 -13.207  -1.208 -0.11 -0.00    +0.000 A 
DOCKED: ATOM     26  C   UNL     1      26.698 -12.903  -0.843 -0.04 -0.00    +0.000 A 
DOCKED: ATOM     27  C   UNL     1      26.206 -13.264   0.431 -0.28 -0.00    +0.000 A 
DOCKED: ATOM     28  C   UNL     1      27.035 -13.933   1.352 -0.21 -0.00    +0.000 A 
DOCKED: ATOM     29  C   UNL     1      31.661 -15.566   1.297 -0.13 -0.00    +0.000 C 
DOCKED: ATOM     30  H   UNL     1      29.192 -15.213   2.596 -1.99 -0.00    +0.000 HD
DOCKED: ENDBRANCH  19  20
DOCKED: ENDBRANCH  18  19
DOCKED: ENDBRANCH   1  18
DOCKED: TORSDOF 7
DOCKED: TER
DOCKED: ENDMDL
________________________________________________________________________________


	BEGINNING GENETIC ALGORITHM DOCKING 24 of 100
Run: 24 Seed: 1894684818 800848729 [ Run 24 of 100 GA/GALS ]
Beginning LAMARCKIAN GENETIC ALGORITHM (LGA), with a maximum of 2500000 energy evaluations.

Final-Value: -15.754


	FINAL GENETIC ALGORITHM DOCKED STATE
	_______________________________________________


Detailed state:  trans 28.700 -16.384 0.132 quatxyzw -0.112968 -0.143597 -0.849702 -0.494595 center 0.578 -0.033 0.130 ntor 7 175.7809 -177.6191 177.5842 178.5994 167.6524 82.7213 53.2139
State:	 28.700 -16.384   0.132  -0.130 -0.165 -0.978 -120.714    175.78 -177.62  177.58  178.60  167.65   82.72   53.21

DOCKED: MODEL       24
DOCKED: USER    Run = 24
DOCKED: USER    DPF = ligand_dock.biased.dpf
DOCKED: USER  
DOCKED: USER    Estimated Free Energy of Binding    =  -12.09 kcal/mol  [=(1)+(2)+(3)-(4)]
DOCKED: USER    Estimated Inhibition Constant, Ki   =    1.37 nM (nanomolar)  [Temperature = 298.15 K]
DOCKED: USER    
DOCKED: USER    (1) Final Intermolecular Energy     =  -14.18 kcal/mol
DOCKED: USER        vdW + Hbond + desolv Energy     =  -14.18 kcal/mol
DOCKED: USER        Electrostatic Energy            =   +0.00 kcal/mol
DOCKED: USER    (2) Final Total Internal Energy     =   -1.57 kcal/mol
DOCKED: USER    (3) Torsional Free Energy           =   +2.09 kcal/mol
DOCKED: USER    (4) Unbound System's Energy  [=(2)] =   -1.57 kcal/mol
DOCKED: USER    
DOCKED: USER    
DOCKED: USER    NEWDPF move ligand.pdbqt
DOCKED: USER    NEWDPF about 0.578000 -0.033000 0.130000
DOCKED: USER    NEWDPF tran0 28.700244 -16.384176 0.131930
DOCKED: USER    NEWDPF quaternion0 -0.112968 -0.143597 -0.849702 -0.494595
DOCKED: USER    NEWDPF axisangle0 -0.129979 -0.165221 -0.977654 -120.713928
DOCKED: USER    NEWDPF quat0 -0.129979 -0.165221 -0.977654 -120.713928
DOCKED: USER    NEWDPF dihe0 175.78 -177.62 177.58 178.60 167.65 82.72 53.21 
DOCKED: USER  keepresnum = 1 
DOCKED: USER  
DOCKED: REMARK  Name = 
DOCKED: REMARK  8 active torsions:
DOCKED: REMARK  status: ('A' for Active; 'I' for Inactive)
DOCKED: REMARK    1  A    between atoms: C_2  and  C_3
DOCKED: REMARK    2  A    between atoms: C_4  and  C_5
DOCKED: REMARK    3  A    between atoms: C_8  and  C_9
DOCKED: REMARK    4  A    between atoms: C_9  and  N_10
DOCKED: REMARK    5  A    between atoms: N_10  and  C_11
DOCKED: REMARK    6  A    between atoms: C_11  and  C_12
DOCKED: REMARK    7  A    between atoms: C_12  and  C_13
DOCKED: REMARK    8  A    between atoms: C_14  and  C_22
DOCKED: REMARK                            x       y       z     vdW  Elec       q    Type
DOCKED: REMARK                         _______ _______ _______ _____ _____    ______ ____
DOCKED: USER                              x       y       z     vdW  Elec       q    Type
DOCKED: USER                           _______ _______ _______ _____ _____    ______ ____
DOCKED: ROOT
DOCKED: ATOM      1  N   UNL     1      29.140 -15.747   0.216 -0.17 -0.00    +0.000 N 
DOCKED: ATOM      2  H   UNL     1      29.474 -16.222   1.055 -0.73 -0.00    +0.000 HD
DOCKED: ATOM      3  H   UNL     1      28.320 -15.174   0.413 -0.08 -0.00    +0.000 HD
DOCKED: ENDROOT
DOCKED: BRANCH   1   4
DOCKED: ATOM      4  C   UNL     1      28.751 -16.760  -0.774 -0.30 -0.00    +0.000 C 
DOCKED: BRANCH   4   8
DOCKED: ATOM      5  C   UNL     1      24.465 -17.340  -0.739 -0.62 -0.00    +0.000 A 
DOCKED: ATOM      6  C   UNL     1      25.035 -16.247  -1.421 -0.49 -0.00    +0.000 A 
DOCKED: ATOM      7  C   UNL     1      26.420 -16.054  -1.421 -0.40 -0.00    +0.000 A 
DOCKED: ATOM      8  C   UNL     1      27.260 -16.946  -0.739 -0.41 -0.00    +0.000 A 
DOCKED: ATOM      9  C   UNL     1      26.700 -18.054  -0.086 -0.48 -0.00    +0.000 A 
DOCKED: ATOM     10  C   UNL     1      25.316 -18.248  -0.087 -0.60 -0.00    +0.000 A 
DOCKED: BRANCH   5  12
DOCKED: ATOM     11  C   UNL     1      22.464 -18.796  -0.446 -0.82 -0.00    +0.000 C 
DOCKED: ATOM     12  C   UNL     1      23.004 -17.599  -0.720 -0.78 -0.00    +0.000 C 
DOCKED: BRANCH  11  14
DOCKED: ATOM     13  O   UNL     1      20.244 -18.167  -0.909 -2.13 -0.00    +0.000 OA
DOCKED: ATOM     14  C   UNL     1      21.008 -19.046  -0.428 -0.86 -0.00    +0.000 C 
DOCKED: ATOM     15  N   UNL     1      20.439 -20.232   0.140 -0.70 -0.00    +0.000 N 
DOCKED: ATOM     16  O   UNL     1      19.110 -20.463   0.036 -1.09 -0.00    +0.000 OA
DOCKED: ATOM     17  H   UNL     1      21.017 -20.879   0.606 -0.54 -0.00    +0.000 HD
DOCKED: ENDBRANCH  11  14
DOCKED: ENDBRANCH   5  12
DOCKED: ENDBRANCH   4   8
DOCKED: ENDBRANCH   1   4
DOCKED: BRANCH   1  18
DOCKED: ATOM     18  C   UNL     1      30.203 -14.859  -0.279 -0.11 -0.00    +0.000 C 
DOCKED: BRANCH  18  19
DOCKED: ATOM     19  C   UNL     1      30.210 -13.498   0.434 -0.07 -0.00    +0.000 C 
DOCKED: BRANCH  19  20
DOCKED: ATOM     20  C   UNL     1      29.033 -13.386   1.360 -0.13 -0.00    +0.000 A 
DOCKED: ATOM     21  C   UNL     1      27.774 -12.859   1.071 -0.18 -0.00    +0.000 A 
DOCKED: ATOM     22  N   UNL     1      26.987 -12.864   2.173 -0.32 -0.00    +0.000 N 
DOCKED: ATOM     23  C   UNL     1      27.745 -13.369   3.162 -0.33 -0.00    +0.000 A 
DOCKED: ATOM     24  C   UNL     1      28.999 -13.692   2.707 -0.21 -0.00    +0.000 A 
DOCKED: ATOM     25  C   UNL     1      29.975 -14.214   3.557 -0.26 -0.00    +0.000 A 
DOCKED: ATOM     26  C   UNL     1      29.634 -14.411   4.907 -0.31 -0.00    +0.000 A 
DOCKED: ATOM     27  C   UNL     1      28.342 -14.083   5.374 -0.42 -0.00    +0.000 A 
DOCKED: ATOM     28  C   UNL     1      27.380 -13.553   4.495 -0.44 -0.00    +0.000 A 
DOCKED: ATOM     29  C   UNL     1      27.319 -12.366  -0.267 -0.18 -0.00    +0.000 C 
DOCKED: ATOM     30  H   UNL     1      26.053 -12.560   2.237 -0.02 +0.00    +0.000 HD
DOCKED: ENDBRANCH  19  20
DOCKED: ENDBRANCH  18  19
DOCKED: ENDBRANCH   1  18
DOCKED: TORSDOF 7
DOCKED: TER
DOCKED: ENDMDL
________________________________________________________________________________


	BEGINNING GENETIC ALGORITHM DOCKING 25 of 100
Run: 25 Seed: 1052673649 540993533 [ Run 25 of 100 GA/GALS ]
Beginning LAMARCKIAN GENETIC ALGORITHM (LGA), with a maximum of 2500000 energy evaluations.

Final-Value: -14.626


	FINAL GENETIC ALGORITHM DOCKED STATE
	_______________________________________________


Detailed state:  trans 29.291 -16.108 -0.971 quatxyzw -0.582714 -0.205041 -0.557490 -0.554624 center 0.578 -0.033 0.130 ntor 7 164.4603 179.5705 -6.5671 -57.8349 120.0107 -165.3733 109.5845
State:	 29.291 -16.108  -0.971  -0.700 -0.246 -0.670 -112.630    164.46  179.57   -6.57  -57.83  120.01 -165.37  109.58

DOCKED: MODEL       25
DOCKED: USER    Run = 25
DOCKED: USER    DPF = ligand_dock.biased.dpf
DOCKED: USER  
DOCKED: USER    Estimated Free Energy of Binding    =  -11.30 kcal/mol  [=(1)+(2)+(3)-(4)]
DOCKED: USER    Estimated Inhibition Constant, Ki   =    5.18 nM (nanomolar)  [Temperature = 298.15 K]
DOCKED: USER    
DOCKED: USER    (1) Final Intermolecular Energy     =  -13.39 kcal/mol
DOCKED: USER        vdW + Hbond + desolv Energy     =  -13.39 kcal/mol
DOCKED: USER        Electrostatic Energy            =   +0.00 kcal/mol
DOCKED: USER    (2) Final Total Internal Energy     =   -1.23 kcal/mol
DOCKED: USER    (3) Torsional Free Energy           =   +2.09 kcal/mol
DOCKED: USER    (4) Unbound System's Energy  [=(2)] =   -1.23 kcal/mol
DOCKED: USER    
DOCKED: USER    
DOCKED: USER    NEWDPF move ligand.pdbqt
DOCKED: USER    NEWDPF about 0.578000 -0.033000 0.130000
DOCKED: USER    NEWDPF tran0 29.291189 -16.107947 -0.971335
DOCKED: USER    NEWDPF quaternion0 -0.582714 -0.205041 -0.557490 -0.554624
DOCKED: USER    NEWDPF axisangle0 -0.700292 -0.246413 -0.669979 -112.630371
DOCKED: USER    NEWDPF quat0 -0.700292 -0.246413 -0.669979 -112.630371
DOCKED: USER    NEWDPF dihe0 164.46 179.57 -6.57 -57.83 120.01 -165.37 109.58 
DOCKED: USER  keepresnum = 1 
DOCKED: USER  
DOCKED: REMARK  Name = 
DOCKED: REMARK  8 active torsions:
DOCKED: REMARK  status: ('A' for Active; 'I' for Inactive)
DOCKED: REMARK    1  A    between atoms: C_2  and  C_3
DOCKED: REMARK    2  A    between atoms: C_4  and  C_5
DOCKED: REMARK    3  A    between atoms: C_8  and  C_9
DOCKED: REMARK    4  A    between atoms: C_9  and  N_10
DOCKED: REMARK    5  A    between atoms: N_10  and  C_11
DOCKED: REMARK    6  A    between atoms: C_11  and  C_12
DOCKED: REMARK    7  A    between atoms: C_12  and  C_13
DOCKED: REMARK    8  A    between atoms: C_14  and  C_22
DOCKED: REMARK                            x       y       z     vdW  Elec       q    Type
DOCKED: REMARK                         _______ _______ _______ _____ _____    ______ ____
DOCKED: USER                              x       y       z     vdW  Elec       q    Type
DOCKED: USER                           _______ _______ _______ _____ _____    ______ ____
DOCKED: ROOT
DOCKED: ATOM      1  N   UNL     1      29.306 -15.585  -1.548 -0.14 -0.00    +0.000 N 
DOCKED: ATOM      2  H   UNL     1      30.256 -15.411  -1.219 +0.00 -0.00    +0.000 HD
DOCKED: ATOM      3  H   UNL     1      28.630 -14.993  -1.065 +0.00 -0.00    +0.000 HD
DOCKED: ENDROOT
DOCKED: BRANCH   1   4
DOCKED: ATOM      4  C   UNL     1      28.958 -16.984  -1.266 -0.30 -0.00    +0.000 C 
DOCKED: BRANCH   4   8
DOCKED: ATOM      5  C   UNL     1      24.661 -17.420  -1.036 -0.63 -0.00    +0.000 A 
DOCKED: ATOM      6  C   UNL     1      25.240 -16.469  -1.899 -0.53 -0.00    +0.000 A 
DOCKED: ATOM      7  C   UNL     1      26.629 -16.321  -1.963 -0.39 -0.00    +0.000 A 
DOCKED: ATOM      8  C   UNL     1      27.464 -17.117  -1.165 -0.39 -0.00    +0.000 A 
DOCKED: ATOM      9  C   UNL     1      26.894 -18.087  -0.329 -0.46 -0.00    +0.000 A 
DOCKED: ATOM     10  C   UNL     1      25.506 -18.237  -0.265 -0.62 -0.00    +0.000 A 
DOCKED: BRANCH   5  12
DOCKED: ATOM     11  C   UNL     1      22.631 -18.768  -0.514 -0.82 -0.00    +0.000 C 
DOCKED: ATOM     12  C   UNL     1      23.195 -17.628  -0.941 -0.76 -0.00    +0.000 C 
DOCKED: BRANCH  11  14
DOCKED: ATOM     13  O   UNL     1      20.414 -18.025  -0.780 -2.22 -0.00    +0.000 OA
DOCKED: ATOM     14  C   UNL     1      21.170 -18.967  -0.421 -0.86 -0.00    +0.000 C 
DOCKED: ATOM     15  N   UNL     1      20.590 -20.175   0.086 -0.70 -0.00    +0.000 N 
DOCKED: ATOM     16  O   UNL     1      19.248 -20.350   0.051 -1.11 -0.00    +0.000 OA
DOCKED: ATOM     17  H   UNL     1      21.169 -20.878   0.460 -0.54 -0.00    +0.000 HD
DOCKED: ENDBRANCH  11  14
DOCKED: ENDBRANCH   5  12
DOCKED: ENDBRANCH   4   8
DOCKED: ENDBRANCH   1   4
DOCKED: BRANCH   1  18
DOCKED: ATOM     18  C   UNL     1      29.236 -15.269  -2.983 -0.17 -0.00    +0.000 C 
DOCKED: BRANCH  18  19
DOCKED: ATOM     19  C   UNL     1      30.586 -15.457  -3.692 -0.10 -0.00    +0.000 C 
DOCKED: BRANCH  19  20
DOCKED: ATOM     20  C   UNL     1      30.478 -16.520  -4.750 -0.20 -0.00    +0.000 A 
DOCKED: ATOM     21  C   UNL     1      30.026 -16.368  -6.061 -0.31 -0.00    +0.000 A 
DOCKED: ATOM     22  N   UNL     1      30.007 -17.559  -6.703 -0.32 -0.00    +0.000 N 
DOCKED: ATOM     23  C   UNL     1      30.422 -18.467  -5.802 -0.33 -0.00    +0.000 A 
DOCKED: ATOM     24  C   UNL     1      30.712 -17.873  -4.599 -0.23 -0.00    +0.000 A 
DOCKED: ATOM     25  C   UNL     1      31.142 -18.616  -3.499 -0.16 -0.00    +0.000 A 
DOCKED: ATOM     26  C   UNL     1      31.282 -20.007  -3.660 -0.12 -0.00    +0.000 A 
DOCKED: ATOM     27  C   UNL     1      30.988 -20.617  -4.899 -0.27 -0.00    +0.000 A 
DOCKED: ATOM     28  C   UNL     1      30.551 -19.842  -5.989 -0.39 -0.00    +0.000 A 
DOCKED: ATOM     29  C   UNL     1      29.627 -15.076  -6.703 -0.35 -0.00    +0.000 C 
DOCKED: ATOM     30  H   UNL     1      29.743 -17.727  -7.636 +0.00 -0.00    +0.000 HD
DOCKED: ENDBRANCH  19  20
DOCKED: ENDBRANCH  18  19
DOCKED: ENDBRANCH   1  18
DOCKED: TORSDOF 7
DOCKED: TER
DOCKED: ENDMDL
________________________________________________________________________________


	BEGINNING GENETIC ALGORITHM DOCKING 26 of 100
Run: 26 Seed: 1583340326 1885311136 [ Run 26 of 100 GA/GALS ]
Beginning LAMARCKIAN GENETIC ALGORITHM (LGA), with a maximum of 2500000 energy evaluations.

Final-Value: -14.868


	FINAL GENETIC ALGORITHM DOCKED STATE
	_______________________________________________


Detailed state:  trans 27.706 -15.589 -1.508 quatxyzw -0.143834 0.612111 0.748409 0.210988 center 0.578 -0.033 0.130 ntor 7 -6.9172 44.8172 -178.5125 -120.6776 149.5965 135.4220 -14.7374
State:	 27.706 -15.589  -1.508  -0.147  0.626  0.766 155.640     -6.92   44.82 -178.51 -120.68  149.60  135.42  -14.74

DOCKED: MODEL       26
DOCKED: USER    Run = 26
DOCKED: USER    DPF = ligand_dock.biased.dpf
DOCKED: USER  
DOCKED: USER    Estimated Free Energy of Binding    =  -11.32 kcal/mol  [=(1)+(2)+(3)-(4)]
DOCKED: USER    Estimated Inhibition Constant, Ki   =    5.05 nM (nanomolar)  [Temperature = 298.15 K]
DOCKED: USER    
DOCKED: USER    (1) Final Intermolecular Energy     =  -13.41 kcal/mol
DOCKED: USER        vdW + Hbond + desolv Energy     =  -13.41 kcal/mol
DOCKED: USER        Electrostatic Energy            =   +0.00 kcal/mol
DOCKED: USER    (2) Final Total Internal Energy     =   -1.46 kcal/mol
DOCKED: USER    (3) Torsional Free Energy           =   +2.09 kcal/mol
DOCKED: USER    (4) Unbound System's Energy  [=(2)] =   -1.46 kcal/mol
DOCKED: USER    
DOCKED: USER    
DOCKED: USER    NEWDPF move ligand.pdbqt
DOCKED: USER    NEWDPF about 0.578000 -0.033000 0.130000
DOCKED: USER    NEWDPF tran0 27.706108 -15.588641 -1.508281
DOCKED: USER    NEWDPF quaternion0 -0.143834 0.612111 0.748409 0.210988
DOCKED: USER    NEWDPF axisangle0 -0.147146 0.626208 0.765645 155.639536
DOCKED: USER    NEWDPF quat0 -0.147146 0.626208 0.765645 155.639536
DOCKED: USER    NEWDPF dihe0 -6.92 44.82 -178.51 -120.68 149.60 135.42 -14.74 
DOCKED: USER  keepresnum = 1 
DOCKED: USER  
DOCKED: REMARK  Name = 
DOCKED: REMARK  8 active torsions:
DOCKED: REMARK  status: ('A' for Active; 'I' for Inactive)
DOCKED: REMARK    1  A    between atoms: C_2  and  C_3
DOCKED: REMARK    2  A    between atoms: C_4  and  C_5
DOCKED: REMARK    3  A    between atoms: C_8  and  C_9
DOCKED: REMARK    4  A    between atoms: C_9  and  N_10
DOCKED: REMARK    5  A    between atoms: N_10  and  C_11
DOCKED: REMARK    6  A    between atoms: C_11  and  C_12
DOCKED: REMARK    7  A    between atoms: C_12  and  C_13
DOCKED: REMARK    8  A    between atoms: C_14  and  C_22
DOCKED: REMARK                            x       y       z     vdW  Elec       q    Type
DOCKED: REMARK                         _______ _______ _______ _____ _____    ______ ____
DOCKED: USER                              x       y       z     vdW  Elec       q    Type
DOCKED: USER                           _______ _______ _______ _____ _____    ______ ____
DOCKED: ROOT
DOCKED: ATOM      1  N   UNL     1      28.173 -14.980  -1.376 -0.17 -0.00    +0.000 N 
DOCKED: ATOM      2  H   UNL     1      27.525 -14.788  -0.612 +0.00 -0.00    +0.000 HD
DOCKED: ATOM      3  H   UNL     1      27.875 -14.528  -2.240 +0.01 -0.00    +0.000 HD
DOCKED: ENDROOT
DOCKED: BRANCH   1   4
DOCKED: ATOM      4  C   UNL     1      28.204 -16.429  -1.615 -0.32 -0.00    +0.000 C 
DOCKED: BRANCH   4   8
DOCKED: ATOM      5  C   UNL     1      24.353 -18.181  -0.718 -0.70 -0.00    +0.000 A 
DOCKED: ATOM      6  C   UNL     1      24.481 -17.216  -1.737 -0.57 -0.00    +0.000 A 
DOCKED: ATOM      7  C   UNL     1      25.726 -16.642  -2.017 -0.49 -0.00    +0.000 A 
DOCKED: ATOM      8  C   UNL     1      26.861 -17.018  -1.284 -0.43 -0.00    +0.000 A 
DOCKED: ATOM      9  C   UNL     1      26.743 -18.001  -0.292 -0.50 -0.00    +0.000 A 
DOCKED: ATOM     10  C   UNL     1      25.500 -18.576  -0.012 -0.45 -0.00    +0.000 A 
DOCKED: BRANCH   5  12
DOCKED: ATOM     11  C   UNL     1      22.026 -18.904  -1.244 -0.75 -0.00    +0.000 C 
DOCKED: ATOM     12  C   UNL     1      23.060 -18.832  -0.391 -0.78 -0.00    +0.000 C 
DOCKED: BRANCH  11  14
DOCKED: ATOM     13  O   UNL     1      19.905 -19.734  -1.836 -2.40 -0.00    +0.000 OA
DOCKED: ATOM     14  C   UNL     1      20.742 -19.554  -0.912 -0.85 -0.00    +0.000 C 
DOCKED: ATOM     15  N   UNL     1      20.408 -19.958   0.422 -0.71 -0.00    +0.000 N 
DOCKED: ATOM     16  O   UNL     1      19.266 -20.645   0.657 -0.86 -0.00    +0.000 OA
DOCKED: ATOM     17  H   UNL     1      21.011 -19.735   1.168 -0.49 -0.00    +0.000 HD
DOCKED: ENDBRANCH  11  14
DOCKED: ENDBRANCH   5  12
DOCKED: ENDBRANCH   4   8
DOCKED: ENDBRANCH   1   4
DOCKED: BRANCH   1  18
DOCKED: ATOM     18  C   UNL     1      29.496 -14.443  -1.021 -0.09 -0.00    +0.000 C 
DOCKED: BRANCH  18  19
DOCKED: ATOM     19  C   UNL     1      29.404 -13.196  -0.129 -0.07 -0.00    +0.000 C 
DOCKED: BRANCH  19  20
DOCKED: ATOM     20  C   UNL     1      28.587 -13.490   1.098 -0.15 -0.00    +0.000 A 
DOCKED: ATOM     21  C   UNL     1      27.204 -13.380   1.242 -0.26 -0.00    +0.000 A 
DOCKED: ATOM     22  N   UNL     1      26.829 -13.666   2.511 -0.31 -0.00    +0.000 N 
DOCKED: ATOM     23  C   UNL     1      27.966 -13.934   3.176 -0.36 -0.00    +0.000 A 
DOCKED: ATOM     24  C   UNL     1      29.058 -13.830   2.352 -0.19 -0.00    +0.000 A 
DOCKED: ATOM     25  C   UNL     1      30.355 -14.041   2.822 -0.17 -0.00    +0.000 A 
DOCKED: ATOM     26  C   UNL     1      30.515 -14.376   4.179 -0.28 -0.00    +0.000 A 
DOCKED: ATOM     27  C   UNL     1      29.391 -14.487   5.026 -0.27 -0.00    +0.000 A 
DOCKED: ATOM     28  C   UNL     1      28.095 -14.263   4.525 -0.52 -0.00    +0.000 A 
DOCKED: ATOM     29  C   UNL     1      26.239 -13.017   0.157 -0.25 -0.00    +0.000 C 
DOCKED: ATOM     30  H   UNL     1      25.913 -13.675   2.872 -0.02 -0.00    +0.000 HD
DOCKED: ENDBRANCH  19  20
DOCKED: ENDBRANCH  18  19
DOCKED: ENDBRANCH   1  18
DOCKED: TORSDOF 7
DOCKED: TER
DOCKED: ENDMDL
________________________________________________________________________________


	BEGINNING GENETIC ALGORITHM DOCKING 27 of 100
Run: 27 Seed: 1012182915 873190295 [ Run 27 of 100 GA/GALS ]
Beginning LAMARCKIAN GENETIC ALGORITHM (LGA), with a maximum of 2500000 energy evaluations.

Final-Value: -16.001


	FINAL GENETIC ALGORITHM DOCKED STATE
	_______________________________________________


Detailed state:  trans 28.057 -16.768 -0.351 quatxyzw 0.032864 0.253893 -0.914541 -0.313167 center 0.578 -0.033 0.130 ntor 7 -135.9712 176.0190 172.7588 -142.7554 -125.0129 7.3374 20.2052
State:	 28.057 -16.768  -0.351   0.035  0.267 -0.963 -143.500   -135.97  176.02  172.76 -142.76 -125.01    7.34   20.21

DOCKED: MODEL       27
DOCKED: USER    Run = 27
DOCKED: USER    DPF = ligand_dock.biased.dpf
DOCKED: USER  
DOCKED: USER    Estimated Free Energy of Binding    =  -12.47 kcal/mol  [=(1)+(2)+(3)-(4)]
DOCKED: USER    Estimated Inhibition Constant, Ki   =  719.56 pM (picomolar)  [Temperature = 298.15 K]
DOCKED: USER    
DOCKED: USER    (1) Final Intermolecular Energy     =  -14.56 kcal/mol
DOCKED: USER        vdW + Hbond + desolv Energy     =  -14.56 kcal/mol
DOCKED: USER        Electrostatic Energy            =   +0.00 kcal/mol
DOCKED: USER    (2) Final Total Internal Energy     =   -1.44 kcal/mol
DOCKED: USER    (3) Torsional Free Energy           =   +2.09 kcal/mol
DOCKED: USER    (4) Unbound System's Energy  [=(2)] =   -1.44 kcal/mol
DOCKED: USER    
DOCKED: USER    
DOCKED: USER    NEWDPF move ligand.pdbqt
DOCKED: USER    NEWDPF about 0.578000 -0.033000 0.130000
DOCKED: USER    NEWDPF tran0 28.056527 -16.767763 -0.350789
DOCKED: USER    NEWDPF quaternion0 0.032864 0.253893 -0.914541 -0.313167
DOCKED: USER    NEWDPF axisangle0 0.034604 0.267341 -0.962980 -143.499607
DOCKED: USER    NEWDPF quat0 0.034604 0.267341 -0.962980 -143.499607
DOCKED: USER    NEWDPF dihe0 -135.97 176.02 172.76 -142.76 -125.01 7.34 20.21 
DOCKED: USER  keepresnum = 1 
DOCKED: USER  
DOCKED: REMARK  Name = 
DOCKED: REMARK  8 active torsions:
DOCKED: REMARK  status: ('A' for Active; 'I' for Inactive)
DOCKED: REMARK    1  A    between atoms: C_2  and  C_3
DOCKED: REMARK    2  A    between atoms: C_4  and  C_5
DOCKED: REMARK    3  A    between atoms: C_8  and  C_9
DOCKED: REMARK    4  A    between atoms: C_9  and  N_10
DOCKED: REMARK    5  A    between atoms: N_10  and  C_11
DOCKED: REMARK    6  A    between atoms: C_11  and  C_12
DOCKED: REMARK    7  A    between atoms: C_12  and  C_13
DOCKED: REMARK    8  A    between atoms: C_14  and  C_22
DOCKED: REMARK                            x       y       z     vdW  Elec       q    Type
DOCKED: REMARK                         _______ _______ _______ _____ _____    ______ ____
DOCKED: USER                              x       y       z     vdW  Elec       q    Type
DOCKED: USER                           _______ _______ _______ _____ _____    ______ ____
DOCKED: ROOT
DOCKED: ATOM      1  N   UNL     1      28.707 -16.602   0.044 -0.20 -0.00    +0.000 N 
DOCKED: ATOM      2  H   UNL     1      28.735 -17.609   0.205 -0.52 -0.00    +0.000 HD
DOCKED: ATOM      3  H   UNL     1      28.176 -16.123   0.771 -0.49 -0.00    +0.000 HD
DOCKED: ENDROOT
DOCKED: BRANCH   1   4
DOCKED: ATOM      4  C   UNL     1      28.039 -16.349  -1.239 -0.34 -0.00    +0.000 C 
DOCKED: BRANCH   4   8
DOCKED: ATOM      5  C   UNL     1      23.902 -17.594  -1.023 -0.67 -0.00    +0.000 A 
DOCKED: ATOM      6  C   UNL     1      24.281 -16.502  -1.830 -0.34 -0.00    +0.000 A 
DOCKED: ATOM      7  C   UNL     1      25.618 -16.094  -1.889 -0.48 -0.00    +0.000 A 
DOCKED: ATOM      8  C   UNL     1      26.597 -16.764  -1.142 -0.44 -0.00    +0.000 A 
DOCKED: ATOM      9  C   UNL     1      26.230 -17.871  -0.363 -0.57 -0.00    +0.000 A 
DOCKED: ATOM     10  C   UNL     1      24.895 -18.281  -0.305 -0.63 -0.00    +0.000 A 
DOCKED: BRANCH   5  12
DOCKED: ATOM     11  C   UNL     1      22.169 -19.343  -0.644 -0.76 -0.00    +0.000 C 
DOCKED: ATOM     12  C   UNL     1      22.502 -18.077  -0.937 -0.79 -0.00    +0.000 C 
DOCKED: BRANCH  11  14
DOCKED: ATOM     13  O   UNL     1      20.047 -19.732  -1.585 -2.30 -0.00    +0.000 OA
DOCKED: ATOM     14  C   UNL     1      20.772 -19.817  -0.558 -0.77 -0.00    +0.000 C 
DOCKED: ATOM     15  N   UNL     1      20.210 -20.339   0.652 -0.69 -0.00    +0.000 N 
DOCKED: ATOM     16  O   UNL     1      18.961 -20.858   0.652 -0.85 -0.00    +0.000 OA
DOCKED: ATOM     17  H   UNL     1      20.735 -20.320   1.485 -0.52 -0.00    +0.000 HD
DOCKED: ENDBRANCH  11  14
DOCKED: ENDBRANCH   5  12
DOCKED: ENDBRANCH   4   8
DOCKED: ENDBRANCH   1   4
DOCKED: BRANCH   1  18
DOCKED: ATOM     18  C   UNL     1      30.081 -16.079   0.072 -0.14 -0.00    +0.000 C 
DOCKED: BRANCH  18  19
DOCKED: ATOM     19  C   UNL     1      30.130 -14.569   0.350 -0.12 -0.00    +0.000 C 
DOCKED: BRANCH  19  20
DOCKED: ATOM     20  C   UNL     1      29.005 -14.168   1.262 -0.17 -0.00    +0.000 A 
DOCKED: ATOM     21  C   UNL     1      27.766 -13.640   0.897 -0.21 -0.00    +0.000 A 
DOCKED: ATOM     22  N   UNL     1      27.032 -13.338   1.994 -0.32 -0.00    +0.000 N 
DOCKED: ATOM     23  C   UNL     1      27.804 -13.650   3.049 -0.33 -0.00    +0.000 A 
DOCKED: ATOM     24  C   UNL     1      29.016 -14.151   2.643 -0.21 -0.00    +0.000 A 
DOCKED: ATOM     25  C   UNL     1      29.999 -14.526   3.561 -0.25 -0.00    +0.000 A 
DOCKED: ATOM     26  C   UNL     1      29.709 -14.383   4.930 -0.30 -0.00    +0.000 A 
DOCKED: ATOM     27  C   UNL     1      28.461 -13.871   5.347 -0.45 -0.00    +0.000 A 
DOCKED: ATOM     28  C   UNL     1      27.491 -13.496   4.399 -0.44 -0.00    +0.000 A 
DOCKED: ATOM     29  C   UNL     1      27.279 -13.441  -0.504 -0.22 -0.00    +0.000 C 
DOCKED: ATOM     30  H   UNL     1      26.120 -12.966   2.015 -0.03 -0.00    +0.000 HD
DOCKED: ENDBRANCH  19  20
DOCKED: ENDBRANCH  18  19
DOCKED: ENDBRANCH   1  18
DOCKED: TORSDOF 7
DOCKED: TER
DOCKED: ENDMDL
________________________________________________________________________________


	BEGINNING GENETIC ALGORITHM DOCKING 28 of 100
Run: 28 Seed: 1690818863 1655193146 [ Run 28 of 100 GA/GALS ]
Beginning LAMARCKIAN GENETIC ALGORITHM (LGA), with a maximum of 2500000 energy evaluations.

Final-Value: -15.933


	FINAL GENETIC ALGORITHM DOCKED STATE
	_______________________________________________


Detailed state:  trans 27.745 -15.952 -1.690 quatxyzw -0.055697 -0.816080 -0.520943 -0.243988 center 0.578 -0.033 0.130 ntor 7 -114.6595 144.4695 -13.0812 -136.7521 109.1871 -180.0000 15.2195
State:	 27.745 -15.952  -1.690  -0.057 -0.842 -0.537 -151.756   -114.66  144.47  -13.08 -136.75  109.19 -180.00   15.22

DOCKED: MODEL       28
DOCKED: USER    Run = 28
DOCKED: USER    DPF = ligand_dock.biased.dpf
DOCKED: USER  
DOCKED: USER    Estimated Free Energy of Binding    =  -12.10 kcal/mol  [=(1)+(2)+(3)-(4)]
DOCKED: USER    Estimated Inhibition Constant, Ki   =    1.35 nM (nanomolar)  [Temperature = 298.15 K]
DOCKED: USER    
DOCKED: USER    (1) Final Intermolecular Energy     =  -14.19 kcal/mol
DOCKED: USER        vdW + Hbond + desolv Energy     =  -14.19 kcal/mol
DOCKED: USER        Electrostatic Energy            =   +0.00 kcal/mol
DOCKED: USER    (2) Final Total Internal Energy     =   -1.74 kcal/mol
DOCKED: USER    (3) Torsional Free Energy           =   +2.09 kcal/mol
DOCKED: USER    (4) Unbound System's Energy  [=(2)] =   -1.74 kcal/mol
DOCKED: USER    
DOCKED: USER    
DOCKED: USER    NEWDPF move ligand.pdbqt
DOCKED: USER    NEWDPF about 0.578000 -0.033000 0.130000
DOCKED: USER    NEWDPF tran0 27.745018 -15.951791 -1.689979
DOCKED: USER    NEWDPF quaternion0 -0.055697 -0.816080 -0.520943 -0.243988
DOCKED: USER    NEWDPF axisangle0 -0.057433 -0.841512 -0.537177 -151.755959
DOCKED: USER    NEWDPF quat0 -0.057433 -0.841512 -0.537177 -151.755959
DOCKED: USER    NEWDPF dihe0 -114.66 144.47 -13.08 -136.75 109.19 -180.00 15.22 
DOCKED: USER  keepresnum = 1 
DOCKED: USER  
DOCKED: REMARK  Name = 
DOCKED: REMARK  8 active torsions:
DOCKED: REMARK  status: ('A' for Active; 'I' for Inactive)
DOCKED: REMARK    1  A    between atoms: C_2  and  C_3
DOCKED: REMARK    2  A    between atoms: C_4  and  C_5
DOCKED: REMARK    3  A    between atoms: C_8  and  C_9
DOCKED: REMARK    4  A    between atoms: C_9  and  N_10
DOCKED: REMARK    5  A    between atoms: N_10  and  C_11
DOCKED: REMARK    6  A    between atoms: C_11  and  C_12
DOCKED: REMARK    7  A    between atoms: C_12  and  C_13
DOCKED: REMARK    8  A    between atoms: C_14  and  C_22
DOCKED: REMARK                            x       y       z     vdW  Elec       q    Type
DOCKED: REMARK                         _______ _______ _______ _____ _____    ______ ____
DOCKED: USER                              x       y       z     vdW  Elec       q    Type
DOCKED: USER                           _______ _______ _______ _____ _____    ______ ____
DOCKED: ROOT
DOCKED: ATOM      1  N   UNL     1      28.279 -15.507  -2.041 -0.20 -0.00    +0.000 N 
DOCKED: ATOM      2  H   UNL     1      27.841 -14.754  -1.511 +0.01 -0.00    +0.000 HD
DOCKED: ATOM      3  H   UNL     1      27.830 -15.635  -2.948 -0.00 -0.00    +0.000 HD
DOCKED: ENDROOT
DOCKED: BRANCH   1   4
DOCKED: ATOM      4  C   UNL     1      28.133 -16.760  -1.287 -0.36 -0.00    +0.000 C 
DOCKED: BRANCH   4   8
DOCKED: ATOM      5  C   UNL     1      23.939 -17.712  -0.831 -0.68 -0.00    +0.000 A 
DOCKED: ATOM      6  C   UNL     1      24.371 -16.850  -1.858 -0.48 -0.00    +0.000 A 
DOCKED: ATOM      7  C   UNL     1      25.726 -16.534  -1.997 -0.49 -0.00    +0.000 A 
DOCKED: ATOM      8  C   UNL     1      26.673 -17.069  -1.112 -0.46 -0.00    +0.000 A 
DOCKED: ATOM      9  C   UNL     1      26.252 -17.953  -0.108 -0.56 -0.00    +0.000 A 
DOCKED: ATOM     10  C   UNL     1      24.898 -18.271   0.030 -0.57 -0.00    +0.000 A 
DOCKED: BRANCH   5  12
DOCKED: ATOM     11  C   UNL     1      22.075 -19.359  -0.679 -0.77 -0.00    +0.000 C 
DOCKED: ATOM     12  C   UNL     1      22.516 -18.092  -0.650 -0.83 -0.00    +0.000 C 
DOCKED: BRANCH  11  14
DOCKED: ATOM     13  O   UNL     1      19.884 -19.650  -1.489 -2.23 -0.00    +0.000 OA
DOCKED: ATOM     14  C   UNL     1      20.656 -19.729  -0.497 -0.85 -0.00    +0.000 C 
DOCKED: ATOM     15  N   UNL     1      20.127 -20.145   0.769 -0.70 -0.00    +0.000 N 
DOCKED: ATOM     16  O   UNL     1      18.848 -20.576   0.860 -0.81 -0.00    +0.000 OA
DOCKED: ATOM     17  H   UNL     1      20.696 -20.118   1.572 -0.50 -0.00    +0.000 HD
DOCKED: ENDBRANCH  11  14
DOCKED: ENDBRANCH   5  12
DOCKED: ENDBRANCH   4   8
DOCKED: ENDBRANCH   1   4
DOCKED: BRANCH   1  18
DOCKED: ATOM     18  C   UNL     1      29.688 -15.160  -2.282 -0.11 -0.00    +0.000 C 
DOCKED: BRANCH  18  19
DOCKED: ATOM     19  C   UNL     1      30.159 -13.982  -1.414 -0.04 -0.00    +0.000 C 
DOCKED: BRANCH  19  20
DOCKED: ATOM     20  C   UNL     1      29.571 -14.080  -0.035 -0.09 -0.00    +0.000 A 
DOCKED: ATOM     21  C   UNL     1      29.982 -14.916   1.004 -0.09 -0.00    +0.000 A 
DOCKED: ATOM     22  N   UNL     1      29.174 -14.775   2.081 -0.00 -0.00    +0.000 N 
DOCKED: ATOM     23  C   UNL     1      28.242 -13.874   1.724 -0.22 -0.00    +0.000 A 
DOCKED: ATOM     24  C   UNL     1      28.447 -13.434   0.440 -0.13 -0.00    +0.000 A 
DOCKED: ATOM     25  C   UNL     1      27.592 -12.509  -0.163 -0.14 -0.00    +0.000 A 
DOCKED: ATOM     26  C   UNL     1      26.507 -12.028   0.592 -0.24 -0.00    +0.000 A 
DOCKED: ATOM     27  C   UNL     1      26.299 -12.478   1.914 -0.28 +0.00    +0.000 A 
DOCKED: ATOM     28  C   UNL     1      27.174 -13.415   2.494 -0.31 -0.00    +0.000 A 
DOCKED: ATOM     29  C   UNL     1      31.161 -15.837   0.970 -0.12 -0.00    +0.000 C 
DOCKED: ATOM     30  H   UNL     1      29.252 -15.237   2.947 -1.93 -0.00    +0.000 HD
DOCKED: ENDBRANCH  19  20
DOCKED: ENDBRANCH  18  19
DOCKED: ENDBRANCH   1  18
DOCKED: TORSDOF 7
DOCKED: TER
DOCKED: ENDMDL
________________________________________________________________________________


	BEGINNING GENETIC ALGORITHM DOCKING 29 of 100
Run: 29 Seed: 329604159 2015563363 [ Run 29 of 100 GA/GALS ]
Beginning LAMARCKIAN GENETIC ALGORITHM (LGA), with a maximum of 2500000 energy evaluations.

Final-Value: -14.867


	FINAL GENETIC ALGORITHM DOCKED STATE
	_______________________________________________


Detailed state:  trans 28.021 -15.315 -1.386 quatxyzw 0.436032 0.232449 0.476646 0.727085 center 0.578 -0.033 0.130 ntor 7 29.7412 11.7380 -0.3350 -59.1443 142.6729 -165.8748 92.5410
State:	 28.021 -15.315  -1.386   0.635  0.339  0.694 86.715     29.74   11.74   -0.33  -59.14  142.67 -165.87   92.54

DOCKED: MODEL       29
DOCKED: USER    Run = 29
DOCKED: USER    DPF = ligand_dock.biased.dpf
DOCKED: USER  
DOCKED: USER    Estimated Free Energy of Binding    =  -11.50 kcal/mol  [=(1)+(2)+(3)-(4)]
DOCKED: USER    Estimated Inhibition Constant, Ki   =    3.74 nM (nanomolar)  [Temperature = 298.15 K]
DOCKED: USER    
DOCKED: USER    (1) Final Intermolecular Energy     =  -13.58 kcal/mol
DOCKED: USER        vdW + Hbond + desolv Energy     =  -13.58 kcal/mol
DOCKED: USER        Electrostatic Energy            =   +0.00 kcal/mol
DOCKED: USER    (2) Final Total Internal Energy     =   -1.28 kcal/mol
DOCKED: USER    (3) Torsional Free Energy           =   +2.09 kcal/mol
DOCKED: USER    (4) Unbound System's Energy  [=(2)] =   -1.28 kcal/mol
DOCKED: USER    
DOCKED: USER    
DOCKED: USER    NEWDPF move ligand.pdbqt
DOCKED: USER    NEWDPF about 0.578000 -0.033000 0.130000
DOCKED: USER    NEWDPF tran0 28.020531 -15.314618 -1.385940
DOCKED: USER    NEWDPF quaternion0 0.436032 0.232449 0.476646 0.727085
DOCKED: USER    NEWDPF axisangle0 0.635108 0.338577 0.694264 86.714926
DOCKED: USER    NEWDPF quat0 0.635108 0.338577 0.694264 86.714926
DOCKED: USER    NEWDPF dihe0 29.74 11.74 -0.33 -59.14 142.67 -165.87 92.54 
DOCKED: USER  keepresnum = 1 
DOCKED: USER  
DOCKED: REMARK  Name = 
DOCKED: REMARK  8 active torsions:
DOCKED: REMARK  status: ('A' for Active; 'I' for Inactive)
DOCKED: REMARK    1  A    between atoms: C_2  and  C_3
DOCKED: REMARK    2  A    between atoms: C_4  and  C_5
DOCKED: REMARK    3  A    between atoms: C_8  and  C_9
DOCKED: REMARK    4  A    between atoms: C_9  and  N_10
DOCKED: REMARK    5  A    between atoms: N_10  and  C_11
DOCKED: REMARK    6  A    between atoms: C_11  and  C_12
DOCKED: REMARK    7  A    between atoms: C_12  and  C_13
DOCKED: REMARK    8  A    between atoms: C_14  and  C_22
DOCKED: REMARK                            x       y       z     vdW  Elec       q    Type
DOCKED: REMARK                         _______ _______ _______ _____ _____    ______ ____
DOCKED: USER                              x       y       z     vdW  Elec       q    Type
DOCKED: USER                           _______ _______ _______ _____ _____    ______ ____
DOCKED: ROOT
DOCKED: ATOM      1  N   UNL     1      27.826 -14.676  -1.786 -0.18 -0.00    +0.000 N 
DOCKED: ATOM      2  H   UNL     1      28.654 -14.279  -1.342 +0.01 -0.00    +0.000 HD
DOCKED: ATOM      3  H   UNL     1      26.993 -14.537  -1.213 +0.00 -0.00    +0.000 HD
DOCKED: ENDROOT
DOCKED: BRANCH   1   4
DOCKED: ATOM      4  C   UNL     1      28.025 -16.122  -1.946 -0.31 -0.00    +0.000 C 
DOCKED: BRANCH   4   8
DOCKED: ATOM      5  C   UNL     1      24.377 -18.249  -1.008 -0.68 -0.00    +0.000 A 
DOCKED: ATOM      6  C   UNL     1      24.382 -17.226  -1.977 -0.45 -0.00    +0.000 A 
DOCKED: ATOM      7  C   UNL     1      25.560 -16.532  -2.271 -0.50 -0.00    +0.000 A 
DOCKED: ATOM      8  C   UNL     1      26.752 -16.842  -1.600 -0.41 -0.00    +0.000 A 
DOCKED: ATOM      9  C   UNL     1      26.759 -17.881  -0.657 -0.49 -0.00    +0.000 A 
DOCKED: ATOM     10  C   UNL     1      25.582 -18.577  -0.365 -0.54 -0.00    +0.000 A 
DOCKED: BRANCH   5  12
DOCKED: ATOM     11  C   UNL     1      21.926 -18.691  -1.080 -0.82 -0.00    +0.000 C 
DOCKED: ATOM     12  C   UNL     1      23.159 -19.026  -0.670 -0.79 -0.00    +0.000 C 
DOCKED: BRANCH  11  14
DOCKED: ATOM     13  O   UNL     1      19.898 -19.735  -1.661 -2.34 -0.00    +0.000 OA
DOCKED: ATOM     14  C   UNL     1      20.717 -19.470  -0.741 -0.88 -0.00    +0.000 C 
DOCKED: ATOM     15  N   UNL     1      20.434 -19.907   0.594 -0.68 -0.00    +0.000 N 
DOCKED: ATOM     16  O   UNL     1      19.370 -20.708   0.835 -0.80 -0.00    +0.000 OA
DOCKED: ATOM     17  H   UNL     1      21.015 -19.623   1.336 -0.45 -0.00    +0.000 HD
DOCKED: ENDBRANCH  11  14
DOCKED: ENDBRANCH   5  12
DOCKED: ENDBRANCH   4   8
DOCKED: ENDBRANCH   1   4
DOCKED: BRANCH   1  18
DOCKED: ATOM     18  C   UNL     1      27.605 -13.996  -3.071 -0.22 -0.00    +0.000 C 
DOCKED: BRANCH  18  19
DOCKED: ATOM     19  C   UNL     1      28.908 -13.457  -3.682 -0.11 -0.00    +0.000 C 
DOCKED: BRANCH  19  20
DOCKED: ATOM     20  C   UNL     1      29.195 -14.141  -4.989 -0.17 -0.00    +0.000 A 
DOCKED: ATOM     21  C   UNL     1      28.788 -13.741  -6.262 -0.27 -0.00    +0.000 A 
DOCKED: ATOM     22  N   UNL     1      29.179 -14.642  -7.195 -0.33 -0.00    +0.000 N 
DOCKED: ATOM     23  C   UNL     1      29.809 -15.618  -6.519 -0.30 -0.00    +0.000 A 
DOCKED: ATOM     24  C   UNL     1      29.833 -15.352  -5.173 -0.21 -0.00    +0.000 A 
DOCKED: ATOM     25  C   UNL     1      30.416 -16.234  -4.262 -0.16 -0.00    +0.000 A 
DOCKED: ATOM     26  C   UNL     1      30.993 -17.414  -4.766 -0.19 -0.00    +0.000 A 
DOCKED: ATOM     27  C   UNL     1      30.972 -17.685  -6.151 -0.27 -0.00    +0.000 A 
DOCKED: ATOM     28  C   UNL     1      30.373 -16.780  -7.046 -0.27 -0.00    +0.000 A 
DOCKED: ATOM     29  C   UNL     1      28.039 -12.487  -6.587 -0.22 -0.00    +0.000 C 
DOCKED: ATOM     30  H   UNL     1      29.031 -14.592  -8.167 -0.56 -0.00    +0.000 HD
DOCKED: ENDBRANCH  19  20
DOCKED: ENDBRANCH  18  19
DOCKED: ENDBRANCH   1  18
DOCKED: TORSDOF 7
DOCKED: TER
DOCKED: ENDMDL
________________________________________________________________________________


	BEGINNING GENETIC ALGORITHM DOCKING 30 of 100
Run: 30 Seed: 540945522 1933649427 [ Run 30 of 100 GA/GALS ]
Beginning LAMARCKIAN GENETIC ALGORITHM (LGA), with a maximum of 2500000 energy evaluations.

Final-Value: -14.960


	FINAL GENETIC ALGORITHM DOCKED STATE
	_______________________________________________


Detailed state:  trans 28.896 -17.327 -1.827 quatxyzw -0.199193 0.978172 0.013964 0.057501 center 0.578 -0.033 0.130 ntor 7 172.9563 -179.0876 135.9302 -138.9245 49.0088 121.6296 -26.8862
State:	 28.896 -17.327  -1.827  -0.200  0.980  0.014 173.407    172.96 -179.09  135.93 -138.92   49.01  121.63  -26.89

DOCKED: MODEL       30
DOCKED: USER    Run = 30
DOCKED: USER    DPF = ligand_dock.biased.dpf
DOCKED: USER  
DOCKED: USER    Estimated Free Energy of Binding    =  -11.15 kcal/mol  [=(1)+(2)+(3)-(4)]
DOCKED: USER    Estimated Inhibition Constant, Ki   =    6.68 nM (nanomolar)  [Temperature = 298.15 K]
DOCKED: USER    
DOCKED: USER    (1) Final Intermolecular Energy     =  -13.24 kcal/mol
DOCKED: USER        vdW + Hbond + desolv Energy     =  -13.24 kcal/mol
DOCKED: USER        Electrostatic Energy            =   +0.00 kcal/mol
DOCKED: USER    (2) Final Total Internal Energy     =   -1.72 kcal/mol
DOCKED: USER    (3) Torsional Free Energy           =   +2.09 kcal/mol
DOCKED: USER    (4) Unbound System's Energy  [=(2)] =   -1.72 kcal/mol
DOCKED: USER    
DOCKED: USER    
DOCKED: USER    NEWDPF move ligand.pdbqt
DOCKED: USER    NEWDPF about 0.578000 -0.033000 0.130000
DOCKED: USER    NEWDPF tran0 28.895618 -17.326855 -1.826839
DOCKED: USER    NEWDPF quaternion0 -0.199193 0.978172 0.013964 0.057501
DOCKED: USER    NEWDPF axisangle0 -0.199523 0.979793 0.013987 173.407252
DOCKED: USER    NEWDPF quat0 -0.199523 0.979793 0.013987 173.407252
DOCKED: USER    NEWDPF dihe0 172.96 -179.09 135.93 -138.92 49.01 121.63 -26.89 
DOCKED: USER  keepresnum = 1 
DOCKED: USER  
DOCKED: REMARK  Name = 
DOCKED: REMARK  8 active torsions:
DOCKED: REMARK  status: ('A' for Active; 'I' for Inactive)
DOCKED: REMARK    1  A    between atoms: C_2  and  C_3
DOCKED: REMARK    2  A    between atoms: C_4  and  C_5
DOCKED: REMARK    3  A    between atoms: C_8  and  C_9
DOCKED: REMARK    4  A    between atoms: C_9  and  N_10
DOCKED: REMARK    5  A    between atoms: N_10  and  C_11
DOCKED: REMARK    6  A    between atoms: C_11  and  C_12
DOCKED: REMARK    7  A    between atoms: C_12  and  C_13
DOCKED: REMARK    8  A    between atoms: C_14  and  C_22
DOCKED: REMARK                            x       y       z     vdW  Elec       q    Type
DOCKED: REMARK                         _______ _______ _______ _____ _____    ______ ____
DOCKED: USER                              x       y       z     vdW  Elec       q    Type
DOCKED: USER                           _______ _______ _______ _____ _____    ______ ____
DOCKED: ROOT
DOCKED: ATOM      1  N   UNL     1      29.460 -16.963  -2.222 -0.23 -0.00    +0.000 N 
DOCKED: ATOM      2  H   UNL     1      28.684 -16.582  -2.763 -0.01 -0.00    +0.000 HD
DOCKED: ATOM      3  H   UNL     1      29.791 -17.844  -2.614 -0.02 -0.00    +0.000 HD
DOCKED: ENDROOT
DOCKED: BRANCH   1   4
DOCKED: ATOM      4  C   UNL     1      28.994 -17.229  -0.854 -0.28 -0.00    +0.000 C 
DOCKED: BRANCH   4   8
DOCKED: ATOM      5  C   UNL     1      24.676 -17.480  -0.883 -0.63 -0.00    +0.000 A 
DOCKED: ATOM      6  C   UNL     1      25.344 -16.530  -1.681 -0.53 -0.00    +0.000 A 
DOCKED: ATOM      7  C   UNL     1      26.740 -16.443  -1.661 -0.39 -0.00    +0.000 A 
DOCKED: ATOM      8  C   UNL     1      27.492 -17.298  -0.843 -0.40 -0.00    +0.000 A 
DOCKED: ATOM      9  C   UNL     1      26.833 -18.266  -0.072 -0.36 -0.00    +0.000 A 
DOCKED: ATOM     10  C   UNL     1      25.438 -18.355  -0.092 -0.55 -0.00    +0.000 A 
DOCKED: BRANCH   5  12
DOCKED: ATOM     11  C   UNL     1      22.562 -18.742  -0.496 -0.82 -0.00    +0.000 C 
DOCKED: ATOM     12  C   UNL     1      23.199 -17.624  -0.878 -0.77 -0.00    +0.000 C 
DOCKED: BRANCH  11  14
DOCKED: ATOM     13  O   UNL     1      20.405 -17.972  -1.037 -2.18 -0.00    +0.000 OA
DOCKED: ATOM     14  C   UNL     1      21.091 -18.878  -0.493 -0.84 -0.00    +0.000 C 
DOCKED: ATOM     15  N   UNL     1      20.423 -19.983   0.127 -0.72 -0.00    +0.000 N 
DOCKED: ATOM     16  O   UNL     1      19.082 -20.117   0.011 -1.12 -0.00    +0.000 OA
DOCKED: ATOM     17  H   UNL     1      20.942 -20.645   0.639 -0.49 -0.00    +0.000 HD
DOCKED: ENDBRANCH  11  14
DOCKED: ENDBRANCH   5  12
DOCKED: ENDBRANCH   4   8
DOCKED: ENDBRANCH   1   4
DOCKED: BRANCH   1  18
DOCKED: ATOM     18  C   UNL     1      30.577 -16.007  -2.256 -0.11 -0.00    +0.000 C 
DOCKED: BRANCH  18  19
DOCKED: ATOM     19  C   UNL     1      30.831 -15.451  -3.666 -0.09 -0.00    +0.000 C 
DOCKED: BRANCH  19  20
DOCKED: ATOM     20  C   UNL     1      29.530 -15.254  -4.393 -0.18 -0.00    +0.000 A 
DOCKED: ATOM     21  C   UNL     1      29.222 -15.637  -5.699 -0.32 -0.00    +0.000 A 
DOCKED: ATOM     22  N   UNL     1      27.974 -15.235  -6.035 -0.42 +0.00    +0.000 N 
DOCKED: ATOM     23  C   UNL     1      27.498 -14.582  -4.961 -0.37 -0.00    +0.000 A 
DOCKED: ATOM     24  C   UNL     1      28.419 -14.566  -3.944 -0.19 -0.00    +0.000 A 
DOCKED: ATOM     25  C   UNL     1      28.162 -13.925  -2.731 -0.13 -0.00    +0.000 A 
DOCKED: ATOM     26  C   UNL     1      26.914 -13.295  -2.572 -0.18 -0.00    +0.000 A 
DOCKED: ATOM     27  C   UNL     1      25.965 -13.315  -3.617 -0.27 -0.00    +0.000 A 
DOCKED: ATOM     28  C   UNL     1      26.255 -13.965  -4.832 -0.24 -0.00    +0.000 A 
DOCKED: ATOM     29  C   UNL     1      30.120 -16.404  -6.619 -0.33 -0.00    +0.000 C 
DOCKED: ATOM     30  H   UNL     1      27.511 -15.389  -6.890 -0.05 +0.00    +0.000 HD
DOCKED: ENDBRANCH  19  20
DOCKED: ENDBRANCH  18  19
DOCKED: ENDBRANCH   1  18
DOCKED: TORSDOF 7
DOCKED: TER
DOCKED: ENDMDL
________________________________________________________________________________


	BEGINNING GENETIC ALGORITHM DOCKING 31 of 100
Run: 31 Seed: 469538914 521106406 [ Run 31 of 100 GA/GALS ]
Beginning LAMARCKIAN GENETIC ALGORITHM (LGA), with a maximum of 2500000 energy evaluations.

Final-Value: -14.605


	FINAL GENETIC ALGORITHM DOCKED STATE
	_______________________________________________


Detailed state:  trans 28.690 -17.348 -1.578 quatxyzw 0.242937 0.694381 -0.482505 -0.475400 center 0.578 -0.033 0.130 ntor 7 -120.4503 163.6040 -11.0814 -62.8554 -74.0522 -98.4103 70.5561
State:	 28.690 -17.348  -1.578   0.276  0.789 -0.548 -123.229   -120.45  163.60  -11.08  -62.86  -74.05  -98.41   70.56

DOCKED: MODEL       31
DOCKED: USER    Run = 31
DOCKED: USER    DPF = ligand_dock.biased.dpf
DOCKED: USER  
DOCKED: USER    Estimated Free Energy of Binding    =  -11.04 kcal/mol  [=(1)+(2)+(3)-(4)]
DOCKED: USER    Estimated Inhibition Constant, Ki   =    8.02 nM (nanomolar)  [Temperature = 298.15 K]
DOCKED: USER    
DOCKED: USER    (1) Final Intermolecular Energy     =  -13.13 kcal/mol
DOCKED: USER        vdW + Hbond + desolv Energy     =  -13.13 kcal/mol
DOCKED: USER        Electrostatic Energy            =   +0.00 kcal/mol
DOCKED: USER    (2) Final Total Internal Energy     =   -1.47 kcal/mol
DOCKED: USER    (3) Torsional Free Energy           =   +2.09 kcal/mol
DOCKED: USER    (4) Unbound System's Energy  [=(2)] =   -1.47 kcal/mol
DOCKED: USER    
DOCKED: USER    
DOCKED: USER    NEWDPF move ligand.pdbqt
DOCKED: USER    NEWDPF about 0.578000 -0.033000 0.130000
DOCKED: USER    NEWDPF tran0 28.690493 -17.347947 -1.577510
DOCKED: USER    NEWDPF quaternion0 0.242937 0.694381 -0.482505 -0.475400
DOCKED: USER    NEWDPF axisangle0 0.276137 0.789276 -0.548445 -123.229199
DOCKED: USER    NEWDPF quat0 0.276137 0.789276 -0.548445 -123.229199
DOCKED: USER    NEWDPF dihe0 -120.45 163.60 -11.08 -62.86 -74.05 -98.41 70.56 
DOCKED: USER  keepresnum = 1 
DOCKED: USER  
DOCKED: REMARK  Name = 
DOCKED: REMARK  8 active torsions:
DOCKED: REMARK  status: ('A' for Active; 'I' for Inactive)
DOCKED: REMARK    1  A    between atoms: C_2  and  C_3
DOCKED: REMARK    2  A    between atoms: C_4  and  C_5
DOCKED: REMARK    3  A    between atoms: C_8  and  C_9
DOCKED: REMARK    4  A    between atoms: C_9  and  N_10
DOCKED: REMARK    5  A    between atoms: N_10  and  C_11
DOCKED: REMARK    6  A    between atoms: C_11  and  C_12
DOCKED: REMARK    7  A    between atoms: C_12  and  C_13
DOCKED: REMARK    8  A    between atoms: C_14  and  C_22
DOCKED: REMARK                            x       y       z     vdW  Elec       q    Type
DOCKED: REMARK                         _______ _______ _______ _____ _____    ______ ____
DOCKED: USER                              x       y       z     vdW  Elec       q    Type
DOCKED: USER                           _______ _______ _______ _____ _____    ______ ____
DOCKED: ROOT
DOCKED: ATOM      1  N   UNL     1      29.207 -17.518  -1.020 -0.29 -0.00    +0.000 N 
DOCKED: ATOM      2  H   UNL     1      29.758 -17.887  -1.796 -0.02 -0.00    +0.000 HD
DOCKED: ATOM      3  H   UNL     1      28.591 -18.230  -0.628 -0.38 -0.00    +0.000 HD
DOCKED: ENDROOT
DOCKED: BRANCH   1   4
DOCKED: ATOM      4  C   UNL     1      28.365 -16.423  -1.520 -0.32 -0.00    +0.000 C 
DOCKED: BRANCH   4   8
DOCKED: ATOM      5  C   UNL     1      24.208 -17.558  -1.156 -0.66 -0.00    +0.000 A 
DOCKED: ATOM      6  C   UNL     1      24.593 -16.516  -2.023 -0.40 -0.00    +0.000 A 
DOCKED: ATOM      7  C   UNL     1      25.937 -16.143  -2.130 -0.46 -0.00    +0.000 A 
DOCKED: ATOM      8  C   UNL     1      26.917 -16.799  -1.372 -0.41 -0.00    +0.000 A 
DOCKED: ATOM      9  C   UNL     1      26.543 -17.858  -0.533 -0.53 -0.00    +0.000 A 
DOCKED: ATOM     10  C   UNL     1      25.200 -18.233  -0.427 -0.63 -0.00    +0.000 A 
DOCKED: BRANCH   5  12
DOCKED: ATOM     11  C   UNL     1      22.434 -19.288  -0.893 -0.75 -0.00    +0.000 C 
DOCKED: ATOM     12  C   UNL     1      22.799 -18.003  -1.017 -0.79 -0.00    +0.000 C 
DOCKED: BRANCH  11  14
DOCKED: ATOM     13  O   UNL     1      20.299 -19.728  -1.780 -2.32 -0.00    +0.000 OA
DOCKED: ATOM     14  C   UNL     1      21.029 -19.724  -0.753 -0.77 -0.00    +0.000 C 
DOCKED: ATOM     15  N   UNL     1      20.466 -20.111   0.506 -0.68 -0.00    +0.000 N 
DOCKED: ATOM     16  O   UNL     1      19.207 -20.604   0.564 -0.89 -0.00    +0.000 OA
DOCKED: ATOM     17  H   UNL     1      20.998 -20.019   1.330 -0.53 -0.00    +0.000 HD
DOCKED: ENDBRANCH  11  14
DOCKED: ENDBRANCH   5  12
DOCKED: ENDBRANCH   4   8
DOCKED: ENDBRANCH   1   4
DOCKED: BRANCH   1  18
DOCKED: ATOM     18  C   UNL     1      30.123 -17.079   0.044 +0.03 -0.00    +0.000 C 
DOCKED: BRANCH  18  19
DOCKED: ATOM     19  C   UNL     1      30.444 -15.578  -0.039 -0.14 -0.00    +0.000 C 
DOCKED: BRANCH  19  20
DOCKED: ATOM     20  C   UNL     1      29.860 -14.853   1.141 -0.10 -0.00    +0.000 A 
DOCKED: ATOM     21  C   UNL     1      30.379 -14.782   2.434 -0.08 -0.00    +0.000 A 
DOCKED: ATOM     22  N   UNL     1      29.545 -14.093   3.248 -0.25 -0.00    +0.000 N 
DOCKED: ATOM     23  C   UNL     1      28.493 -13.748   2.486 -0.24 -0.00    +0.000 A 
DOCKED: ATOM     24  C   UNL     1      28.645 -14.198   1.199 -0.19 -0.00    +0.000 A 
DOCKED: ATOM     25  C   UNL     1      27.669 -13.980   0.225 -0.21 -0.00    +0.000 A 
DOCKED: ATOM     26  C   UNL     1      26.514 -13.269   0.600 -0.28 -0.00    +0.000 A 
DOCKED: ATOM     27  C   UNL     1      26.360 -12.802   1.923 -0.26 -0.00    +0.000 A 
DOCKED: ATOM     28  C   UNL     1      27.359 -13.042   2.886 -0.31 -0.00    +0.000 A 
DOCKED: ATOM     29  C   UNL     1      31.683 -15.361   2.885 -0.23 -0.00    +0.000 C 
DOCKED: ATOM     30  H   UNL     1      29.681 -13.889   4.202 -0.07 -0.00    +0.000 HD
DOCKED: ENDBRANCH  19  20
DOCKED: ENDBRANCH  18  19
DOCKED: ENDBRANCH   1  18
DOCKED: TORSDOF 7
DOCKED: TER
DOCKED: ENDMDL
________________________________________________________________________________


	BEGINNING GENETIC ALGORITHM DOCKING 32 of 100
Run: 32 Seed: 1051918303 1719523298 [ Run 32 of 100 GA/GALS ]
Beginning LAMARCKIAN GENETIC ALGORITHM (LGA), with a maximum of 2500000 energy evaluations.

Final-Value: -15.717


	FINAL GENETIC ALGORITHM DOCKED STATE
	_______________________________________________


Detailed state:  trans 28.694 -14.824 1.335 quatxyzw 0.169663 0.165687 -0.903064 -0.358102 center 0.578 -0.033 0.130 ntor 7 58.8306 -71.0787 -11.8024 123.9768 -148.4869 106.2958 9.5232
State:	 28.694 -14.824   1.335   0.182  0.177 -0.967 -138.033     58.83  -71.08  -11.80  123.98 -148.49  106.30    9.52

DOCKED: MODEL       32
DOCKED: USER    Run = 32
DOCKED: USER    DPF = ligand_dock.biased.dpf
DOCKED: USER  
DOCKED: USER    Estimated Free Energy of Binding    =  -12.42 kcal/mol  [=(1)+(2)+(3)-(4)]
DOCKED: USER    Estimated Inhibition Constant, Ki   =  789.33 pM (picomolar)  [Temperature = 298.15 K]
DOCKED: USER    
DOCKED: USER    (1) Final Intermolecular Energy     =  -14.51 kcal/mol
DOCKED: USER        vdW + Hbond + desolv Energy     =  -14.51 kcal/mol
DOCKED: USER        Electrostatic Energy            =   +0.00 kcal/mol
DOCKED: USER    (2) Final Total Internal Energy     =   -1.21 kcal/mol
DOCKED: USER    (3) Torsional Free Energy           =   +2.09 kcal/mol
DOCKED: USER    (4) Unbound System's Energy  [=(2)] =   -1.21 kcal/mol
DOCKED: USER    
DOCKED: USER    
DOCKED: USER    NEWDPF move ligand.pdbqt
DOCKED: USER    NEWDPF about 0.578000 -0.033000 0.130000
DOCKED: USER    NEWDPF tran0 28.693940 -14.824394 1.334792
DOCKED: USER    NEWDPF quaternion0 0.169663 0.165687 -0.903064 -0.358102
DOCKED: USER    NEWDPF axisangle0 0.181714 0.177455 -0.967207 -138.032615
DOCKED: USER    NEWDPF quat0 0.181714 0.177455 -0.967207 -138.032615
DOCKED: USER    NEWDPF dihe0 58.83 -71.08 -11.80 123.98 -148.49 106.30 9.52 
DOCKED: USER  keepresnum = 1 
DOCKED: USER  
DOCKED: REMARK  Name = 
DOCKED: REMARK  8 active torsions:
DOCKED: REMARK  status: ('A' for Active; 'I' for Inactive)
DOCKED: REMARK    1  A    between atoms: C_2  and  C_3
DOCKED: REMARK    2  A    between atoms: C_4  and  C_5
DOCKED: REMARK    3  A    between atoms: C_8  and  C_9
DOCKED: REMARK    4  A    between atoms: C_9  and  N_10
DOCKED: REMARK    5  A    between atoms: N_10  and  C_11
DOCKED: REMARK    6  A    between atoms: C_11  and  C_12
DOCKED: REMARK    7  A    between atoms: C_12  and  C_13
DOCKED: REMARK    8  A    between atoms: C_14  and  C_22
DOCKED: REMARK                            x       y       z     vdW  Elec       q    Type
DOCKED: REMARK                         _______ _______ _______ _____ _____    ______ ____
DOCKED: USER                              x       y       z     vdW  Elec       q    Type
DOCKED: USER                           _______ _______ _______ _____ _____    ______ ____
DOCKED: ROOT
DOCKED: ATOM      1  N   UNL     1      29.180 -14.615   1.906 -0.13 -0.00    +0.000 N 
DOCKED: ATOM      2  H   UNL     1      29.157 -15.607   2.141 -1.71 -0.00    +0.000 HD
DOCKED: ATOM      3  H   UNL     1      28.441 -14.100   2.384 -0.42 -0.00    +0.000 HD
DOCKED: ENDROOT
DOCKED: BRANCH   1   4
DOCKED: ATOM      4  C   UNL     1      28.965 -14.469   0.460 -0.18 -0.00    +0.000 C 
DOCKED: BRANCH   4   8
DOCKED: ATOM      5  C   UNL     1      25.304 -16.449  -0.718 -0.45 -0.00    +0.000 A 
DOCKED: ATOM      6  C   UNL     1      25.508 -15.085  -1.010 -0.25 -0.00    +0.000 A 
DOCKED: ATOM      7  C   UNL     1      26.687 -14.444  -0.618 -0.28 -0.00    +0.000 A 
DOCKED: ATOM      8  C   UNL     1      27.681 -15.150   0.075 -0.26 -0.00    +0.000 A 
DOCKED: ATOM      9  C   UNL     1      27.497 -16.515   0.339 -0.14 -0.00    +0.000 A 
DOCKED: ATOM     10  C   UNL     1      26.319 -17.157  -0.055 -0.41 -0.00    +0.000 A 
DOCKED: BRANCH   5  12
DOCKED: ATOM     11  C   UNL     1      23.008 -17.336  -0.332 -0.68 -0.00    +0.000 C 
DOCKED: ATOM     12  C   UNL     1      24.079 -17.180  -1.125 -0.71 -0.00    +0.000 C 
DOCKED: BRANCH  11  14
DOCKED: ATOM     13  O   UNL     1      20.766 -17.396  -1.045 -1.98 -0.00    +0.000 OA
DOCKED: ATOM     14  C   UNL     1      21.791 -18.065  -0.744 -0.81 -0.00    +0.000 C 
DOCKED: ATOM     15  N   UNL     1      21.729 -19.496  -0.785 -0.71 -0.00    +0.000 N 
DOCKED: ATOM     16  O   UNL     1      20.627 -20.114  -1.271 -1.85 -0.00    +0.000 OA
DOCKED: ATOM     17  H   UNL     1      22.490 -20.030  -0.460 -0.24 -0.00    +0.000 HD
DOCKED: ENDBRANCH  11  14
DOCKED: ENDBRANCH   5  12
DOCKED: ENDBRANCH   4   8
DOCKED: ENDBRANCH   1   4
DOCKED: BRANCH   1  18
DOCKED: ATOM     18  C   UNL     1      30.470 -14.056   2.339 -0.16 -0.00    +0.000 C 
DOCKED: BRANCH  18  19
DOCKED: ATOM     19  C   UNL     1      30.691 -14.193   3.853 -0.27 -0.00    +0.000 C 
DOCKED: BRANCH  19  20
DOCKED: ATOM     20  C   UNL     1      29.615 -13.464   4.607 -0.27 -0.00    +0.000 A 
DOCKED: ATOM     21  C   UNL     1      28.312 -13.897   4.855 -0.48 -0.00    +0.000 A 
DOCKED: ATOM     22  N   UNL     1      27.607 -12.945   5.510 -0.47 -0.00    +0.000 N 
DOCKED: ATOM     23  C   UNL     1      28.446 -11.906   5.659 -0.34 +0.00    +0.000 A 
DOCKED: ATOM     24  C   UNL     1      29.676 -12.182   5.116 -0.17 -0.00    +0.000 A 
DOCKED: ATOM     25  C   UNL     1      30.710 -11.245   5.129 -0.07 -0.00    +0.000 A 
DOCKED: ATOM     26  C   UNL     1      30.460  -9.997   5.729 -0.07 -0.00    +0.000 A 
DOCKED: ATOM     27  C   UNL     1      29.196  -9.715   6.292 -0.21 +0.00    +0.000 A 
DOCKED: ATOM     28  C   UNL     1      28.170 -10.678   6.259 -0.28 +0.00    +0.000 A 
DOCKED: ATOM     29  C   UNL     1      27.748 -15.231   4.477 -0.47 -0.00    +0.000 C 
DOCKED: ATOM     30  H   UNL     1      26.672 -13.002   5.814 -0.05 +0.00    +0.000 HD
DOCKED: ENDBRANCH  19  20
DOCKED: ENDBRANCH  18  19
DOCKED: ENDBRANCH   1  18
DOCKED: TORSDOF 7
DOCKED: TER
DOCKED: ENDMDL
________________________________________________________________________________


	BEGINNING GENETIC ALGORITHM DOCKING 33 of 100
Run: 33 Seed: 1653528172 351864495 [ Run 33 of 100 GA/GALS ]
Beginning LAMARCKIAN GENETIC ALGORITHM (LGA), with a maximum of 2500000 energy evaluations.

Final-Value: -15.563


	FINAL GENETIC ALGORITHM DOCKED STATE
	_______________________________________________


Detailed state:  trans 28.463 -16.038 0.083 quatxyzw -0.007160 0.358012 0.826063 0.435197 center 0.578 -0.033 0.130 ntor 7 85.6088 87.8180 179.5615 -163.0340 -17.0585 103.5816 35.9577
State:	 28.463 -16.038   0.083  -0.008  0.398  0.918 128.404     85.61   87.82  179.56 -163.03  -17.06  103.58   35.96

DOCKED: MODEL       33
DOCKED: USER    Run = 33
DOCKED: USER    DPF = ligand_dock.biased.dpf
DOCKED: USER  
DOCKED: USER    Estimated Free Energy of Binding    =  -12.03 kcal/mol  [=(1)+(2)+(3)-(4)]
DOCKED: USER    Estimated Inhibition Constant, Ki   =    1.51 nM (nanomolar)  [Temperature = 298.15 K]
DOCKED: USER    
DOCKED: USER    (1) Final Intermolecular Energy     =  -14.12 kcal/mol
DOCKED: USER        vdW + Hbond + desolv Energy     =  -14.12 kcal/mol
DOCKED: USER        Electrostatic Energy            =   +0.00 kcal/mol
DOCKED: USER    (2) Final Total Internal Energy     =   -1.44 kcal/mol
DOCKED: USER    (3) Torsional Free Energy           =   +2.09 kcal/mol
DOCKED: USER    (4) Unbound System's Energy  [=(2)] =   -1.44 kcal/mol
DOCKED: USER    
DOCKED: USER    
DOCKED: USER    NEWDPF move ligand.pdbqt
DOCKED: USER    NEWDPF about 0.578000 -0.033000 0.130000
DOCKED: USER    NEWDPF tran0 28.462800 -16.037647 0.082773
DOCKED: USER    NEWDPF quaternion0 -0.007160 0.358012 0.826063 0.435197
DOCKED: USER    NEWDPF axisangle0 -0.007953 0.397643 0.917506 128.404331
DOCKED: USER    NEWDPF quat0 -0.007953 0.397643 0.917506 128.404331
DOCKED: USER    NEWDPF dihe0 85.61 87.82 179.56 -163.03 -17.06 103.58 35.96 
DOCKED: USER  keepresnum = 1 
DOCKED: USER  
DOCKED: REMARK  Name = 
DOCKED: REMARK  8 active torsions:
DOCKED: REMARK  status: ('A' for Active; 'I' for Inactive)
DOCKED: REMARK    1  A    between atoms: C_2  and  C_3
DOCKED: REMARK    2  A    between atoms: C_4  and  C_5
DOCKED: REMARK    3  A    between atoms: C_8  and  C_9
DOCKED: REMARK    4  A    between atoms: C_9  and  N_10
DOCKED: REMARK    5  A    between atoms: N_10  and  C_11
DOCKED: REMARK    6  A    between atoms: C_11  and  C_12
DOCKED: REMARK    7  A    between atoms: C_12  and  C_13
DOCKED: REMARK    8  A    between atoms: C_14  and  C_22
DOCKED: REMARK                            x       y       z     vdW  Elec       q    Type
DOCKED: REMARK                         _______ _______ _______ _____ _____    ______ ____
DOCKED: USER                              x       y       z     vdW  Elec       q    Type
DOCKED: USER                           _______ _______ _______ _____ _____    ______ ____
DOCKED: ROOT
DOCKED: ATOM      1  N   UNL     1      28.860 -15.374   0.173 -0.20 -0.00    +0.000 N 
DOCKED: ATOM      2  H   UNL     1      28.791 -15.597   1.167 -0.88 -0.00    +0.000 HD
DOCKED: ATOM      3  H   UNL     1      28.064 -14.821  -0.142 -0.00 -0.00    +0.000 HD
DOCKED: ENDROOT
DOCKED: BRANCH   1   4
DOCKED: ATOM      4  C   UNL     1      28.866 -16.629  -0.591 -0.27 -0.00    +0.000 C 
DOCKED: BRANCH   4   8
DOCKED: ATOM      5  C   UNL     1      24.778 -17.971  -1.036 -0.65 -0.00    +0.000 A 
DOCKED: ATOM      6  C   UNL     1      25.643 -18.598  -0.116 -0.48 -0.00    +0.000 A 
DOCKED: ATOM      7  C   UNL     1      26.967 -18.170   0.018 -0.25 -0.00    +0.000 A 
DOCKED: ATOM      8  C   UNL     1      27.454 -17.113  -0.765 -0.41 -0.00    +0.000 A 
DOCKED: ATOM      9  C   UNL     1      26.588 -16.465  -1.659 -0.41 -0.00    +0.000 A 
DOCKED: ATOM     10  C   UNL     1      25.263 -16.891  -1.792 -0.55 -0.00    +0.000 A 
DOCKED: BRANCH   5  12
DOCKED: ATOM     11  C   UNL     1      22.432 -18.252  -0.246 -0.82 -0.00    +0.000 C 
DOCKED: ATOM     12  C   UNL     1      23.361 -18.376  -1.206 -0.79 -0.00    +0.000 C 
DOCKED: BRANCH  11  14
DOCKED: ATOM     13  O   UNL     1      20.258 -17.895  -1.075 -2.17 -0.00    +0.000 OA
DOCKED: ATOM     14  C   UNL     1      21.022 -18.656  -0.423 -0.76 -0.00    +0.000 C 
DOCKED: ATOM     15  N   UNL     1      20.492 -19.861   0.143 -0.73 -0.00    +0.000 N 
DOCKED: ATOM     16  O   UNL     1      19.223 -20.241  -0.137 -1.18 -0.00    +0.000 OA
DOCKED: ATOM     17  H   UNL     1      21.052 -20.414   0.735 -0.55 -0.00    +0.000 HD
DOCKED: ENDBRANCH  11  14
DOCKED: ENDBRANCH   5  12
DOCKED: ENDBRANCH   4   8
DOCKED: ENDBRANCH   1   4
DOCKED: BRANCH   1  18
DOCKED: ATOM     18  C   UNL     1      30.077 -14.578  -0.049 -0.11 -0.00    +0.000 C 
DOCKED: BRANCH  18  19
DOCKED: ATOM     19  C   UNL     1      30.038 -13.228   0.684 -0.07 -0.00    +0.000 C 
DOCKED: BRANCH  19  20
DOCKED: ATOM     20  C   UNL     1      28.911 -13.205   1.678 -0.14 -0.00    +0.000 A 
DOCKED: ATOM     21  C   UNL     1      27.596 -12.793   1.459 -0.22 -0.00    +0.000 A 
DOCKED: ATOM     22  N   UNL     1      26.879 -12.850   2.606 -0.34 -0.00    +0.000 N 
DOCKED: ATOM     23  C   UNL     1      27.735 -13.272   3.552 -0.36 -0.00    +0.000 A 
DOCKED: ATOM     24  C   UNL     1      28.983 -13.492   3.027 -0.22 -0.00    +0.000 A 
DOCKED: ATOM     25  C   UNL     1      30.049 -13.915   3.823 -0.25 -0.00    +0.000 A 
DOCKED: ATOM     26  C   UNL     1      29.806 -14.121   5.193 -0.31 -0.00    +0.000 A 
DOCKED: ATOM     27  C   UNL     1      28.520 -13.899   5.732 -0.35 -0.00    +0.000 A 
DOCKED: ATOM     28  C   UNL     1      27.465 -13.467   4.906 -0.43 -0.00    +0.000 A 
DOCKED: ATOM     29  C   UNL     1      27.023 -12.361   0.146 -0.23 -0.00    +0.000 C 
DOCKED: ATOM     30  H   UNL     1      25.927 -12.627   2.722 -0.01 +0.00    +0.000 HD
DOCKED: ENDBRANCH  19  20
DOCKED: ENDBRANCH  18  19
DOCKED: ENDBRANCH   1  18
DOCKED: TORSDOF 7
DOCKED: TER
DOCKED: ENDMDL
________________________________________________________________________________


	BEGINNING GENETIC ALGORITHM DOCKING 34 of 100
Run: 34 Seed: 880926058 1676439870 [ Run 34 of 100 GA/GALS ]
Beginning LAMARCKIAN GENETIC ALGORITHM (LGA), with a maximum of 2500000 energy evaluations.

Final-Value: -16.207


	FINAL GENETIC ALGORITHM DOCKED STATE
	_______________________________________________


Detailed state:  trans 28.643 -15.667 0.718 quatxyzw -0.004982 0.358995 0.836541 0.413881 center 0.578 -0.033 0.130 ntor 7 65.5870 -121.0113 160.4587 -150.7100 147.5003 88.7491 44.5051
State:	 28.643 -15.667   0.718  -0.005  0.394  0.919 131.102     65.59 -121.01  160.46 -150.71  147.50   88.75   44.51

DOCKED: MODEL       34
DOCKED: USER    Run = 34
DOCKED: USER    DPF = ligand_dock.biased.dpf
DOCKED: USER  
DOCKED: USER    Estimated Free Energy of Binding    =  -12.70 kcal/mol  [=(1)+(2)+(3)-(4)]
DOCKED: USER    Estimated Inhibition Constant, Ki   =  489.38 pM (picomolar)  [Temperature = 298.15 K]
DOCKED: USER    
DOCKED: USER    (1) Final Intermolecular Energy     =  -14.79 kcal/mol
DOCKED: USER        vdW + Hbond + desolv Energy     =  -14.79 kcal/mol
DOCKED: USER        Electrostatic Energy            =   +0.00 kcal/mol
DOCKED: USER    (2) Final Total Internal Energy     =   -1.42 kcal/mol
DOCKED: USER    (3) Torsional Free Energy           =   +2.09 kcal/mol
DOCKED: USER    (4) Unbound System's Energy  [=(2)] =   -1.42 kcal/mol
DOCKED: USER    
DOCKED: USER    
DOCKED: USER    NEWDPF move ligand.pdbqt
DOCKED: USER    NEWDPF about 0.578000 -0.033000 0.130000
DOCKED: USER    NEWDPF tran0 28.643196 -15.667060 0.717839
DOCKED: USER    NEWDPF quaternion0 -0.004982 0.358995 0.836541 0.413881
DOCKED: USER    NEWDPF axisangle0 -0.005473 0.394357 0.918941 131.102292
DOCKED: USER    NEWDPF quat0 -0.005473 0.394357 0.918941 131.102292
DOCKED: USER    NEWDPF dihe0 65.59 -121.01 160.46 -150.71 147.50 88.75 44.51 
DOCKED: USER  keepresnum = 1 
DOCKED: USER  
DOCKED: REMARK  Name = 
DOCKED: REMARK  8 active torsions:
DOCKED: REMARK  status: ('A' for Active; 'I' for Inactive)
DOCKED: REMARK    1  A    between atoms: C_2  and  C_3
DOCKED: REMARK    2  A    between atoms: C_4  and  C_5
DOCKED: REMARK    3  A    between atoms: C_8  and  C_9
DOCKED: REMARK    4  A    between atoms: C_9  and  N_10
DOCKED: REMARK    5  A    between atoms: N_10  and  C_11
DOCKED: REMARK    6  A    between atoms: C_11  and  C_12
DOCKED: REMARK    7  A    between atoms: C_12  and  C_13
DOCKED: REMARK    8  A    between atoms: C_14  and  C_22
DOCKED: REMARK                            x       y       z     vdW  Elec       q    Type
DOCKED: REMARK                         _______ _______ _______ _____ _____    ______ ____
DOCKED: USER                              x       y       z     vdW  Elec       q    Type
DOCKED: USER                           _______ _______ _______ _____ _____    ______ ____
DOCKED: ROOT
DOCKED: ATOM      1  N   UNL     1      29.070 -15.023   0.816 -0.17 -0.00    +0.000 N 
DOCKED: ATOM      2  H   UNL     1      28.977 -15.246   1.808 -1.49 -0.00    +0.000 HD
DOCKED: ATOM      3  H   UNL     1      28.303 -14.433   0.494 -0.03 -0.00    +0.000 HD
DOCKED: ENDROOT
DOCKED: BRANCH   1   4
DOCKED: ATOM      4  C   UNL     1      29.027 -16.274   0.047 -0.09 -0.00    +0.000 C 
DOCKED: BRANCH   4   8
DOCKED: ATOM      5  C   UNL     1      24.959 -17.194  -1.097 -0.60 -0.00    +0.000 A 
DOCKED: ATOM      6  C   UNL     1      25.567 -15.994  -1.516 -0.47 -0.00    +0.000 A 
DOCKED: ATOM      7  C   UNL     1      26.879 -15.693  -1.135 -0.34 -0.00    +0.000 A 
DOCKED: ATOM      8  C   UNL     1      27.604 -16.581  -0.328 -0.35 -0.00    +0.000 A 
DOCKED: ATOM      9  C   UNL     1      27.014 -17.791   0.065 -0.33 -0.00    +0.000 A 
DOCKED: ATOM     10  C   UNL     1      25.704 -18.094  -0.317 -0.61 -0.00    +0.000 A 
DOCKED: BRANCH   5  12
DOCKED: ATOM     11  C   UNL     1      22.728 -18.223  -0.678 -0.83 -0.00    +0.000 C 
DOCKED: ATOM     12  C   UNL     1      23.577 -17.569  -1.486 -0.65 -0.00    +0.000 C 
DOCKED: BRANCH  11  14
DOCKED: ATOM     13  O   UNL     1      20.405 -17.846  -0.706 -2.23 +0.00    +0.000 OA
DOCKED: ATOM     14  C   UNL     1      21.353 -18.592  -1.071 -0.79 -0.00    +0.000 C 
DOCKED: ATOM     15  N   UNL     1      21.060 -19.776  -1.823 -0.56 -0.00    +0.000 N 
DOCKED: ATOM     16  O   UNL     1      19.798 -20.014  -2.250 -2.03 -0.00    +0.000 OA
DOCKED: ATOM     17  H   UNL     1      21.779 -20.417  -2.029 -0.48 -0.00    +0.000 HD
DOCKED: ENDBRANCH  11  14
DOCKED: ENDBRANCH   5  12
DOCKED: ENDBRANCH   4   8
DOCKED: ENDBRANCH   1   4
DOCKED: BRANCH   1  18
DOCKED: ATOM     18  C   UNL     1      30.324 -14.283   0.612 -0.11 -0.00    +0.000 C 
DOCKED: BRANCH  18  19
DOCKED: ATOM     19  C   UNL     1      30.211 -12.809   1.031 -0.05 -0.00    +0.000 C 
DOCKED: BRANCH  19  20
DOCKED: ATOM     20  C   UNL     1      29.130 -12.639   2.061 -0.11 -0.00    +0.000 A 
DOCKED: ATOM     21  C   UNL     1      27.887 -12.028   1.892 -0.18 -0.00    +0.000 A 
DOCKED: ATOM     22  N   UNL     1      27.203 -12.003   3.059 -0.30 +0.00    +0.000 N 
DOCKED: ATOM     23  C   UNL     1      28.011 -12.571   3.970 -0.30 -0.00    +0.000 A 
DOCKED: ATOM     24  C   UNL     1      29.196 -12.965   3.402 -0.18 -0.00    +0.000 A 
DOCKED: ATOM     25  C   UNL     1      30.208 -13.563   4.155 -0.22 -0.00    +0.000 A 
DOCKED: ATOM     26  C   UNL     1      29.976 -13.761   5.528 -0.30 -0.00    +0.000 A 
DOCKED: ATOM     27  C   UNL     1      28.754 -13.360   6.112 -0.39 -0.00    +0.000 A 
DOCKED: ATOM     28  C   UNL     1      27.754 -12.755   5.328 -0.41 -0.00    +0.000 A 
DOCKED: ATOM     29  C   UNL     1      27.349 -11.484   0.606 -0.19 +0.00    +0.000 C 
DOCKED: ATOM     30  H   UNL     1      26.299 -11.641   3.210 -0.01 +0.00    +0.000 HD
DOCKED: ENDBRANCH  19  20
DOCKED: ENDBRANCH  18  19
DOCKED: ENDBRANCH   1  18
DOCKED: TORSDOF 7
DOCKED: TER
DOCKED: ENDMDL
________________________________________________________________________________


	BEGINNING GENETIC ALGORITHM DOCKING 35 of 100
Run: 35 Seed: 1721322032 1457959980 [ Run 35 of 100 GA/GALS ]
Beginning LAMARCKIAN GENETIC ALGORITHM (LGA), with a maximum of 2500000 energy evaluations.

Final-Value: -15.197


	FINAL GENETIC ALGORITHM DOCKED STATE
	_______________________________________________


Detailed state:  trans 28.982 -15.069 0.646 quatxyzw -0.129648 -0.057703 0.989847 0.008051 center 0.578 -0.033 0.130 ntor 7 65.4663 -77.6010 171.7578 139.2478 -166.2794 98.4837 -27.0208
State:	 28.982 -15.069   0.646  -0.130 -0.058  0.990 179.077     65.47  -77.60  171.76  139.25 -166.28   98.48  -27.02

DOCKED: MODEL       35
DOCKED: USER    Run = 35
DOCKED: USER    DPF = ligand_dock.biased.dpf
DOCKED: USER  
DOCKED: USER    Estimated Free Energy of Binding    =  -11.79 kcal/mol  [=(1)+(2)+(3)-(4)]
DOCKED: USER    Estimated Inhibition Constant, Ki   =    2.29 nM (nanomolar)  [Temperature = 298.15 K]
DOCKED: USER    
DOCKED: USER    (1) Final Intermolecular Energy     =  -13.88 kcal/mol
DOCKED: USER        vdW + Hbond + desolv Energy     =  -13.88 kcal/mol
DOCKED: USER        Electrostatic Energy            =   +0.00 kcal/mol
DOCKED: USER    (2) Final Total Internal Energy     =   -1.32 kcal/mol
DOCKED: USER    (3) Torsional Free Energy           =   +2.09 kcal/mol
DOCKED: USER    (4) Unbound System's Energy  [=(2)] =   -1.32 kcal/mol
DOCKED: USER    
DOCKED: USER    
DOCKED: USER    NEWDPF move ligand.pdbqt
DOCKED: USER    NEWDPF about 0.578000 -0.033000 0.130000
DOCKED: USER    NEWDPF tran0 28.981870 -15.068969 0.645589
DOCKED: USER    NEWDPF quaternion0 -0.129648 -0.057703 0.989847 0.008051
DOCKED: USER    NEWDPF axisangle0 -0.129652 -0.057705 0.989879 179.077460
DOCKED: USER    NEWDPF quat0 -0.129652 -0.057705 0.989879 179.077460
DOCKED: USER    NEWDPF dihe0 65.47 -77.60 171.76 139.25 -166.28 98.48 -27.02 
DOCKED: USER  keepresnum = 1 
DOCKED: USER  
DOCKED: REMARK  Name = 
DOCKED: REMARK  8 active torsions:
DOCKED: REMARK  status: ('A' for Active; 'I' for Inactive)
DOCKED: REMARK    1  A    between atoms: C_2  and  C_3
DOCKED: REMARK    2  A    between atoms: C_4  and  C_5
DOCKED: REMARK    3  A    between atoms: C_8  and  C_9
DOCKED: REMARK    4  A    between atoms: C_9  and  N_10
DOCKED: REMARK    5  A    between atoms: N_10  and  C_11
DOCKED: REMARK    6  A    between atoms: C_11  and  C_12
DOCKED: REMARK    7  A    between atoms: C_12  and  C_13
DOCKED: REMARK    8  A    between atoms: C_14  and  C_22
DOCKED: REMARK                            x       y       z     vdW  Elec       q    Type
DOCKED: REMARK                         _______ _______ _______ _____ _____    ______ ____
DOCKED: USER                              x       y       z     vdW  Elec       q    Type
DOCKED: USER                           _______ _______ _______ _____ _____    ______ ____
DOCKED: ROOT
DOCKED: ATOM      1  N   UNL     1      29.578 -15.202   1.129 -0.06 -0.00    +0.000 N 
DOCKED: ATOM      2  H   UNL     1      28.950 -15.896   1.535 -1.06 -0.00    +0.000 HD
DOCKED: ATOM      3  H   UNL     1      29.459 -14.290   1.570 -0.36 -0.00    +0.000 HD
DOCKED: ENDROOT
DOCKED: BRANCH   1   4
DOCKED: ATOM      4  C   UNL     1      29.258 -15.056  -0.297 -0.17 -0.00    +0.000 C 
DOCKED: BRANCH   4   8
DOCKED: ATOM      5  C   UNL     1      25.308 -16.611  -1.126 -0.53 -0.00    +0.000 A 
DOCKED: ATOM      6  C   UNL     1      25.543 -15.221  -1.109 -0.31 -0.00    +0.000 A 
DOCKED: ATOM      7  C   UNL     1      26.818 -14.720  -0.829 -0.28 -0.00    +0.000 A 
DOCKED: ATOM      8  C   UNL     1      27.880 -15.596  -0.558 -0.26 -0.00    +0.000 A 
DOCKED: ATOM      9  C   UNL     1      27.658 -16.979  -0.605 -0.37 -0.00    +0.000 A 
DOCKED: ATOM     10  C   UNL     1      26.384 -17.481  -0.887 -0.51 -0.00    +0.000 A 
DOCKED: BRANCH   5  12
DOCKED: ATOM     11  C   UNL     1      23.131 -17.647  -0.494 -0.77 -0.00    +0.000 C 
DOCKED: ATOM     12  C   UNL     1      23.978 -17.194  -1.432 -0.68 -0.00    +0.000 C 
DOCKED: BRANCH  11  14
DOCKED: ATOM     13  O   UNL     1      20.794 -17.485  -0.712 -2.08 +0.00    +0.000 OA
DOCKED: ATOM     14  C   UNL     1      21.809 -18.226  -0.806 -0.82 -0.00    +0.000 C 
DOCKED: ATOM     15  N   UNL     1      21.640 -19.598  -1.182 -0.64 -0.00    +0.000 N 
DOCKED: ATOM     16  O   UNL     1      20.423 -20.053  -1.561 -2.11 -0.00    +0.000 OA
DOCKED: ATOM     17  H   UNL     1      22.411 -20.210  -1.165 -0.22 -0.00    +0.000 HD
DOCKED: ENDBRANCH  11  14
DOCKED: ENDBRANCH   5  12
DOCKED: ENDBRANCH   4   8
DOCKED: ENDBRANCH   1   4
DOCKED: BRANCH   1  18
DOCKED: ATOM     18  C   UNL     1      30.967 -15.631   1.350 -0.05 -0.00    +0.000 C 
DOCKED: BRANCH  18  19
DOCKED: ATOM     19  C   UNL     1      31.367 -15.586   2.833 -0.19 -0.00    +0.000 C 
DOCKED: BRANCH  19  20
DOCKED: ATOM     20  C   UNL     1      30.902 -14.303   3.461 -0.21 -0.00    +0.000 A 
DOCKED: ATOM     21  C   UNL     1      31.648 -13.143   3.672 -0.10 -0.00    +0.000 A 
DOCKED: ATOM     22  N   UNL     1      30.913 -12.211   4.324 -0.09 -0.00    +0.000 N 
DOCKED: ATOM     23  C   UNL     1      29.716 -12.781   4.547 -0.19 -0.00    +0.000 A 
DOCKED: ATOM     24  C   UNL     1      29.673 -14.056   4.043 -0.30 -0.00    +0.000 A 
DOCKED: ATOM     25  C   UNL     1      28.539 -14.859   4.173 -0.42 -0.00    +0.000 A 
DOCKED: ATOM     26  C   UNL     1      27.423 -14.317   4.836 -0.46 -0.00    +0.000 A 
DOCKED: ATOM     27  C   UNL     1      27.465 -13.003   5.351 -0.29 +0.00    +0.000 A 
DOCKED: ATOM     28  C   UNL     1      28.625 -12.218   5.209 -0.30 -0.00    +0.000 A 
DOCKED: ATOM     29  C   UNL     1      33.061 -12.921   3.232 -0.06 -0.00    +0.000 C 
DOCKED: ATOM     30  H   UNL     1      31.197 -11.305   4.582 +0.00 -0.00    +0.000 HD
DOCKED: ENDBRANCH  19  20
DOCKED: ENDBRANCH  18  19
DOCKED: ENDBRANCH   1  18
DOCKED: TORSDOF 7
DOCKED: TER
DOCKED: ENDMDL
________________________________________________________________________________


	BEGINNING GENETIC ALGORITHM DOCKING 36 of 100
Run: 36 Seed: 136978157 2034795302 [ Run 36 of 100 GA/GALS ]
Beginning LAMARCKIAN GENETIC ALGORITHM (LGA), with a maximum of 2500000 energy evaluations.

Final-Value: -14.746


	FINAL GENETIC ALGORITHM DOCKED STATE
	_______________________________________________


Detailed state:  trans 28.818 -15.553 -1.139 quatxyzw 0.464001 -0.653701 -0.505023 0.319892 center 0.578 -0.033 0.130 ntor 7 -180.0000 6.1065 168.4291 30.4150 -52.0205 -163.0714 -76.2133
State:	 28.818 -15.553  -1.139   0.490 -0.690 -0.533 142.687   -180.00    6.11  168.43   30.42  -52.02 -163.07  -76.21

DOCKED: MODEL       36
DOCKED: USER    Run = 36
DOCKED: USER    DPF = ligand_dock.biased.dpf
DOCKED: USER  
DOCKED: USER    Estimated Free Energy of Binding    =  -11.48 kcal/mol  [=(1)+(2)+(3)-(4)]
DOCKED: USER    Estimated Inhibition Constant, Ki   =    3.85 nM (nanomolar)  [Temperature = 298.15 K]
DOCKED: USER    
DOCKED: USER    (1) Final Intermolecular Energy     =  -13.57 kcal/mol
DOCKED: USER        vdW + Hbond + desolv Energy     =  -13.57 kcal/mol
DOCKED: USER        Electrostatic Energy            =   +0.00 kcal/mol
DOCKED: USER    (2) Final Total Internal Energy     =   -1.18 kcal/mol
DOCKED: USER    (3) Torsional Free Energy           =   +2.09 kcal/mol
DOCKED: USER    (4) Unbound System's Energy  [=(2)] =   -1.18 kcal/mol
DOCKED: USER    
DOCKED: USER    
DOCKED: USER    NEWDPF move ligand.pdbqt
DOCKED: USER    NEWDPF about 0.578000 -0.033000 0.130000
DOCKED: USER    NEWDPF tran0 28.818487 -15.553166 -1.139437
DOCKED: USER    NEWDPF quaternion0 0.464001 -0.653701 -0.505023 0.319892
DOCKED: USER    NEWDPF axisangle0 0.489734 -0.689955 -0.533031 142.687256
DOCKED: USER    NEWDPF quat0 0.489734 -0.689955 -0.533031 142.687256
DOCKED: USER    NEWDPF dihe0 -180.00 6.11 168.43 30.42 -52.02 -163.07 -76.21 
DOCKED: USER  keepresnum = 1 
DOCKED: USER  
DOCKED: REMARK  Name = 
DOCKED: REMARK  8 active torsions:
DOCKED: REMARK  status: ('A' for Active; 'I' for Inactive)
DOCKED: REMARK    1  A    between atoms: C_2  and  C_3
DOCKED: REMARK    2  A    between atoms: C_4  and  C_5
DOCKED: REMARK    3  A    between atoms: C_8  and  C_9
DOCKED: REMARK    4  A    between atoms: C_9  and  N_10
DOCKED: REMARK    5  A    between atoms: N_10  and  C_11
DOCKED: REMARK    6  A    between atoms: C_11  and  C_12
DOCKED: REMARK    7  A    between atoms: C_12  and  C_13
DOCKED: REMARK    8  A    between atoms: C_14  and  C_22
DOCKED: REMARK                            x       y       z     vdW  Elec       q    Type
DOCKED: REMARK                         _______ _______ _______ _____ _____    ______ ____
DOCKED: USER                              x       y       z     vdW  Elec       q    Type
DOCKED: USER                           _______ _______ _______ _____ _____    ______ ____
DOCKED: ROOT
DOCKED: ATOM      1  N   UNL     1      28.968 -15.036  -0.577 -0.15 -0.00    +0.000 N 
DOCKED: ATOM      2  H   UNL     1      28.172 -14.537  -0.975 +0.00 -0.00    +0.000 HD
DOCKED: ATOM      3  H   UNL     1      29.842 -14.761  -1.024 +0.00 -0.00    +0.000 HD
DOCKED: ENDROOT
DOCKED: BRANCH   1   4
DOCKED: ATOM      4  C   UNL     1      28.783 -16.475  -0.803 -0.28 -0.00    +0.000 C 
DOCKED: BRANCH   4   8
DOCKED: ATOM      5  C   UNL     1      24.546 -17.348  -0.788 -0.62 -0.00    +0.000 A 
DOCKED: ATOM      6  C   UNL     1      25.460 -18.217  -0.158 -0.61 -0.00    +0.000 A 
DOCKED: ATOM      7  C   UNL     1      26.830 -17.939  -0.174 -0.45 -0.00    +0.000 A 
DOCKED: ATOM      8  C   UNL     1      27.313 -16.793  -0.821 -0.40 -0.00    +0.000 A 
DOCKED: ATOM      9  C   UNL     1      26.405 -15.909  -1.422 -0.39 -0.00    +0.000 A 
DOCKED: ATOM     10  C   UNL     1      25.035 -16.185  -1.404 -0.47 -0.00    +0.000 A 
DOCKED: BRANCH   5  12
DOCKED: ATOM     11  C   UNL     1      22.523 -18.773  -0.495 -0.82 -0.00    +0.000 C 
DOCKED: ATOM     12  C   UNL     1      23.082 -17.588  -0.786 -0.77 -0.00    +0.000 C 
DOCKED: BRANCH  11  14
DOCKED: ATOM     13  O   UNL     1      20.325 -18.167  -1.077 -2.12 -0.00    +0.000 OA
DOCKED: ATOM     14  C   UNL     1      21.064 -19.005  -0.495 -0.87 -0.00    +0.000 C 
DOCKED: ATOM     15  N   UNL     1      20.465 -20.127   0.164 -0.71 -0.00    +0.000 N 
DOCKED: ATOM     16  O   UNL     1      19.136 -20.353   0.046 -1.10 -0.00    +0.000 OA
DOCKED: ATOM     17  H   UNL     1      21.022 -20.734   0.704 -0.56 -0.00    +0.000 HD
DOCKED: ENDBRANCH  11  14
DOCKED: ENDBRANCH   5  12
DOCKED: ENDBRANCH   4   8
DOCKED: ENDBRANCH   1   4
DOCKED: BRANCH   1  18
DOCKED: ATOM     18  C   UNL     1      29.069 -14.702   0.852 -0.18 -0.00    +0.000 C 
DOCKED: BRANCH  18  19
DOCKED: ATOM     19  C   UNL     1      27.702 -14.396   1.482 -0.29 -0.00    +0.000 C 
DOCKED: BRANCH  19  20
DOCKED: ATOM     20  C   UNL     1      27.863 -13.486   2.667 -0.29 -0.00    +0.000 A 
DOCKED: ATOM     21  C   UNL     1      27.854 -13.841   4.016 -0.46 -0.00    +0.000 A 
DOCKED: ATOM     22  N   UNL     1      27.962 -12.743   4.801 -0.40 -0.00    +0.000 N 
DOCKED: ATOM     23  C   UNL     1      28.017 -11.696   3.961 -0.27 +0.00    +0.000 A 
DOCKED: ATOM     24  C   UNL     1      27.953 -12.107   2.653 -0.21 -0.00    +0.000 A 
DOCKED: ATOM     25  C   UNL     1      27.969 -11.197   1.596 -0.14 +0.00    +0.000 A 
DOCKED: ATOM     26  C   UNL     1      28.064  -9.828   1.908 -0.13 +0.00    +0.000 A 
DOCKED: ATOM     27  C   UNL     1      28.135  -9.405   3.253 -0.10 +0.00    +0.000 A 
DOCKED: ATOM     28  C   UNL     1      28.110 -10.347   4.300 -0.25 +0.00    +0.000 A 
DOCKED: ATOM     29  C   UNL     1      27.759 -15.235   4.552 -0.50 -0.00    +0.000 C 
DOCKED: ATOM     30  H   UNL     1      27.993 -12.718   5.785 -0.03 -0.00    +0.000 HD
DOCKED: ENDBRANCH  19  20
DOCKED: ENDBRANCH  18  19
DOCKED: ENDBRANCH   1  18
DOCKED: TORSDOF 7
DOCKED: TER
DOCKED: ENDMDL
________________________________________________________________________________


	BEGINNING GENETIC ALGORITHM DOCKING 37 of 100
Run: 37 Seed: 336366449 343346262 [ Run 37 of 100 GA/GALS ]
Beginning LAMARCKIAN GENETIC ALGORITHM (LGA), with a maximum of 2500000 energy evaluations.

Final-Value: -14.880


	FINAL GENETIC ALGORITHM DOCKED STATE
	_______________________________________________


Detailed state:  trans 29.489 -16.657 -2.178 quatxyzw -0.314083 0.948249 -0.013464 0.044661 center 0.578 -0.033 0.130 ntor 7 124.3404 -8.0873 -180.0000 -141.3525 -140.6921 139.3439 -34.7028
State:	 29.489 -16.657  -2.178  -0.314  0.949 -0.013 174.881    124.34   -8.09 -180.00 -141.35 -140.69  139.34  -34.70

DOCKED: MODEL       37
DOCKED: USER    Run = 37
DOCKED: USER    DPF = ligand_dock.biased.dpf
DOCKED: USER  
DOCKED: USER    Estimated Free Energy of Binding    =  -10.89 kcal/mol  [=(1)+(2)+(3)-(4)]
DOCKED: USER    Estimated Inhibition Constant, Ki   =   10.40 nM (nanomolar)  [Temperature = 298.15 K]
DOCKED: USER    
DOCKED: USER    (1) Final Intermolecular Energy     =  -12.98 kcal/mol
DOCKED: USER        vdW + Hbond + desolv Energy     =  -12.98 kcal/mol
DOCKED: USER        Electrostatic Energy            =   +0.00 kcal/mol
DOCKED: USER    (2) Final Total Internal Energy     =   -1.90 kcal/mol
DOCKED: USER    (3) Torsional Free Energy           =   +2.09 kcal/mol
DOCKED: USER    (4) Unbound System's Energy  [=(2)] =   -1.90 kcal/mol
DOCKED: USER    
DOCKED: USER    
DOCKED: USER    NEWDPF move ligand.pdbqt
DOCKED: USER    NEWDPF about 0.578000 -0.033000 0.130000
DOCKED: USER    NEWDPF tran0 29.489123 -16.657047 -2.178366
DOCKED: USER    NEWDPF quaternion0 -0.314083 0.948249 -0.013464 0.044661
DOCKED: USER    NEWDPF axisangle0 -0.314397 0.949196 -0.013477 174.880553
DOCKED: USER    NEWDPF quat0 -0.314397 0.949196 -0.013477 174.880553
DOCKED: USER    NEWDPF dihe0 124.34 -8.09 -180.00 -141.35 -140.69 139.34 -34.70 
DOCKED: USER  keepresnum = 1 
DOCKED: USER  
DOCKED: REMARK  Name = 
DOCKED: REMARK  8 active torsions:
DOCKED: REMARK  status: ('A' for Active; 'I' for Inactive)
DOCKED: REMARK    1  A    between atoms: C_2  and  C_3
DOCKED: REMARK    2  A    between atoms: C_4  and  C_5
DOCKED: REMARK    3  A    between atoms: C_8  and  C_9
DOCKED: REMARK    4  A    between atoms: C_9  and  N_10
DOCKED: REMARK    5  A    between atoms: N_10  and  C_11
DOCKED: REMARK    6  A    between atoms: C_11  and  C_12
DOCKED: REMARK    7  A    between atoms: C_12  and  C_13
DOCKED: REMARK    8  A    between atoms: C_14  and  C_22
DOCKED: REMARK                            x       y       z     vdW  Elec       q    Type
DOCKED: REMARK                         _______ _______ _______ _____ _____    ______ ____
DOCKED: USER                              x       y       z     vdW  Elec       q    Type
DOCKED: USER                           _______ _______ _______ _____ _____    ______ ____
DOCKED: ROOT
DOCKED: ATOM      1  N   UNL     1      29.966 -16.181  -2.569 -0.14 -0.00    +0.000 N 
DOCKED: ATOM      2  H   UNL     1      29.144 -16.012  -3.149 -0.00 -0.00    +0.000 HD
DOCKED: ATOM      3  H   UNL     1      30.512 -16.969  -2.917 -0.00 -0.00    +0.000 HD
DOCKED: ENDROOT
DOCKED: BRANCH   1   4
DOCKED: ATOM      4  C   UNL     1      29.522 -16.509  -1.208 -0.23 -0.00    +0.000 C 
DOCKED: BRANCH   4   8
DOCKED: ATOM      5  C   UNL     1      25.246 -17.155  -1.145 -0.58 -0.00    +0.000 A 
DOCKED: ATOM      6  C   UNL     1      26.119 -18.071  -0.525 -0.56 -0.00    +0.000 A 
DOCKED: ATOM      7  C   UNL     1      27.502 -17.867  -0.556 -0.30 -0.00    +0.000 A 
DOCKED: ATOM      8  C   UNL     1      28.038 -16.748  -1.210 -0.33 -0.00    +0.000 A 
DOCKED: ATOM      9  C   UNL     1      27.172 -15.817  -1.801 -0.31 -0.00    +0.000 A 
DOCKED: ATOM     10  C   UNL     1      25.789 -16.020  -1.768 -0.47 -0.00    +0.000 A 
DOCKED: BRANCH   5  12
DOCKED: ATOM     11  C   UNL     1      23.154 -18.508  -1.103 -0.81 -0.00    +0.000 C 
DOCKED: ATOM     12  C   UNL     1      23.771 -17.317  -1.128 -0.72 -0.00    +0.000 C 
DOCKED: BRANCH  11  14
DOCKED: ATOM     13  O   UNL     1      21.008 -17.857  -0.391 -1.97 +0.00    +0.000 OA
DOCKED: ATOM     14  C   UNL     1      21.685 -18.662  -1.085 -0.81 -0.00    +0.000 C 
DOCKED: ATOM     15  N   UNL     1      21.013 -19.705  -1.801 -0.68 -0.00    +0.000 N 
DOCKED: ATOM     16  O   UNL     1      19.660 -19.740  -1.839 -2.23 -0.00    +0.000 OA
DOCKED: ATOM     17  H   UNL     1      21.536 -20.397  -2.266 -0.54 -0.00    +0.000 HD
DOCKED: ENDBRANCH  11  14
DOCKED: ENDBRANCH   5  12
DOCKED: ENDBRANCH   4   8
DOCKED: ENDBRANCH   1   4
DOCKED: BRANCH   1  18
DOCKED: ATOM     18  C   UNL     1      30.825 -14.988  -2.606 -0.05 -0.00    +0.000 C 
DOCKED: BRANCH  18  19
DOCKED: ATOM     19  C   UNL     1      30.657 -14.183  -3.903 -0.06 -0.00    +0.000 C 
DOCKED: BRANCH  19  20
DOCKED: ATOM     20  C   UNL     1      29.234 -14.251  -4.381 -0.13 -0.00    +0.000 A 
DOCKED: ATOM     21  C   UNL     1      28.670 -15.201  -5.232 -0.32 -0.00    +0.000 A 
DOCKED: ATOM     22  N   UNL     1      27.375 -14.903  -5.493 -0.45 -0.00    +0.000 N 
DOCKED: ATOM     23  C   UNL     1      27.122 -13.760  -4.832 -0.31 -0.00    +0.000 A 
DOCKED: ATOM     24  C   UNL     1      28.232 -13.328  -4.149 -0.14 -0.00    +0.000 A 
DOCKED: ATOM     25  C   UNL     1      28.221 -12.148  -3.405 -0.09 -0.00    +0.000 A 
DOCKED: ATOM     26  C   UNL     1      27.026 -11.407  -3.365 -0.13 -0.00    +0.000 A 
DOCKED: ATOM     27  C   UNL     1      25.883 -11.854  -4.064 -0.17 -0.00    +0.000 A 
DOCKED: ATOM     28  C   UNL     1      25.925 -13.045  -4.812 -0.11 -0.00    +0.000 A 
DOCKED: ATOM     29  C   UNL     1      29.368 -16.405  -5.782 -0.28 -0.00    +0.000 C 
DOCKED: ATOM     30  H   UNL     1      26.749 -15.417  -6.052 -0.07 +0.00    +0.000 HD
DOCKED: ENDBRANCH  19  20
DOCKED: ENDBRANCH  18  19
DOCKED: ENDBRANCH   1  18
DOCKED: TORSDOF 7
DOCKED: TER
DOCKED: ENDMDL
________________________________________________________________________________


	BEGINNING GENETIC ALGORITHM DOCKING 38 of 100
Run: 38 Seed: 1793157795 1885561395 [ Run 38 of 100 GA/GALS ]
Beginning LAMARCKIAN GENETIC ALGORITHM (LGA), with a maximum of 2500000 energy evaluations.

Final-Value: -14.583


	FINAL GENETIC ALGORITHM DOCKED STATE
	_______________________________________________


Detailed state:  trans 28.629 -16.955 -2.243 quatxyzw -0.267182 -0.902212 0.319064 0.113246 center 0.578 -0.033 0.130 ntor 7 180.0000 153.7839 14.6427 143.9183 -7.5890 179.5625 43.7406
State:	 28.629 -16.955  -2.243  -0.269 -0.908  0.321 166.995    180.00  153.78   14.64  143.92   -7.59  179.56   43.74

DOCKED: MODEL       38
DOCKED: USER    Run = 38
DOCKED: USER    DPF = ligand_dock.biased.dpf
DOCKED: USER  
DOCKED: USER    Estimated Free Energy of Binding    =  -11.21 kcal/mol  [=(1)+(2)+(3)-(4)]
DOCKED: USER    Estimated Inhibition Constant, Ki   =    6.08 nM (nanomolar)  [Temperature = 298.15 K]
DOCKED: USER    
DOCKED: USER    (1) Final Intermolecular Energy     =  -13.30 kcal/mol
DOCKED: USER        vdW + Hbond + desolv Energy     =  -13.30 kcal/mol
DOCKED: USER        Electrostatic Energy            =   +0.00 kcal/mol
DOCKED: USER    (2) Final Total Internal Energy     =   -1.29 kcal/mol
DOCKED: USER    (3) Torsional Free Energy           =   +2.09 kcal/mol
DOCKED: USER    (4) Unbound System's Energy  [=(2)] =   -1.29 kcal/mol
DOCKED: USER    
DOCKED: USER    
DOCKED: USER    NEWDPF move ligand.pdbqt
DOCKED: USER    NEWDPF about 0.578000 -0.033000 0.130000
DOCKED: USER    NEWDPF tran0 28.628615 -16.955050 -2.242604
DOCKED: USER    NEWDPF quaternion0 -0.267182 -0.902212 0.319064 0.113246
DOCKED: USER    NEWDPF axisangle0 -0.268912 -0.908054 0.321130 166.995042
DOCKED: USER    NEWDPF quat0 -0.268912 -0.908054 0.321130 166.995042
DOCKED: USER    NEWDPF dihe0 180.00 153.78 14.64 143.92 -7.59 179.56 43.74 
DOCKED: USER  keepresnum = 1 
DOCKED: USER  
DOCKED: REMARK  Name = 
DOCKED: REMARK  8 active torsions:
DOCKED: REMARK  status: ('A' for Active; 'I' for Inactive)
DOCKED: REMARK    1  A    between atoms: C_2  and  C_3
DOCKED: REMARK    2  A    between atoms: C_4  and  C_5
DOCKED: REMARK    3  A    between atoms: C_8  and  C_9
DOCKED: REMARK    4  A    between atoms: C_9  and  N_10
DOCKED: REMARK    5  A    between atoms: N_10  and  C_11
DOCKED: REMARK    6  A    between atoms: C_11  and  C_12
DOCKED: REMARK    7  A    between atoms: C_12  and  C_13
DOCKED: REMARK    8  A    between atoms: C_14  and  C_22
DOCKED: REMARK                            x       y       z     vdW  Elec       q    Type
DOCKED: REMARK                         _______ _______ _______ _____ _____    ______ ____
DOCKED: USER                              x       y       z     vdW  Elec       q    Type
DOCKED: USER                           _______ _______ _______ _____ _____    ______ ____
DOCKED: ROOT
DOCKED: ATOM      1  N   UNL     1      29.275 -17.387  -2.282 -0.20 -0.00    +0.000 N 
DOCKED: ATOM      2  H   UNL     1      29.225 -17.174  -3.278 -0.02 -0.00    +0.000 HD
DOCKED: ATOM      3  H   UNL     1      28.755 -18.235  -2.055 +0.05 -0.00    +0.000 HD
DOCKED: ENDROOT
DOCKED: BRANCH   1   4
DOCKED: ATOM      4  C   UNL     1      28.671 -16.277  -1.533 -0.28 -0.00    +0.000 C 
DOCKED: BRANCH   4   8
DOCKED: ATOM      5  C   UNL     1      24.445 -17.078  -1.084 -0.61 -0.00    +0.000 A 
DOCKED: ATOM      6  C   UNL     1      24.914 -16.274  -2.142 -0.47 -0.00    +0.000 A 
DOCKED: ATOM      7  C   UNL     1      26.280 -16.007  -2.279 -0.42 -0.00    +0.000 A 
DOCKED: ATOM      8  C   UNL     1      27.200 -16.533  -1.360 -0.37 -0.00    +0.000 A 
DOCKED: ATOM      9  C   UNL     1      26.741 -17.359  -0.324 -0.49 -0.00    +0.000 A 
DOCKED: ATOM     10  C   UNL     1      25.376 -17.628  -0.189 -0.52 -0.00    +0.000 A 
DOCKED: BRANCH   5  12
DOCKED: ATOM     11  C   UNL     1      22.548 -18.649  -0.702 -0.84 -0.00    +0.000 C 
DOCKED: ATOM     12  C   UNL     1      23.009 -17.404  -0.903 -0.72 -0.00    +0.000 C 
DOCKED: BRANCH  11  14
DOCKED: ATOM     13  O   UNL     1      20.264 -18.105  -0.867 -2.16 -0.00    +0.000 OA
DOCKED: ATOM     14  C   UNL     1      21.117 -18.966  -0.521 -0.87 -0.00    +0.000 C 
DOCKED: ATOM     15  N   UNL     1      20.671 -20.200   0.056 -0.68 -0.00    +0.000 N 
DOCKED: ATOM     16  O   UNL     1      19.349 -20.488   0.101 -1.09 -0.00    +0.000 OA
DOCKED: ATOM     17  H   UNL     1      21.327 -20.838   0.418 -0.59 -0.00    +0.000 HD
DOCKED: ENDBRANCH  11  14
DOCKED: ENDBRANCH   5  12
DOCKED: ENDBRANCH   4   8
DOCKED: ENDBRANCH   1   4
DOCKED: BRANCH   1  18
DOCKED: ATOM     18  C   UNL     1      30.682 -17.611  -1.915 -0.19 -0.00    +0.000 C 
DOCKED: BRANCH  18  19
DOCKED: ATOM     19  C   UNL     1      31.655 -17.155  -3.013 -0.10 -0.00    +0.000 C 
DOCKED: BRANCH  19  20
DOCKED: ATOM     20  C   UNL     1      31.122 -17.522  -4.369 -0.17 -0.00    +0.000 A 
DOCKED: ATOM     21  C   UNL     1      30.554 -16.670  -5.316 -0.23 -0.00    +0.000 A 
DOCKED: ATOM     22  N   UNL     1      30.129 -17.368  -6.395 -0.35 -0.00    +0.000 N 
DOCKED: ATOM     23  C   UNL     1      30.402 -18.656  -6.129 -0.35 -0.00    +0.000 A 
DOCKED: ATOM     24  C   UNL     1      31.001 -18.791  -4.902 -0.24 -0.00    +0.000 A 
DOCKED: ATOM     25  C   UNL     1      31.360 -20.041  -4.395 -0.19 -0.00    +0.000 A 
DOCKED: ATOM     26  C   UNL     1      31.097 -21.173  -5.187 -0.28 -0.00    +0.000 A 
DOCKED: ATOM     27  C   UNL     1      30.485 -21.033  -6.452 -0.33 -0.00    +0.000 A 
DOCKED: ATOM     28  C   UNL     1      30.128 -19.760  -6.936 -0.38 -0.00    +0.000 A 
DOCKED: ATOM     29  C   UNL     1      30.435 -15.183  -5.194 -0.17 -0.00    +0.000 C 
DOCKED: ATOM     30  H   UNL     1      29.705 -17.006  -7.207 -0.04 -0.00    +0.000 HD
DOCKED: ENDBRANCH  19  20
DOCKED: ENDBRANCH  18  19
DOCKED: ENDBRANCH   1  18
DOCKED: TORSDOF 7
DOCKED: TER
DOCKED: ENDMDL
________________________________________________________________________________


	BEGINNING GENETIC ALGORITHM DOCKING 39 of 100
Run: 39 Seed: 2002162051 563831138 [ Run 39 of 100 GA/GALS ]
Beginning LAMARCKIAN GENETIC ALGORITHM (LGA), with a maximum of 2500000 energy evaluations.

Final-Value: -15.416


	FINAL GENETIC ALGORITHM DOCKED STATE
	_______________________________________________


Detailed state:  trans 28.082 -16.759 -0.619 quatxyzw -0.021625 0.802828 -0.545055 -0.240655 center 0.578 -0.033 0.130 ntor 7 105.0427 -14.1977 -175.1888 165.9483 -66.4503 -144.1225 15.3817
State:	 28.082 -16.759  -0.619  -0.022  0.827 -0.562 -152.150    105.04  -14.20 -175.19  165.95  -66.45 -144.12   15.38

DOCKED: MODEL       39
DOCKED: USER    Run = 39
DOCKED: USER    DPF = ligand_dock.biased.dpf
DOCKED: USER  
DOCKED: USER    Estimated Free Energy of Binding    =  -11.66 kcal/mol  [=(1)+(2)+(3)-(4)]
DOCKED: USER    Estimated Inhibition Constant, Ki   =    2.83 nM (nanomolar)  [Temperature = 298.15 K]
DOCKED: USER    
DOCKED: USER    (1) Final Intermolecular Energy     =  -13.75 kcal/mol
DOCKED: USER        vdW + Hbond + desolv Energy     =  -13.75 kcal/mol
DOCKED: USER        Electrostatic Energy            =   +0.00 kcal/mol
DOCKED: USER    (2) Final Total Internal Energy     =   -1.67 kcal/mol
DOCKED: USER    (3) Torsional Free Energy           =   +2.09 kcal/mol
DOCKED: USER    (4) Unbound System's Energy  [=(2)] =   -1.67 kcal/mol
DOCKED: USER    
DOCKED: USER    
DOCKED: USER    NEWDPF move ligand.pdbqt
DOCKED: USER    NEWDPF about 0.578000 -0.033000 0.130000
DOCKED: USER    NEWDPF tran0 28.082053 -16.758572 -0.619230
DOCKED: USER    NEWDPF quaternion0 -0.021625 0.802828 -0.545055 -0.240655
DOCKED: USER    NEWDPF axisangle0 -0.022280 0.827137 -0.561558 -152.149549
DOCKED: USER    NEWDPF quat0 -0.022280 0.827137 -0.561558 -152.149549
DOCKED: USER    NEWDPF dihe0 105.04 -14.20 -175.19 165.95 -66.45 -144.12 15.38 
DOCKED: USER  keepresnum = 1 
DOCKED: USER  
DOCKED: REMARK  Name = 
DOCKED: REMARK  8 active torsions:
DOCKED: REMARK  status: ('A' for Active; 'I' for Inactive)
DOCKED: REMARK    1  A    between atoms: C_2  and  C_3
DOCKED: REMARK    2  A    between atoms: C_4  and  C_5
DOCKED: REMARK    3  A    between atoms: C_8  and  C_9
DOCKED: REMARK    4  A    between atoms: C_9  and  N_10
DOCKED: REMARK    5  A    between atoms: N_10  and  C_11
DOCKED: REMARK    6  A    between atoms: C_11  and  C_12
DOCKED: REMARK    7  A    between atoms: C_12  and  C_13
DOCKED: REMARK    8  A    between atoms: C_14  and  C_22
DOCKED: REMARK                            x       y       z     vdW  Elec       q    Type
DOCKED: REMARK                         _______ _______ _______ _____ _____    ______ ____
DOCKED: USER                              x       y       z     vdW  Elec       q    Type
DOCKED: USER                           _______ _______ _______ _____ _____    ______ ____
DOCKED: ROOT
DOCKED: ATOM      1  N   UNL     1      28.856 -16.795  -0.545 -0.27 -0.00    +0.000 N 
DOCKED: ATOM      2  H   UNL     1      28.814 -17.236  -1.464 -0.02 -0.00    +0.000 HD
DOCKED: ATOM      3  H   UNL     1      28.780 -17.483   0.204 -0.52 -0.00    +0.000 HD
DOCKED: ENDROOT
DOCKED: BRANCH   1   4
DOCKED: ATOM      4  C   UNL     1      27.726 -15.866  -0.417 -0.33 -0.00    +0.000 C 
DOCKED: BRANCH   4   8
DOCKED: ATOM      5  C   UNL     1      24.034 -18.083  -0.819 -0.70 -0.00    +0.000 A 
DOCKED: ATOM      6  C   UNL     1      24.088 -16.715  -1.151 -0.52 -0.00    +0.000 A 
DOCKED: ATOM      7  C   UNL     1      25.280 -15.997  -1.009 -0.43 -0.00    +0.000 A 
DOCKED: ATOM      8  C   UNL     1      26.436 -16.630  -0.530 -0.44 -0.00    +0.000 A 
DOCKED: ATOM      9  C   UNL     1      26.395 -17.999  -0.229 -0.55 -0.00    +0.000 A 
DOCKED: ATOM     10  C   UNL     1      25.205 -18.718  -0.372 -0.39 -0.00    +0.000 A 
DOCKED: BRANCH   5  12
DOCKED: ATOM     11  C   UNL     1      21.568 -18.427  -0.711 -0.85 -0.00    +0.000 C 
DOCKED: ATOM     12  C   UNL     1      22.800 -18.894  -0.965 -0.82 -0.00    +0.000 C 
DOCKED: BRANCH  11  14
DOCKED: ATOM     13  O   UNL     1      20.091 -19.740  -1.988 -2.36 -0.00    +0.000 OA
DOCKED: ATOM     14  C   UNL     1      20.344 -19.239  -0.860 -0.89 -0.00    +0.000 C 
DOCKED: ATOM     15  N   UNL     1      19.426 -19.451   0.220 -0.74 -0.00    +0.000 N 
DOCKED: ATOM     16  O   UNL     1      18.376 -20.290   0.063 -0.93 -0.00    +0.000 OA
DOCKED: ATOM     17  H   UNL     1      19.561 -18.986   1.078 -0.27 -0.00    +0.000 HD
DOCKED: ENDBRANCH  11  14
DOCKED: ENDBRANCH   5  12
DOCKED: ENDBRANCH   4   8
DOCKED: ENDBRANCH   1   4
DOCKED: BRANCH   1  18
DOCKED: ATOM     18  C   UNL     1      30.155 -16.118  -0.405 -0.17 -0.00    +0.000 C 
DOCKED: BRANCH  18  19
DOCKED: ATOM     19  C   UNL     1      30.487 -15.227  -1.611 -0.07 -0.00    +0.000 C 
DOCKED: BRANCH  19  20
DOCKED: ATOM     20  C   UNL     1      29.641 -15.610  -2.793 -0.14 -0.00    +0.000 A 
DOCKED: ATOM     21  C   UNL     1      29.890 -16.621  -3.721 -0.20 -0.00    +0.000 A 
DOCKED: ATOM     22  N   UNL     1      28.941 -16.630  -4.686 -0.23 -0.00    +0.000 N 
DOCKED: ATOM     23  C   UNL     1      28.108 -15.618  -4.390 -0.31 -0.00    +0.000 A 
DOCKED: ATOM     24  C   UNL     1      28.505 -14.969  -3.248 -0.18 -0.00    +0.000 A 
DOCKED: ATOM     25  C   UNL     1      27.807 -13.868  -2.750 -0.16 -0.00    +0.000 A 
DOCKED: ATOM     26  C   UNL     1      26.667 -13.439  -3.453 -0.27 -0.00    +0.000 A 
DOCKED: ATOM     27  C   UNL     1      26.256 -14.110  -4.625 -0.35 -0.00    +0.000 A 
DOCKED: ATOM     28  C   UNL     1      26.982 -15.215  -5.107 -0.44 -0.00    +0.000 A 
DOCKED: ATOM     29  C   UNL     1      31.029 -17.591  -3.672 -0.18 -0.00    +0.000 C 
DOCKED: ATOM     30  H   UNL     1      28.876 -17.249  -5.449 -0.04 -0.00    +0.000 HD
DOCKED: ENDBRANCH  19  20
DOCKED: ENDBRANCH  18  19
DOCKED: ENDBRANCH   1  18
DOCKED: TORSDOF 7
DOCKED: TER
DOCKED: ENDMDL
________________________________________________________________________________


	BEGINNING GENETIC ALGORITHM DOCKING 40 of 100
Run: 40 Seed: 158768460 1501506121 [ Run 40 of 100 GA/GALS ]
Beginning LAMARCKIAN GENETIC ALGORITHM (LGA), with a maximum of 2500000 energy evaluations.

Final-Value: -15.719


	FINAL GENETIC ALGORITHM DOCKED STATE
	_______________________________________________


Detailed state:  trans 29.387 -16.428 0.057 quatxyzw 0.052561 0.178300 -0.935917 -0.299175 center 0.578 -0.033 0.130 ntor 7 136.8521 -179.6492 -173.1810 166.9956 -166.8779 41.7424 24.2636
State:	 29.387 -16.428   0.057   0.055  0.187 -0.981 -145.184    136.85 -179.65 -173.18  167.00 -166.88   41.74   24.26

DOCKED: MODEL       40
DOCKED: USER    Run = 40
DOCKED: USER    DPF = ligand_dock.biased.dpf
DOCKED: USER  
DOCKED: USER    Estimated Free Energy of Binding    =  -11.97 kcal/mol  [=(1)+(2)+(3)-(4)]
DOCKED: USER    Estimated Inhibition Constant, Ki   =    1.67 nM (nanomolar)  [Temperature = 298.15 K]
DOCKED: USER    
DOCKED: USER    (1) Final Intermolecular Energy     =  -14.06 kcal/mol
DOCKED: USER        vdW + Hbond + desolv Energy     =  -14.06 kcal/mol
DOCKED: USER        Electrostatic Energy            =   +0.00 kcal/mol
DOCKED: USER    (2) Final Total Internal Energy     =   -1.66 kcal/mol
DOCKED: USER    (3) Torsional Free Energy           =   +2.09 kcal/mol
DOCKED: USER    (4) Unbound System's Energy  [=(2)] =   -1.66 kcal/mol
DOCKED: USER    
DOCKED: USER    
DOCKED: USER    NEWDPF move ligand.pdbqt
DOCKED: USER    NEWDPF about 0.578000 -0.033000 0.130000
DOCKED: USER    NEWDPF tran0 29.386688 -16.428304 0.057486
DOCKED: USER    NEWDPF quaternion0 0.052561 0.178300 -0.935917 -0.299175
DOCKED: USER    NEWDPF axisangle0 0.055084 0.186859 -0.980841 -145.183911
DOCKED: USER    NEWDPF quat0 0.055084 0.186859 -0.980841 -145.183911
DOCKED: USER    NEWDPF dihe0 136.85 -179.65 -173.18 167.00 -166.88 41.74 24.26 
DOCKED: USER  keepresnum = 1 
DOCKED: USER  
DOCKED: REMARK  Name = 
DOCKED: REMARK  8 active torsions:
DOCKED: REMARK  status: ('A' for Active; 'I' for Inactive)
DOCKED: REMARK    1  A    between atoms: C_2  and  C_3
DOCKED: REMARK    2  A    between atoms: C_4  and  C_5
DOCKED: REMARK    3  A    between atoms: C_8  and  C_9
DOCKED: REMARK    4  A    between atoms: C_9  and  N_10
DOCKED: REMARK    5  A    between atoms: N_10  and  C_11
DOCKED: REMARK    6  A    between atoms: C_11  and  C_12
DOCKED: REMARK    7  A    between atoms: C_12  and  C_13
DOCKED: REMARK    8  A    between atoms: C_14  and  C_22
DOCKED: REMARK                            x       y       z     vdW  Elec       q    Type
DOCKED: REMARK                         _______ _______ _______ _____ _____    ______ ____
DOCKED: USER                              x       y       z     vdW  Elec       q    Type
DOCKED: USER                           _______ _______ _______ _____ _____    ______ ____
DOCKED: ROOT
DOCKED: ATOM      1  N   UNL     1      30.016 -16.242   0.476 -0.01 -0.00    +0.000 N 
DOCKED: ATOM      2  H   UNL     1      29.973 -17.217   0.772 -0.45 -0.00    +0.000 HD
DOCKED: ATOM      3  H   UNL     1      29.464 -15.642   1.089 -0.78 -0.00    +0.000 HD
DOCKED: ENDROOT
DOCKED: BRANCH   1   4
DOCKED: ATOM      4  C   UNL     1      29.457 -16.135  -0.878 -0.21 -0.00    +0.000 C 
DOCKED: BRANCH   4   8
DOCKED: ATOM      5  C   UNL     1      25.185 -16.807  -0.804 -0.52 -0.00    +0.000 A 
DOCKED: ATOM      6  C   UNL     1      25.703 -15.508  -0.980 -0.37 -0.00    +0.000 A 
DOCKED: ATOM      7  C   UNL     1      27.085 -15.292  -0.992 -0.29 -0.00    +0.000 A 
DOCKED: ATOM      8  C   UNL     1      27.972 -16.365  -0.824 -0.31 -0.00    +0.000 A 
DOCKED: ATOM      9  C   UNL     1      27.461 -17.663  -0.681 -0.39 -0.00    +0.000 A 
DOCKED: ATOM     10  C   UNL     1      26.080 -17.880  -0.671 -0.56 -0.00    +0.000 A 
DOCKED: BRANCH   5  12
DOCKED: ATOM     11  C   UNL     1      23.207 -18.298  -1.074 -0.81 -0.00    +0.000 C 
DOCKED: ATOM     12  C   UNL     1      23.729 -17.093  -0.799 -0.69 -0.00    +0.000 C 
DOCKED: BRANCH  11  14
DOCKED: ATOM     13  O   UNL     1      21.014 -17.865  -0.337 -1.94 +0.00    +0.000 OA
DOCKED: ATOM     14  C   UNL     1      21.756 -18.576  -1.066 -0.80 -0.00    +0.000 C 
DOCKED: ATOM     15  N   UNL     1      21.173 -19.638  -1.832 -0.59 -0.00    +0.000 N 
DOCKED: ATOM     16  O   UNL     1      19.828 -19.784  -1.875 -2.29 -0.00    +0.000 OA
DOCKED: ATOM     17  H   UNL     1      21.752 -20.260  -2.328 -0.58 -0.00    +0.000 HD
DOCKED: ENDBRANCH  11  14
DOCKED: ENDBRANCH   5  12
DOCKED: ENDBRANCH   4   8
DOCKED: ENDBRANCH   1   4
DOCKED: BRANCH   1  18
DOCKED: ATOM     18  C   UNL     1      31.413 -15.787   0.542 -0.12 -0.00    +0.000 C 
DOCKED: BRANCH  18  19
DOCKED: ATOM     19  C   UNL     1      31.583 -14.532   1.411 -0.09 -0.00    +0.000 C 
DOCKED: BRANCH  19  20
DOCKED: ATOM     20  C   UNL     1      30.256 -13.857   1.621 -0.10 -0.00    +0.000 A 
DOCKED: ATOM     21  C   UNL     1      29.608 -12.976   0.756 -0.06 -0.00    +0.000 A 
DOCKED: ATOM     22  N   UNL     1      28.460 -12.519   1.309 -0.12 -0.00    +0.000 N 
DOCKED: ATOM     23  C   UNL     1      28.389 -13.085   2.526 -0.21 -0.00    +0.000 A 
DOCKED: ATOM     24  C   UNL     1      29.468 -13.901   2.755 -0.19 -0.00    +0.000 A 
DOCKED: ATOM     25  C   UNL     1      29.629 -14.584   3.961 -0.30 -0.00    +0.000 A 
DOCKED: ATOM     26  C   UNL     1      28.638 -14.419   4.947 -0.46 -0.00    +0.000 A 
DOCKED: ATOM     27  C   UNL     1      27.526 -13.583   4.710 -0.46 -0.00    +0.000 A 
DOCKED: ATOM     28  C   UNL     1      27.394 -12.902   3.485 -0.32 -0.00    +0.000 A 
DOCKED: ATOM     29  C   UNL     1      30.080 -12.586  -0.610 -0.02 -0.00    +0.000 C 
DOCKED: ATOM     30  H   UNL     1      27.812 -11.898   0.904 +0.00 -0.00    +0.000 HD
DOCKED: ENDBRANCH  19  20
DOCKED: ENDBRANCH  18  19
DOCKED: ENDBRANCH   1  18
DOCKED: TORSDOF 7
DOCKED: TER
DOCKED: ENDMDL
________________________________________________________________________________


	BEGINNING GENETIC ALGORITHM DOCKING 41 of 100
Run: 41 Seed: 2079344387 19784386 [ Run 41 of 100 GA/GALS ]
Beginning LAMARCKIAN GENETIC ALGORITHM (LGA), with a maximum of 2500000 energy evaluations.

Final-Value: -15.223


	FINAL GENETIC ALGORITHM DOCKED STATE
	_______________________________________________


Detailed state:  trans 28.039 -14.990 -1.299 quatxyzw 0.650334 0.313917 0.351941 0.595533 center 0.578 -0.033 0.130 ntor 7 -4.1573 64.3582 52.2303 -52.1894 88.0543 148.7559 118.5666
State:	 28.039 -14.990  -1.299   0.810  0.391  0.438 106.899     -4.16   64.36   52.23  -52.19   88.05  148.76  118.57

DOCKED: MODEL       41
DOCKED: USER    Run = 41
DOCKED: USER    DPF = ligand_dock.biased.dpf
DOCKED: USER  
DOCKED: USER    Estimated Free Energy of Binding    =  -12.19 kcal/mol  [=(1)+(2)+(3)-(4)]
DOCKED: USER    Estimated Inhibition Constant, Ki   =    1.16 nM (nanomolar)  [Temperature = 298.15 K]
DOCKED: USER    
DOCKED: USER    (1) Final Intermolecular Energy     =  -14.28 kcal/mol
DOCKED: USER        vdW + Hbond + desolv Energy     =  -14.28 kcal/mol
DOCKED: USER        Electrostatic Energy            =   +0.00 kcal/mol
DOCKED: USER    (2) Final Total Internal Energy     =   -0.94 kcal/mol
DOCKED: USER    (3) Torsional Free Energy           =   +2.09 kcal/mol
DOCKED: USER    (4) Unbound System's Energy  [=(2)] =   -0.94 kcal/mol
DOCKED: USER    
DOCKED: USER    
DOCKED: USER    NEWDPF move ligand.pdbqt
DOCKED: USER    NEWDPF about 0.578000 -0.033000 0.130000
DOCKED: USER    NEWDPF tran0 28.038904 -14.989550 -1.298504
DOCKED: USER    NEWDPF quaternion0 0.650334 0.313917 0.351941 0.595533
DOCKED: USER    NEWDPF axisangle0 0.809547 0.390769 0.438102 106.898782
DOCKED: USER    NEWDPF quat0 0.809547 0.390769 0.438102 106.898782
DOCKED: USER    NEWDPF dihe0 -4.16 64.36 52.23 -52.19 88.05 148.76 118.57 
DOCKED: USER  keepresnum = 1 
DOCKED: USER  
DOCKED: REMARK  Name = 
DOCKED: REMARK  8 active torsions:
DOCKED: REMARK  status: ('A' for Active; 'I' for Inactive)
DOCKED: REMARK    1  A    between atoms: C_2  and  C_3
DOCKED: REMARK    2  A    between atoms: C_4  and  C_5
DOCKED: REMARK    3  A    between atoms: C_8  and  C_9
DOCKED: REMARK    4  A    between atoms: C_9  and  N_10
DOCKED: REMARK    5  A    between atoms: N_10  and  C_11
DOCKED: REMARK    6  A    between atoms: C_11  and  C_12
DOCKED: REMARK    7  A    between atoms: C_12  and  C_13
DOCKED: REMARK    8  A    between atoms: C_14  and  C_22
DOCKED: REMARK                            x       y       z     vdW  Elec       q    Type
DOCKED: REMARK                         _______ _______ _______ _____ _____    ______ ____
DOCKED: USER                              x       y       z     vdW  Elec       q    Type
DOCKED: USER                           _______ _______ _______ _____ _____    ______ ____
DOCKED: ROOT
DOCKED: ATOM      1  N   UNL     1      27.757 -14.665  -1.948 -0.18 -0.00    +0.000 N 
DOCKED: ATOM      2  H   UNL     1      28.606 -14.101  -1.903 +0.01 -0.00    +0.000 HD
DOCKED: ATOM      3  H   UNL     1      26.993 -14.230  -1.432 +0.00 -0.00    +0.000 HD
DOCKED: ENDROOT
DOCKED: BRANCH   1   4
DOCKED: ATOM      4  C   UNL     1      28.027 -15.971  -1.332 -0.31 -0.00    +0.000 C 
DOCKED: BRANCH   4   8
DOCKED: ATOM      5  C   UNL     1      24.285 -18.000  -0.567 -0.68 -0.00    +0.000 A 
DOCKED: ATOM      6  C   UNL     1      24.299 -16.722  -1.162 -0.54 -0.00    +0.000 A 
DOCKED: ATOM      7  C   UNL     1      25.510 -16.063  -1.398 -0.48 -0.00    +0.000 A 
DOCKED: ATOM      8  C   UNL     1      26.726 -16.665  -1.041 -0.43 -0.00    +0.000 A 
DOCKED: ATOM      9  C   UNL     1      26.718 -17.949  -0.478 -0.50 -0.00    +0.000 A 
DOCKED: ATOM     10  C   UNL     1      25.508 -18.609  -0.244 -0.51 -0.00    +0.000 A 
DOCKED: BRANCH   5  12
DOCKED: ATOM     11  C   UNL     1      22.004 -18.800  -1.173 -0.77 -0.00    +0.000 C 
DOCKED: ATOM     12  C   UNL     1      23.029 -18.748  -0.309 -0.78 -0.00    +0.000 C 
DOCKED: BRANCH  11  14
DOCKED: ATOM     13  O   UNL     1      19.959 -19.736  -1.867 -2.39 -0.00    +0.000 OA
DOCKED: ATOM     14  C   UNL     1      20.758 -19.548  -0.910 -0.85 -0.00    +0.000 C 
DOCKED: ATOM     15  N   UNL     1      20.416 -20.038   0.392 -0.70 -0.00    +0.000 N 
DOCKED: ATOM     16  O   UNL     1      19.316 -20.809   0.560 -0.89 -0.00    +0.000 OA
DOCKED: ATOM     17  H   UNL     1      20.983 -19.814   1.165 -0.48 -0.00    +0.000 HD
DOCKED: ENDBRANCH  11  14
DOCKED: ENDBRANCH   5  12
DOCKED: ENDBRANCH   4   8
DOCKED: ENDBRANCH   1   4
DOCKED: BRANCH   1  18
DOCKED: ATOM     18  C   UNL     1      27.341 -14.784  -3.354 -0.32 -0.00    +0.000 C 
DOCKED: BRANCH  18  19
DOCKED: ATOM     19  C   UNL     1      27.992 -13.721  -4.251 -0.22 -0.00    +0.000 C 
DOCKED: BRANCH  19  20
DOCKED: ATOM     20  C   UNL     1      28.740 -14.375  -5.379 -0.26 -0.00    +0.000 A 
DOCKED: ATOM     21  C   UNL     1      28.846 -13.929  -6.697 -0.30 -0.00    +0.000 A 
DOCKED: ATOM     22  N   UNL     1      29.546 -14.812  -7.447 -0.30 -0.00    +0.000 N 
DOCKED: ATOM     23  C   UNL     1      29.863 -15.823  -6.621 -0.29 -0.00    +0.000 A 
DOCKED: ATOM     24  C   UNL     1      29.384 -15.597  -5.355 -0.29 -0.00    +0.000 A 
DOCKED: ATOM     25  C   UNL     1      29.569 -16.520  -4.324 -0.24 -0.00    +0.000 A 
DOCKED: ATOM     26  C   UNL     1      30.277 -17.699  -4.618 -0.25 -0.00    +0.000 A 
DOCKED: ATOM     27  C   UNL     1      30.774 -17.930  -5.919 -0.29 -0.00    +0.000 A 
DOCKED: ATOM     28  C   UNL     1      30.567 -16.984  -6.940 -0.29 -0.00    +0.000 A 
DOCKED: ATOM     29  C   UNL     1      28.291 -12.646  -7.232 -0.23 -0.00    +0.000 C 
DOCKED: ATOM     30  H   UNL     1      29.775 -14.730  -8.401 -0.51 -0.00    +0.000 HD
DOCKED: ENDBRANCH  19  20
DOCKED: ENDBRANCH  18  19
DOCKED: ENDBRANCH   1  18
DOCKED: TORSDOF 7
DOCKED: TER
DOCKED: ENDMDL
________________________________________________________________________________


	BEGINNING GENETIC ALGORITHM DOCKING 42 of 100
Run: 42 Seed: 1502936207 1055827524 [ Run 42 of 100 GA/GALS ]
Beginning LAMARCKIAN GENETIC ALGORITHM (LGA), with a maximum of 2500000 energy evaluations.

Final-Value: -14.944


	FINAL GENETIC ALGORITHM DOCKED STATE
	_______________________________________________


Detailed state:  trans 29.545 -17.204 -1.637 quatxyzw 0.527331 -0.465425 0.633773 -0.321921 center 0.578 -0.033 0.130 ntor 7 -158.0677 -62.9632 152.6595 53.8618 174.3809 3.8735 -77.0413
State:	 29.545 -17.204  -1.637   0.557 -0.492  0.669 -142.442   -158.07  -62.96  152.66   53.86  174.38    3.87  -77.04

DOCKED: MODEL       42
DOCKED: USER    Run = 42
DOCKED: USER    DPF = ligand_dock.biased.dpf
DOCKED: USER  
DOCKED: USER    Estimated Free Energy of Binding    =  -11.42 kcal/mol  [=(1)+(2)+(3)-(4)]
DOCKED: USER    Estimated Inhibition Constant, Ki   =    4.24 nM (nanomolar)  [Temperature = 298.15 K]
DOCKED: USER    
DOCKED: USER    (1) Final Intermolecular Energy     =  -13.51 kcal/mol
DOCKED: USER        vdW + Hbond + desolv Energy     =  -13.51 kcal/mol
DOCKED: USER        Electrostatic Energy            =   +0.00 kcal/mol
DOCKED: USER    (2) Final Total Internal Energy     =   -1.43 kcal/mol
DOCKED: USER    (3) Torsional Free Energy           =   +2.09 kcal/mol
DOCKED: USER    (4) Unbound System's Energy  [=(2)] =   -1.43 kcal/mol
DOCKED: USER    
DOCKED: USER    
DOCKED: USER    NEWDPF move ligand.pdbqt
DOCKED: USER    NEWDPF about 0.578000 -0.033000 0.130000
DOCKED: USER    NEWDPF tran0 29.544687 -17.204036 -1.637130
DOCKED: USER    NEWDPF quaternion0 0.527331 -0.465425 0.633773 -0.321921
DOCKED: USER    NEWDPF axisangle0 0.556981 -0.491594 0.669408 -142.441732
DOCKED: USER    NEWDPF quat0 0.556981 -0.491594 0.669408 -142.441732
DOCKED: USER    NEWDPF dihe0 -158.07 -62.96 152.66 53.86 174.38 3.87 -77.04 
DOCKED: USER  keepresnum = 1 
DOCKED: USER  
DOCKED: REMARK  Name = 
DOCKED: REMARK  8 active torsions:
DOCKED: REMARK  status: ('A' for Active; 'I' for Inactive)
DOCKED: REMARK    1  A    between atoms: C_2  and  C_3
DOCKED: REMARK    2  A    between atoms: C_4  and  C_5
DOCKED: REMARK    3  A    between atoms: C_8  and  C_9
DOCKED: REMARK    4  A    between atoms: C_9  and  N_10
DOCKED: REMARK    5  A    between atoms: N_10  and  C_11
DOCKED: REMARK    6  A    between atoms: C_11  and  C_12
DOCKED: REMARK    7  A    between atoms: C_12  and  C_13
DOCKED: REMARK    8  A    between atoms: C_14  and  C_22
DOCKED: REMARK                            x       y       z     vdW  Elec       q    Type
DOCKED: REMARK                         _______ _______ _______ _____ _____    ______ ____
DOCKED: USER                              x       y       z     vdW  Elec       q    Type
DOCKED: USER                           _______ _______ _______ _____ _____    ______ ____
DOCKED: ROOT
DOCKED: ATOM      1  N   UNL     1      29.745 -17.485  -2.335 -0.21 -0.00    +0.000 N 
DOCKED: ATOM      2  H   UNL     1      29.297 -18.337  -1.999 +0.01 -0.00    +0.000 HD
DOCKED: ATOM      3  H   UNL     1      30.735 -17.462  -2.092 -0.00 -0.00    +0.000 HD
DOCKED: ENDROOT
DOCKED: BRANCH   1   4
DOCKED: ATOM      4  C   UNL     1      29.099 -16.330  -1.696 -0.25 -0.00    +0.000 C 
DOCKED: BRANCH   4   8
DOCKED: ATOM      5  C   UNL     1      24.934 -17.178  -0.896 -0.59 -0.00    +0.000 A 
DOCKED: ATOM      6  C   UNL     1      25.930 -17.534   0.036 -0.45 -0.00    +0.000 A 
DOCKED: ATOM      7  C   UNL     1      27.277 -17.269  -0.230 -0.39 -0.00    +0.000 A 
DOCKED: ATOM      8  C   UNL     1      27.655 -16.650  -1.431 -0.35 -0.00    +0.000 A 
DOCKED: ATOM      9  C   UNL     1      26.664 -16.265  -2.346 -0.36 -0.00    +0.000 A 
DOCKED: ATOM     10  C   UNL     1      25.317 -16.527  -2.080 -0.52 -0.00    +0.000 A 
DOCKED: BRANCH   5  12
DOCKED: ATOM     11  C   UNL     1      22.873 -18.578  -0.947 -0.82 -0.00    +0.000 C 
DOCKED: ATOM     12  C   UNL     1      23.490 -17.422  -0.656 -0.74 -0.00    +0.000 C 
DOCKED: BRANCH  11  14
DOCKED: ATOM     13  O   UNL     1      20.628 -17.870  -0.919 -2.27 -0.00    +0.000 OA
DOCKED: ATOM     14  C   UNL     1      21.435 -18.814  -0.704 -0.87 -0.00    +0.000 C 
DOCKED: ATOM     15  N   UNL     1      20.935 -20.062  -0.208 -0.67 -0.00    +0.000 N 
DOCKED: ATOM     16  O   UNL     1      19.600 -20.265  -0.104 -1.23 -0.00    +0.000 OA
DOCKED: ATOM     17  H   UNL     1      21.563 -20.773   0.056 -0.49 -0.00    +0.000 HD
DOCKED: ENDBRANCH  11  14
DOCKED: ENDBRANCH   5  12
DOCKED: ENDBRANCH   4   8
DOCKED: ENDBRANCH   1   4
DOCKED: BRANCH   1  18
DOCKED: ATOM     18  C   UNL     1      29.641 -17.442  -3.802 -0.13 -0.00    +0.000 C 
DOCKED: BRANCH  18  19
DOCKED: ATOM     19  C   UNL     1      30.629 -16.448  -4.432 -0.19 -0.00    +0.000 C 
DOCKED: BRANCH  19  20
DOCKED: ATOM     20  C   UNL     1      29.918 -15.548  -5.403 -0.24 -0.00    +0.000 A 
DOCKED: ATOM     21  C   UNL     1      30.127 -15.452  -6.779 -0.29 -0.00    +0.000 A 
DOCKED: ATOM     22  N   UNL     1      29.346 -14.485  -7.316 -0.33 -0.00    +0.000 N 
DOCKED: ATOM     23  C   UNL     1      28.662 -13.954  -6.289 -0.30 -0.00    +0.000 A 
DOCKED: ATOM     24  C   UNL     1      28.988 -14.570  -5.106 -0.23 -0.00    +0.000 A 
DOCKED: ATOM     25  C   UNL     1      28.422 -14.176  -3.893 -0.16 -0.00    +0.000 A 
DOCKED: ATOM     26  C   UNL     1      27.490 -13.123  -3.914 -0.19 -0.00    +0.000 A 
DOCKED: ATOM     27  C   UNL     1      27.151 -12.491  -5.131 -0.21 -0.00    +0.000 A 
DOCKED: ATOM     28  C   UNL     1      27.743 -12.907  -6.339 -0.14 -0.00    +0.000 A 
DOCKED: ATOM     29  C   UNL     1      31.063 -16.299  -7.582 -0.29 -0.00    +0.000 C 
DOCKED: ATOM     30  H   UNL     1      29.292 -14.224  -8.264 -0.59 -0.00    +0.000 HD
DOCKED: ENDBRANCH  19  20
DOCKED: ENDBRANCH  18  19
DOCKED: ENDBRANCH   1  18
DOCKED: TORSDOF 7
DOCKED: TER
DOCKED: ENDMDL
________________________________________________________________________________


	BEGINNING GENETIC ALGORITHM DOCKING 43 of 100
Run: 43 Seed: 1858272175 57659801 [ Run 43 of 100 GA/GALS ]
Beginning LAMARCKIAN GENETIC ALGORITHM (LGA), with a maximum of 2500000 energy evaluations.

Final-Value: -14.471


	FINAL GENETIC ALGORITHM DOCKED STATE
	_______________________________________________


Detailed state:  trans 28.355 -17.053 -0.942 quatxyzw 0.091085 0.662710 -0.654619 -0.352128 center 0.578 -0.033 0.130 ntor 7 -179.6097 52.0090 167.5859 -163.1774 94.8700 -168.7309 29.1585
State:	 28.355 -17.053  -0.942   0.097  0.708 -0.699 -138.765   -179.61   52.01  167.59 -163.18   94.87 -168.73   29.16

DOCKED: MODEL       43
DOCKED: USER    Run = 43
DOCKED: USER    DPF = ligand_dock.biased.dpf
DOCKED: USER  
DOCKED: USER    Estimated Free Energy of Binding    =  -10.89 kcal/mol  [=(1)+(2)+(3)-(4)]
DOCKED: USER    Estimated Inhibition Constant, Ki   =   10.33 nM (nanomolar)  [Temperature = 298.15 K]
DOCKED: USER    
DOCKED: USER    (1) Final Intermolecular Energy     =  -12.98 kcal/mol
DOCKED: USER        vdW + Hbond + desolv Energy     =  -12.98 kcal/mol
DOCKED: USER        Electrostatic Energy            =   +0.00 kcal/mol
DOCKED: USER    (2) Final Total Internal Energy     =   -1.49 kcal/mol
DOCKED: USER    (3) Torsional Free Energy           =   +2.09 kcal/mol
DOCKED: USER    (4) Unbound System's Energy  [=(2)] =   -1.49 kcal/mol
DOCKED: USER    
DOCKED: USER    
DOCKED: USER    NEWDPF move ligand.pdbqt
DOCKED: USER    NEWDPF about 0.578000 -0.033000 0.130000
DOCKED: USER    NEWDPF tran0 28.354675 -17.052863 -0.941599
DOCKED: USER    NEWDPF quaternion0 0.091085 0.662710 -0.654619 -0.352128
DOCKED: USER    NEWDPF axisangle0 0.097318 0.708060 -0.699415 -138.764999
DOCKED: USER    NEWDPF quat0 0.097318 0.708060 -0.699415 -138.764999
DOCKED: USER    NEWDPF dihe0 -179.61 52.01 167.59 -163.18 94.87 -168.73 29.16 
DOCKED: USER  keepresnum = 1 
DOCKED: USER  
DOCKED: REMARK  Name = 
DOCKED: REMARK  8 active torsions:
DOCKED: REMARK  status: ('A' for Active; 'I' for Inactive)
DOCKED: REMARK    1  A    between atoms: C_2  and  C_3
DOCKED: REMARK    2  A    between atoms: C_4  and  C_5
DOCKED: REMARK    3  A    between atoms: C_8  and  C_9
DOCKED: REMARK    4  A    between atoms: C_9  and  N_10
DOCKED: REMARK    5  A    between atoms: N_10  and  C_11
DOCKED: REMARK    6  A    between atoms: C_11  and  C_12
DOCKED: REMARK    7  A    between atoms: C_12  and  C_13
DOCKED: REMARK    8  A    between atoms: C_14  and  C_22
DOCKED: REMARK                            x       y       z     vdW  Elec       q    Type
DOCKED: REMARK                         _______ _______ _______ _____ _____    ______ ____
DOCKED: USER                              x       y       z     vdW  Elec       q    Type
DOCKED: USER                           _______ _______ _______ _____ _____    ______ ____
DOCKED: ROOT
DOCKED: ATOM      1  N   UNL     1      29.039 -17.107  -0.574 -0.27 -0.00    +0.000 N 
DOCKED: ATOM      2  H   UNL     1      29.253 -17.787  -1.304 -0.05 -0.00    +0.000 HD
DOCKED: ATOM      3  H   UNL     1      28.602 -17.552   0.233 -0.51 -0.00    +0.000 HD
DOCKED: ENDROOT
DOCKED: BRANCH   1   4
DOCKED: ATOM      4  C   UNL     1      28.092 -16.122  -1.111 -0.32 -0.00    +0.000 C 
DOCKED: BRANCH   4   8
DOCKED: ATOM      5  C   UNL     1      24.138 -17.866  -1.291 -0.67 -0.00    +0.000 A 
DOCKED: ATOM      6  C   UNL     1      25.199 -18.558  -0.674 -0.55 -0.00    +0.000 A 
DOCKED: ATOM      7  C   UNL     1      26.480 -17.997  -0.627 -0.51 -0.00    +0.000 A 
DOCKED: ATOM      8  C   UNL     1      26.724 -16.739  -1.198 -0.43 -0.00    +0.000 A 
DOCKED: ATOM      9  C   UNL     1      25.664 -16.034  -1.785 -0.48 -0.00    +0.000 A 
DOCKED: ATOM     10  C   UNL     1      24.384 -16.593  -1.831 -0.46 -0.00    +0.000 A 
DOCKED: BRANCH   5  12
DOCKED: ATOM     11  C   UNL     1      22.244 -19.240  -0.435 -0.74 -0.00    +0.000 C 
DOCKED: ATOM     12  C   UNL     1      22.759 -18.409  -1.354 -0.71 -0.00    +0.000 C 
DOCKED: BRANCH  11  14
DOCKED: ATOM     13  O   UNL     1      20.257 -19.716  -1.603 -2.27 -0.00    +0.000 OA
DOCKED: ATOM     14  C   UNL     1      20.869 -19.776  -0.504 -0.78 -0.00    +0.000 C 
DOCKED: ATOM     15  N   UNL     1      20.203 -20.333   0.637 -0.69 -0.00    +0.000 N 
DOCKED: ATOM     16  O   UNL     1      18.986 -20.907   0.499 -0.88 -0.00    +0.000 OA
DOCKED: ATOM     17  H   UNL     1      20.633 -20.297   1.522 -0.51 -0.00    +0.000 HD
DOCKED: ENDBRANCH  11  14
DOCKED: ENDBRANCH   5  12
DOCKED: ENDBRANCH   4   8
DOCKED: ENDBRANCH   1   4
DOCKED: BRANCH   1  18
DOCKED: ATOM     18  C   UNL     1      30.294 -16.488  -0.122 -0.15 -0.00    +0.000 C 
DOCKED: BRANCH  18  19
DOCKED: ATOM     19  C   UNL     1      31.395 -16.541  -1.193 -0.10 -0.00    +0.000 C 
DOCKED: BRANCH  19  20
DOCKED: ATOM     20  C   UNL     1      30.813 -16.934  -2.521 -0.12 -0.00    +0.000 A 
DOCKED: ATOM     21  C   UNL     1      30.866 -18.187  -3.132 -0.14 -0.00    +0.000 A 
DOCKED: ATOM     22  N   UNL     1      30.289 -18.149  -4.356 -0.25 -0.00    +0.000 N 
DOCKED: ATOM     23  C   UNL     1      29.892 -16.877  -4.534 -0.25 -0.00    +0.000 A 
DOCKED: ATOM     24  C   UNL     1      30.200 -16.106  -3.442 -0.14 -0.00    +0.000 A 
DOCKED: ATOM     25  C   UNL     1      29.905 -14.742  -3.400 -0.08 -0.00    +0.000 A 
DOCKED: ATOM     26  C   UNL     1      29.269 -14.173  -4.518 -0.13 -0.00    +0.000 A 
DOCKED: ATOM     27  C   UNL     1      28.948 -14.967  -5.640 -0.31 -0.00    +0.000 A 
DOCKED: ATOM     28  C   UNL     1      29.262 -16.339  -5.656 -0.27 -0.00    +0.000 A 
DOCKED: ATOM     29  C   UNL     1      31.455 -19.426  -2.535 -0.15 -0.00    +0.000 C 
DOCKED: ATOM     30  H   UNL     1      30.183 -18.898  -4.987 -0.03 -0.00    +0.000 HD
DOCKED: ENDBRANCH  19  20
DOCKED: ENDBRANCH  18  19
DOCKED: ENDBRANCH   1  18
DOCKED: TORSDOF 7
DOCKED: TER
DOCKED: ENDMDL
________________________________________________________________________________


	BEGINNING GENETIC ALGORITHM DOCKING 44 of 100
Run: 44 Seed: 1835246245 154011955 [ Run 44 of 100 GA/GALS ]
Beginning LAMARCKIAN GENETIC ALGORITHM (LGA), with a maximum of 2500000 energy evaluations.

Final-Value: -15.288


	FINAL GENETIC ALGORITHM DOCKED STATE
	_______________________________________________


Detailed state:  trans 28.648 -16.644 0.371 quatxyzw -0.315871 0.021444 -0.507787 -0.801198 center 0.578 -0.033 0.130 ntor 7 -132.0320 2.4490 -28.9160 -87.0545 -1.8315 -147.0271 119.0709
State:	 28.648 -16.644   0.371  -0.528  0.036 -0.849 -73.511   -132.03    2.45  -28.92  -87.05   -1.83 -147.03  119.07

DOCKED: MODEL       44
DOCKED: USER    Run = 44
DOCKED: USER    DPF = ligand_dock.biased.dpf
DOCKED: USER  
DOCKED: USER    Estimated Free Energy of Binding    =  -11.43 kcal/mol  [=(1)+(2)+(3)-(4)]
DOCKED: USER    Estimated Inhibition Constant, Ki   =    4.18 nM (nanomolar)  [Temperature = 298.15 K]
DOCKED: USER    
DOCKED: USER    (1) Final Intermolecular Energy     =  -13.52 kcal/mol
DOCKED: USER        vdW + Hbond + desolv Energy     =  -13.52 kcal/mol
DOCKED: USER        Electrostatic Energy            =   +0.00 kcal/mol
DOCKED: USER    (2) Final Total Internal Energy     =   -1.77 kcal/mol
DOCKED: USER    (3) Torsional Free Energy           =   +2.09 kcal/mol
DOCKED: USER    (4) Unbound System's Energy  [=(2)] =   -1.77 kcal/mol
DOCKED: USER    
DOCKED: USER    
DOCKED: USER    NEWDPF move ligand.pdbqt
DOCKED: USER    NEWDPF about 0.578000 -0.033000 0.130000
DOCKED: USER    NEWDPF tran0 28.647780 -16.643550 0.370902
DOCKED: USER    NEWDPF quaternion0 -0.315871 0.021444 -0.507787 -0.801198
DOCKED: USER    NEWDPF axisangle0 -0.527859 0.035836 -0.848575 -73.510761
DOCKED: USER    NEWDPF quat0 -0.527859 0.035836 -0.848575 -73.510761
DOCKED: USER    NEWDPF dihe0 -132.03 2.45 -28.92 -87.05 -1.83 -147.03 119.07 
DOCKED: USER  keepresnum = 1 
DOCKED: USER  
DOCKED: REMARK  Name = 
DOCKED: REMARK  8 active torsions:
DOCKED: REMARK  status: ('A' for Active; 'I' for Inactive)
DOCKED: REMARK    1  A    between atoms: C_2  and  C_3
DOCKED: REMARK    2  A    between atoms: C_4  and  C_5
DOCKED: REMARK    3  A    between atoms: C_8  and  C_9
DOCKED: REMARK    4  A    between atoms: C_9  and  N_10
DOCKED: REMARK    5  A    between atoms: N_10  and  C_11
DOCKED: REMARK    6  A    between atoms: C_11  and  C_12
DOCKED: REMARK    7  A    between atoms: C_12  and  C_13
DOCKED: REMARK    8  A    between atoms: C_14  and  C_22
DOCKED: REMARK                            x       y       z     vdW  Elec       q    Type
DOCKED: REMARK                         _______ _______ _______ _____ _____    ______ ____
DOCKED: USER                              x       y       z     vdW  Elec       q    Type
DOCKED: USER                           _______ _______ _______ _____ _____    ______ ____
DOCKED: ROOT
DOCKED: ATOM      1  N   UNL     1      28.502 -15.879   0.381 -0.18 -0.00    +0.000 N 
DOCKED: ATOM      2  H   UNL     1      29.469 -15.810   0.700 -0.47 -0.00    +0.000 HD
DOCKED: ATOM      3  H   UNL     1      27.858 -15.984   1.165 -0.55 -0.00    +0.000 HD
DOCKED: ENDROOT
DOCKED: BRANCH   1   4
DOCKED: ATOM      4  C   UNL     1      28.370 -17.068  -0.470 -0.28 -0.00    +0.000 C 
DOCKED: BRANCH   4   8
DOCKED: ATOM      5  C   UNL     1      24.161 -17.952  -0.928 -0.69 -0.00    +0.000 A 
DOCKED: ATOM      6  C   UNL     1      24.897 -18.502   0.140 -0.33 -0.00    +0.000 A 
DOCKED: ATOM      7  C   UNL     1      26.261 -18.224   0.280 -0.53 -0.00    +0.000 A 
DOCKED: ATOM      8  C   UNL     1      26.914 -17.397  -0.645 -0.48 -0.00    +0.000 A 
DOCKED: ATOM      9  C   UNL     1      26.178 -16.822  -1.692 -0.46 -0.00    +0.000 A 
DOCKED: ATOM     10  C   UNL     1      24.815 -17.097  -1.830 -0.58 -0.00    +0.000 A 
DOCKED: BRANCH   5  12
DOCKED: ATOM     11  C   UNL     1      22.059 -19.242  -0.568 -0.78 -0.00    +0.000 C 
DOCKED: ATOM     12  C   UNL     1      22.710 -18.203  -1.112 -0.78 -0.00    +0.000 C 
DOCKED: BRANCH  11  14
DOCKED: ATOM     13  O   UNL     1      20.196 -19.743  -1.915 -2.36 -0.00    +0.000 OA
DOCKED: ATOM     14  C   UNL     1      20.614 -19.485  -0.755 -0.89 -0.00    +0.000 C 
DOCKED: ATOM     15  N   UNL     1      19.676 -19.408   0.325 -0.72 -0.00    +0.000 N 
DOCKED: ATOM     16  O   UNL     1      18.380 -19.743   0.124 -0.80 -0.00    +0.000 OA
DOCKED: ATOM     17  H   UNL     1      19.976 -19.112   1.215 -0.20 -0.00    +0.000 HD
DOCKED: ENDBRANCH  11  14
DOCKED: ENDBRANCH   5  12
DOCKED: ENDBRANCH   4   8
DOCKED: ENDBRANCH   1   4
DOCKED: BRANCH   1  18
DOCKED: ATOM     18  C   UNL     1      28.149 -14.640  -0.329 -0.22 -0.00    +0.000 C 
DOCKED: BRANCH  18  19
DOCKED: ATOM     19  C   UNL     1      29.228 -14.211  -1.335 -0.09 -0.00    +0.000 C 
DOCKED: BRANCH  19  20
DOCKED: ATOM     20  C   UNL     1      28.978 -14.848  -2.673 -0.12 -0.00    +0.000 A 
DOCKED: ATOM     21  C   UNL     1      27.864 -14.680  -3.497 -0.22 -0.00    +0.000 A 
DOCKED: ATOM     22  N   UNL     1      27.959 -15.464  -4.596 -0.36 -0.00    +0.000 N 
DOCKED: ATOM     23  C   UNL     1      29.111 -16.143  -4.464 -0.25 -0.00    +0.000 A 
DOCKED: ATOM     24  C   UNL     1      29.757 -15.800  -3.303 -0.15 -0.00    +0.000 A 
DOCKED: ATOM     25  C   UNL     1      30.967 -16.390  -2.934 -0.09 -0.00    +0.000 A 
DOCKED: ATOM     26  C   UNL     1      31.519 -17.351  -3.799 -0.11 -0.00    +0.000 A 
DOCKED: ATOM     27  C   UNL     1      30.857 -17.701  -4.996 -0.23 -0.00    +0.000 A 
DOCKED: ATOM     28  C   UNL     1      29.635 -17.094  -5.339 -0.24 -0.00    +0.000 A 
DOCKED: ATOM     29  C   UNL     1      26.717 -13.755  -3.237 -0.31 -0.00    +0.000 C 
DOCKED: ATOM     30  H   UNL     1      27.315 -15.526  -5.339 -0.05 +0.00    +0.000 HD
DOCKED: ENDBRANCH  19  20
DOCKED: ENDBRANCH  18  19
DOCKED: ENDBRANCH   1  18
DOCKED: TORSDOF 7
DOCKED: TER
DOCKED: ENDMDL
________________________________________________________________________________


	BEGINNING GENETIC ALGORITHM DOCKING 45 of 100
Run: 45 Seed: 905359276 1494383900 [ Run 45 of 100 GA/GALS ]
Beginning LAMARCKIAN GENETIC ALGORITHM (LGA), with a maximum of 2500000 energy evaluations.

Final-Value: -15.831


	FINAL GENETIC ALGORITHM DOCKED STATE
	_______________________________________________


Detailed state:  trans 29.155 -15.828 0.242 quatxyzw 0.112051 0.361150 -0.798968 -0.467617 center 0.578 -0.033 0.130 ntor 7 59.6628 116.2881 145.2065 77.8417 52.5902 107.6401 27.4965
State:	 29.155 -15.828   0.242   0.127  0.409 -0.904 -124.241     59.66  116.29  145.21   77.84   52.59  107.64   27.50

DOCKED: MODEL       45
DOCKED: USER    Run = 45
DOCKED: USER    DPF = ligand_dock.biased.dpf
DOCKED: USER  
DOCKED: USER    Estimated Free Energy of Binding    =  -12.56 kcal/mol  [=(1)+(2)+(3)-(4)]
DOCKED: USER    Estimated Inhibition Constant, Ki   =  618.29 pM (picomolar)  [Temperature = 298.15 K]
DOCKED: USER    
DOCKED: USER    (1) Final Intermolecular Energy     =  -14.65 kcal/mol
DOCKED: USER        vdW + Hbond + desolv Energy     =  -14.65 kcal/mol
DOCKED: USER        Electrostatic Energy            =   +0.00 kcal/mol
DOCKED: USER    (2) Final Total Internal Energy     =   -1.18 kcal/mol
DOCKED: USER    (3) Torsional Free Energy           =   +2.09 kcal/mol
DOCKED: USER    (4) Unbound System's Energy  [=(2)] =   -1.18 kcal/mol
DOCKED: USER    
DOCKED: USER    
DOCKED: USER    NEWDPF move ligand.pdbqt
DOCKED: USER    NEWDPF about 0.578000 -0.033000 0.130000
DOCKED: USER    NEWDPF tran0 29.154864 -15.828238 0.242440
DOCKED: USER    NEWDPF quaternion0 0.112051 0.361150 -0.798968 -0.467617
DOCKED: USER    NEWDPF axisangle0 0.126764 0.408573 -0.903880 -124.240500
DOCKED: USER    NEWDPF quat0 0.126764 0.408573 -0.903880 -124.240500
DOCKED: USER    NEWDPF dihe0 59.66 116.29 145.21 77.84 52.59 107.64 27.50 
DOCKED: USER  keepresnum = 1 
DOCKED: USER  
DOCKED: REMARK  Name = 
DOCKED: REMARK  8 active torsions:
DOCKED: REMARK  status: ('A' for Active; 'I' for Inactive)
DOCKED: REMARK    1  A    between atoms: C_2  and  C_3
DOCKED: REMARK    2  A    between atoms: C_4  and  C_5
DOCKED: REMARK    3  A    between atoms: C_8  and  C_9
DOCKED: REMARK    4  A    between atoms: C_9  and  N_10
DOCKED: REMARK    5  A    between atoms: N_10  and  C_11
DOCKED: REMARK    6  A    between atoms: C_11  and  C_12
DOCKED: REMARK    7  A    between atoms: C_12  and  C_13
DOCKED: REMARK    8  A    between atoms: C_14  and  C_22
DOCKED: REMARK                            x       y       z     vdW  Elec       q    Type
DOCKED: REMARK                         _______ _______ _______ _____ _____    ______ ____
DOCKED: USER                              x       y       z     vdW  Elec       q    Type
DOCKED: USER                           _______ _______ _______ _____ _____    ______ ____
DOCKED: ROOT
DOCKED: ATOM      1  N   UNL     1      29.663 -15.614   0.792 -0.03 -0.00    +0.000 N 
DOCKED: ATOM      2  H   UNL     1      30.010 -16.567   0.688 -0.47 -0.00    +0.000 HD
DOCKED: ATOM      3  H   UNL     1      28.923 -15.561   1.493 -1.15 -0.00    +0.000 HD
DOCKED: ENDROOT
DOCKED: BRANCH   1   4
DOCKED: ATOM      4  C   UNL     1      29.096 -15.177  -0.490 -0.18 -0.00    +0.000 C 
DOCKED: BRANCH   4   8
DOCKED: ATOM      5  C   UNL     1      25.293 -17.150  -1.078 -0.57 -0.00    +0.000 A 
DOCKED: ATOM      6  C   UNL     1      26.354 -17.816  -0.434 -0.55 -0.00    +0.000 A 
DOCKED: ATOM      7  C   UNL     1      27.587 -17.180  -0.256 -0.32 -0.00    +0.000 A 
DOCKED: ATOM      8  C   UNL     1      27.783 -15.872  -0.719 -0.29 -0.00    +0.000 A 
DOCKED: ATOM      9  C   UNL     1      26.720 -15.193  -1.332 -0.31 -0.00    +0.000 A 
DOCKED: ATOM     10  C   UNL     1      25.487 -15.827  -1.509 -0.45 -0.00    +0.000 A 
DOCKED: BRANCH   5  12
DOCKED: ATOM     11  C   UNL     1      22.935 -17.626  -0.426 -0.77 -0.00    +0.000 C 
DOCKED: ATOM     12  C   UNL     1      23.961 -17.773  -1.279 -0.75 -0.00    +0.000 C 
DOCKED: BRANCH  11  14
DOCKED: ATOM     13  O   UNL     1      20.664 -17.522  -1.035 -2.11 -0.00    +0.000 OA
DOCKED: ATOM     14  C   UNL     1      21.612 -18.249  -0.633 -0.83 -0.00    +0.000 C 
DOCKED: ATOM     15  N   UNL     1      21.364 -19.635  -0.367 -0.72 -0.00    +0.000 N 
DOCKED: ATOM     16  O   UNL     1      20.165 -20.182  -0.673 -1.60 -0.00    +0.000 OA
DOCKED: ATOM     17  H   UNL     1      22.069 -20.190   0.039 -0.54 -0.00    +0.000 HD
DOCKED: ENDBRANCH  11  14
DOCKED: ENDBRANCH   5  12
DOCKED: ENDBRANCH   4   8
DOCKED: ENDBRANCH   1   4
DOCKED: BRANCH   1  18
DOCKED: ATOM     18  C   UNL     1      30.768 -14.753   1.239 -0.13 -0.00    +0.000 C 
DOCKED: BRANCH  18  19
DOCKED: ATOM     19  C   UNL     1      31.374 -15.218   2.572 -0.20 -0.00    +0.000 C 
DOCKED: BRANCH  19  20
DOCKED: ATOM     20  C   UNL     1      30.962 -14.295   3.684 -0.22 -0.00    +0.000 A 
DOCKED: ATOM     21  C   UNL     1      31.796 -13.598   4.560 -0.14 -0.00    +0.000 A 
DOCKED: ATOM     22  N   UNL     1      31.067 -12.916   5.474 -0.18 -0.00    +0.000 N 
DOCKED: ATOM     23  C   UNL     1      29.781 -13.193   5.198 -0.26 -0.00    +0.000 A 
DOCKED: ATOM     24  C   UNL     1      29.677 -14.035   4.119 -0.30 -0.00    +0.000 A 
DOCKED: ATOM     25  C   UNL     1      28.440 -14.483   3.655 -0.39 -0.00    +0.000 A 
DOCKED: ATOM     26  C   UNL     1      27.286 -14.038   4.325 -0.50 -0.00    +0.000 A 
DOCKED: ATOM     27  C   UNL     1      27.392 -13.168   5.432 -0.21 -0.00    +0.000 A 
DOCKED: ATOM     28  C   UNL     1      28.655 -12.737   5.882 -0.37 -0.00    +0.000 A 
DOCKED: ATOM     29  C   UNL     1      33.291 -13.574   4.509 -0.10 -0.00    +0.000 C 
DOCKED: ATOM     30  H   UNL     1      31.409 -12.337   6.194 +0.00 -0.00    +0.000 HD
DOCKED: ENDBRANCH  19  20
DOCKED: ENDBRANCH  18  19
DOCKED: ENDBRANCH   1  18
DOCKED: TORSDOF 7
DOCKED: TER
DOCKED: ENDMDL
________________________________________________________________________________


	BEGINNING GENETIC ALGORITHM DOCKING 46 of 100
Run: 46 Seed: 831312219 1111478658 [ Run 46 of 100 GA/GALS ]
Beginning LAMARCKIAN GENETIC ALGORITHM (LGA), with a maximum of 2500000 energy evaluations.

Final-Value: -16.216


	FINAL GENETIC ALGORITHM DOCKED STATE
	_______________________________________________


Detailed state:  trans 28.316 -15.956 0.468 quatxyzw -0.161581 0.172372 -0.308433 -0.921438 center 0.578 -0.033 0.130 ntor 7 140.6693 -56.7995 158.7078 74.4379 180.0000 172.2966 122.5870
State:	 28.316 -15.956   0.468  -0.416  0.444 -0.794 -45.725    140.67  -56.80  158.71   74.44  180.00  172.30  122.59

DOCKED: MODEL       46
DOCKED: USER    Run = 46
DOCKED: USER    DPF = ligand_dock.biased.dpf
DOCKED: USER  
DOCKED: USER    Estimated Free Energy of Binding    =  -13.06 kcal/mol  [=(1)+(2)+(3)-(4)]
DOCKED: USER    Estimated Inhibition Constant, Ki   =  267.88 pM (picomolar)  [Temperature = 298.15 K]
DOCKED: USER    
DOCKED: USER    (1) Final Intermolecular Energy     =  -15.15 kcal/mol
DOCKED: USER        vdW + Hbond + desolv Energy     =  -15.15 kcal/mol
DOCKED: USER        Electrostatic Energy            =   +0.00 kcal/mol
DOCKED: USER    (2) Final Total Internal Energy     =   -1.07 kcal/mol
DOCKED: USER    (3) Torsional Free Energy           =   +2.09 kcal/mol
DOCKED: USER    (4) Unbound System's Energy  [=(2)] =   -1.07 kcal/mol
DOCKED: USER    
DOCKED: USER    
DOCKED: USER    NEWDPF move ligand.pdbqt
DOCKED: USER    NEWDPF about 0.578000 -0.033000 0.130000
DOCKED: USER    NEWDPF tran0 28.316208 -15.955844 0.467845
DOCKED: USER    NEWDPF quaternion0 -0.161581 0.172372 -0.308433 -0.921438
DOCKED: USER    NEWDPF axisangle0 -0.415884 0.443656 -0.793858 -45.725496
DOCKED: USER    NEWDPF quat0 -0.415884 0.443656 -0.793858 -45.725496
DOCKED: USER    NEWDPF dihe0 140.67 -56.80 158.71 74.44 180.00 172.30 122.59 
DOCKED: USER  keepresnum = 1 
DOCKED: USER  
DOCKED: REMARK  Name = 
DOCKED: REMARK  8 active torsions:
DOCKED: REMARK  status: ('A' for Active; 'I' for Inactive)
DOCKED: REMARK    1  A    between atoms: C_2  and  C_3
DOCKED: REMARK    2  A    between atoms: C_4  and  C_5
DOCKED: REMARK    3  A    between atoms: C_8  and  C_9
DOCKED: REMARK    4  A    between atoms: C_9  and  N_10
DOCKED: REMARK    5  A    between atoms: N_10  and  C_11
DOCKED: REMARK    6  A    between atoms: C_11  and  C_12
DOCKED: REMARK    7  A    between atoms: C_12  and  C_13
DOCKED: REMARK    8  A    between atoms: C_14  and  C_22
DOCKED: REMARK                            x       y       z     vdW  Elec       q    Type
DOCKED: REMARK                         _______ _______ _______ _____ _____    ______ ____
DOCKED: USER                              x       y       z     vdW  Elec       q    Type
DOCKED: USER                           _______ _______ _______ _____ _____    ______ ____
DOCKED: ROOT
DOCKED: ATOM      1  N   UNL     1      27.977 -15.384   0.872 -0.21 -0.00    +0.000 N 
DOCKED: ATOM      2  H   UNL     1      28.937 -15.103   1.071 -0.51 -0.00    +0.000 HD
DOCKED: ATOM      3  H   UNL     1      27.630 -16.044   1.568 -0.51 -0.00    +0.000 HD
DOCKED: ENDROOT
DOCKED: BRANCH   1   4
DOCKED: ATOM      4  C   UNL     1      27.942 -16.051  -0.436 -0.33 -0.00    +0.000 C 
DOCKED: BRANCH   4   8
DOCKED: ATOM      5  C   UNL     1      24.128 -18.000  -1.038 -0.69 -0.00    +0.000 A 
DOCKED: ATOM      6  C   UNL     1      24.340 -16.683  -1.492 -0.53 -0.00    +0.000 A 
DOCKED: ATOM      7  C   UNL     1      25.570 -16.051  -1.286 -0.47 -0.00    +0.000 A 
DOCKED: ATOM      8  C   UNL     1      26.608 -16.719  -0.620 -0.45 -0.00    +0.000 A 
DOCKED: ATOM      9  C   UNL     1      26.412 -18.041  -0.195 -0.55 -0.00    +0.000 A 
DOCKED: ATOM     10  C   UNL     1      25.184 -18.674  -0.403 -0.45 -0.00    +0.000 A 
DOCKED: BRANCH   5  12
DOCKED: ATOM     11  C   UNL     1      21.759 -18.537  -0.483 -0.85 -0.00    +0.000 C 
DOCKED: ATOM     12  C   UNL     1      22.848 -18.721  -1.245 -0.79 -0.00    +0.000 C 
DOCKED: BRANCH  11  14
DOCKED: ATOM     13  O   UNL     1      20.254 -19.738  -1.837 -2.37 -0.00    +0.000 OA
DOCKED: ATOM     14  C   UNL     1      20.487 -19.258  -0.696 -0.90 -0.00    +0.000 C 
DOCKED: ATOM     15  N   UNL     1      19.505 -19.405   0.337 -0.72 -0.00    +0.000 N 
DOCKED: ATOM     16  O   UNL     1      18.406 -20.164   0.126 -0.92 -0.00    +0.000 OA
DOCKED: ATOM     17  H   UNL     1      19.632 -18.952   1.202 -0.28 -0.00    +0.000 HD
DOCKED: ENDBRANCH  11  14
DOCKED: ENDBRANCH   5  12
DOCKED: ENDBRANCH   4   8
DOCKED: ENDBRANCH   1   4
DOCKED: BRANCH   1  18
DOCKED: ATOM     18  C   UNL     1      27.116 -14.191   0.915 -0.27 -0.00    +0.000 C 
DOCKED: BRANCH  18  19
DOCKED: ATOM     19  C   UNL     1      27.919 -12.894   1.097 -0.20 -0.00    +0.000 C 
DOCKED: BRANCH  19  20
DOCKED: ATOM     20  C   UNL     1      27.683 -12.321   2.466 -0.23 -0.00    +0.000 A 
DOCKED: ATOM     21  C   UNL     1      26.989 -11.154   2.789 -0.27 +0.00    +0.000 A 
DOCKED: ATOM     22  N   UNL     1      27.039 -10.920   4.121 -0.24 +0.00    +0.000 N 
DOCKED: ATOM     23  C   UNL     1      27.778 -11.915   4.640 -0.32 +0.00    +0.000 A 
DOCKED: ATOM     24  C   UNL     1      28.194 -12.784   3.663 -0.28 -0.00    +0.000 A 
DOCKED: ATOM     25  C   UNL     1      28.995 -13.889   3.956 -0.34 -0.00    +0.000 A 
DOCKED: ATOM     26  C   UNL     1      29.363 -14.097   5.298 -0.35 -0.00    +0.000 A 
DOCKED: ATOM     27  C   UNL     1      28.931 -13.205   6.304 -0.38 -0.00    +0.000 A 
DOCKED: ATOM     28  C   UNL     1      28.128 -12.096   5.978 -0.37 +0.00    +0.000 A 
DOCKED: ATOM     29  C   UNL     1      26.264 -10.273   1.821 -0.29 +0.00    +0.000 C 
DOCKED: ATOM     30  H   UNL     1      26.622 -10.173   4.609 -0.08 +0.00    +0.000 HD
DOCKED: ENDBRANCH  19  20
DOCKED: ENDBRANCH  18  19
DOCKED: ENDBRANCH   1  18
DOCKED: TORSDOF 7
DOCKED: TER
DOCKED: ENDMDL
________________________________________________________________________________


	BEGINNING GENETIC ALGORITHM DOCKING 47 of 100
Run: 47 Seed: 531024270 188742494 [ Run 47 of 100 GA/GALS ]
Beginning LAMARCKIAN GENETIC ALGORITHM (LGA), with a maximum of 2500000 energy evaluations.

Final-Value: -17.233


	FINAL GENETIC ALGORITHM DOCKED STATE
	_______________________________________________


Detailed state:  trans 28.560 -15.415 1.208 quatxyzw -0.110986 -0.062893 0.731022 0.670324 center 0.578 -0.033 0.130 ntor 7 19.2191 -84.0797 -158.7078 -82.9019 -154.1032 54.3246 57.6992
State:	 28.560 -15.415   1.208  -0.150 -0.085  0.985 95.816     19.22  -84.08 -158.71  -82.90 -154.10   54.32   57.70

DOCKED: MODEL       47
DOCKED: USER    Run = 47
DOCKED: USER    DPF = ligand_dock.biased.dpf
DOCKED: USER  
DOCKED: USER    Estimated Free Energy of Binding    =  -14.07 kcal/mol  [=(1)+(2)+(3)-(4)]
DOCKED: USER    Estimated Inhibition Constant, Ki   =   48.46 pM (picomolar)  [Temperature = 298.15 K]
DOCKED: USER    
DOCKED: USER    (1) Final Intermolecular Energy     =  -16.16 kcal/mol
DOCKED: USER        vdW + Hbond + desolv Energy     =  -16.16 kcal/mol
DOCKED: USER        Electrostatic Energy            =   +0.00 kcal/mol
DOCKED: USER    (2) Final Total Internal Energy     =   -1.07 kcal/mol
DOCKED: USER    (3) Torsional Free Energy           =   +2.09 kcal/mol
DOCKED: USER    (4) Unbound System's Energy  [=(2)] =   -1.07 kcal/mol
DOCKED: USER    
DOCKED: USER    
DOCKED: USER    NEWDPF move ligand.pdbqt
DOCKED: USER    NEWDPF about 0.578000 -0.033000 0.130000
DOCKED: USER    NEWDPF tran0 28.559656 -15.414968 1.207598
DOCKED: USER    NEWDPF quaternion0 -0.110986 -0.062893 0.731022 0.670324
DOCKED: USER    NEWDPF axisangle0 -0.149562 -0.084753 0.985113 95.815861
DOCKED: USER    NEWDPF quat0 -0.149562 -0.084753 0.985113 95.815861
DOCKED: USER    NEWDPF dihe0 19.22 -84.08 -158.71 -82.90 -154.10 54.32 57.70 
DOCKED: USER  keepresnum = 1 
DOCKED: USER  
DOCKED: REMARK  Name = 
DOCKED: REMARK  8 active torsions:
DOCKED: REMARK  status: ('A' for Active; 'I' for Inactive)
DOCKED: REMARK    1  A    between atoms: C_2  and  C_3
DOCKED: REMARK    2  A    between atoms: C_4  and  C_5
DOCKED: REMARK    3  A    between atoms: C_8  and  C_9
DOCKED: REMARK    4  A    between atoms: C_9  and  N_10
DOCKED: REMARK    5  A    between atoms: N_10  and  C_11
DOCKED: REMARK    6  A    between atoms: C_11  and  C_12
DOCKED: REMARK    7  A    between atoms: C_12  and  C_13
DOCKED: REMARK    8  A    between atoms: C_14  and  C_22
DOCKED: REMARK                            x       y       z     vdW  Elec       q    Type
DOCKED: REMARK                         _______ _______ _______ _____ _____    ______ ____
DOCKED: USER                              x       y       z     vdW  Elec       q    Type
DOCKED: USER                           _______ _______ _______ _____ _____    ______ ____
DOCKED: ROOT
DOCKED: ATOM      1  N   UNL     1      28.683 -14.826   1.702 -0.12 -0.00    +0.000 N 
DOCKED: ATOM      2  H   UNL     1      29.217 -15.522   2.224 -1.81 -0.00    +0.000 HD
DOCKED: ATOM      3  H   UNL     1      27.703 -14.820   1.983 -0.35 -0.00    +0.000 HD
DOCKED: ENDROOT
DOCKED: BRANCH   1   4
DOCKED: ATOM      4  C   UNL     1      28.738 -15.166   0.274 -0.21 -0.00    +0.000 C 
DOCKED: BRANCH   4   8
DOCKED: ATOM      5  C   UNL     1      25.021 -16.986  -0.982 -0.57 -0.00    +0.000 A 
DOCKED: ATOM      6  C   UNL     1      25.457 -15.776  -1.558 -0.44 -0.00    +0.000 A 
DOCKED: ATOM      7  C   UNL     1      26.654 -15.183  -1.142 -0.31 -0.00    +0.000 A 
DOCKED: ATOM      8  C   UNL     1      27.433 -15.784  -0.142 -0.31 -0.00    +0.000 A 
DOCKED: ATOM      9  C   UNL     1      27.019 -17.005   0.410 -0.18 -0.00    +0.000 A 
DOCKED: ATOM     10  C   UNL     1      25.824 -17.599  -0.006 -0.47 -0.00    +0.000 A 
DOCKED: BRANCH   5  12
DOCKED: ATOM     11  C   UNL     1      22.656 -17.698  -0.647 -0.79 -0.00    +0.000 C 
DOCKED: ATOM     12  C   UNL     1      23.768 -17.664  -1.398 -0.72 -0.00    +0.000 C 
DOCKED: BRANCH  11  14
DOCKED: ATOM     13  O   UNL     1      20.310 -17.854  -0.747 -2.21 +0.00    +0.000 OA
DOCKED: ATOM     14  C   UNL     1      21.412 -18.374  -1.068 -0.73 -0.00    +0.000 C 
DOCKED: ATOM     15  N   UNL     1      21.417 -19.607  -1.799 -0.50 -0.00    +0.000 N 
DOCKED: ATOM     16  O   UNL     1      20.255 -20.131  -2.254 -2.17 -0.00    +0.000 OA
DOCKED: ATOM     17  H   UNL     1      22.268 -20.072  -1.971 -0.50 -0.00    +0.000 HD
DOCKED: ENDBRANCH  11  14
DOCKED: ENDBRANCH   5  12
DOCKED: ENDBRANCH   4   8
DOCKED: ENDBRANCH   1   4
DOCKED: BRANCH   1  18
DOCKED: ATOM     18  C   UNL     1      29.240 -13.494   1.982 -0.17 -0.00    +0.000 C 
DOCKED: BRANCH  18  19
DOCKED: ATOM     19  C   UNL     1      28.273 -12.610   2.785 -0.24 -0.00    +0.000 C 
DOCKED: BRANCH  19  20
DOCKED: ATOM     20  C   UNL     1      28.544 -12.741   4.257 -0.28 -0.00    +0.000 A 
DOCKED: ATOM     21  C   UNL     1      28.335 -13.862   5.061 -0.47 -0.00    +0.000 A 
DOCKED: ATOM     22  N   UNL     1      28.634 -13.588   6.353 -0.41 -0.00    +0.000 N 
DOCKED: ATOM     23  C   UNL     1      29.007 -12.298   6.377 -0.32 -0.00    +0.000 A 
DOCKED: ATOM     24  C   UNL     1      28.959 -11.746   5.121 -0.23 -0.00    +0.000 A 
DOCKED: ATOM     25  C   UNL     1      29.282 -10.407   4.895 -0.15 +0.00    +0.000 A 
DOCKED: ATOM     26  C   UNL     1      29.672  -9.630   6.001 -0.15 +0.00    +0.000 A 
DOCKED: ATOM     27  C   UNL     1      29.726 -10.198   7.292 -0.21 +0.00    +0.000 A 
DOCKED: ATOM     28  C   UNL     1      29.389 -11.551   7.490 -0.29 -0.00    +0.000 A 
DOCKED: ATOM     29  C   UNL     1      27.866 -15.202   4.587 -0.50 -0.00    +0.000 C 
DOCKED: ATOM     30  H   UNL     1      28.585 -14.207   7.117 -0.35 -0.00    +0.000 HD
DOCKED: ENDBRANCH  19  20
DOCKED: ENDBRANCH  18  19
DOCKED: ENDBRANCH   1  18
DOCKED: TORSDOF 7
DOCKED: TER
DOCKED: ENDMDL
________________________________________________________________________________


	BEGINNING GENETIC ALGORITHM DOCKING 48 of 100
Run: 48 Seed: 658016175 212475804 [ Run 48 of 100 GA/GALS ]
Beginning LAMARCKIAN GENETIC ALGORITHM (LGA), with a maximum of 2500000 energy evaluations.

Final-Value: -15.313


	FINAL GENETIC ALGORITHM DOCKED STATE
	_______________________________________________


Detailed state:  trans 28.204 -16.494 -1.849 quatxyzw -0.554197 0.723911 -0.396344 0.108306 center 0.578 -0.033 0.130 ntor 7 -10.9486 -106.0711 168.0258 60.0913 165.9925 161.0856 -47.9277
State:	 28.204 -16.494  -1.849  -0.557  0.728 -0.399 167.565    -10.95 -106.07  168.03   60.09  165.99  161.09  -47.93

DOCKED: MODEL       48
DOCKED: USER    Run = 48
DOCKED: USER    DPF = ligand_dock.biased.dpf
DOCKED: USER  
DOCKED: USER    Estimated Free Energy of Binding    =  -12.17 kcal/mol  [=(1)+(2)+(3)-(4)]
DOCKED: USER    Estimated Inhibition Constant, Ki   =    1.19 nM (nanomolar)  [Temperature = 298.15 K]
DOCKED: USER    
DOCKED: USER    (1) Final Intermolecular Energy     =  -14.26 kcal/mol
DOCKED: USER        vdW + Hbond + desolv Energy     =  -14.26 kcal/mol
DOCKED: USER        Electrostatic Energy            =   +0.00 kcal/mol
DOCKED: USER    (2) Final Total Internal Energy     =   -1.05 kcal/mol
DOCKED: USER    (3) Torsional Free Energy           =   +2.09 kcal/mol
DOCKED: USER    (4) Unbound System's Energy  [=(2)] =   -1.05 kcal/mol
DOCKED: USER    
DOCKED: USER    
DOCKED: USER    NEWDPF move ligand.pdbqt
DOCKED: USER    NEWDPF about 0.578000 -0.033000 0.130000
DOCKED: USER    NEWDPF tran0 28.204246 -16.494448 -1.848767
DOCKED: USER    NEWDPF quaternion0 -0.554197 0.723911 -0.396344 0.108306
DOCKED: USER    NEWDPF axisangle0 -0.557476 0.728194 -0.398690 167.564685
DOCKED: USER    NEWDPF quat0 -0.557476 0.728194 -0.398690 167.564685
DOCKED: USER    NEWDPF dihe0 -10.95 -106.07 168.03 60.09 165.99 161.09 -47.93 
DOCKED: USER  keepresnum = 1 
DOCKED: USER  
DOCKED: REMARK  Name = 
DOCKED: REMARK  8 active torsions:
DOCKED: REMARK  status: ('A' for Active; 'I' for Inactive)
DOCKED: REMARK    1  A    between atoms: C_2  and  C_3
DOCKED: REMARK    2  A    between atoms: C_4  and  C_5
DOCKED: REMARK    3  A    between atoms: C_8  and  C_9
DOCKED: REMARK    4  A    between atoms: C_9  and  N_10
DOCKED: REMARK    5  A    between atoms: N_10  and  C_11
DOCKED: REMARK    6  A    between atoms: C_11  and  C_12
DOCKED: REMARK    7  A    between atoms: C_12  and  C_13
DOCKED: REMARK    8  A    between atoms: C_14  and  C_22
DOCKED: REMARK                            x       y       z     vdW  Elec       q    Type
DOCKED: REMARK                         _______ _______ _______ _____ _____    ______ ____
DOCKED: USER                              x       y       z     vdW  Elec       q    Type
DOCKED: USER                           _______ _______ _______ _____ _____    ______ ____
DOCKED: ROOT
DOCKED: ATOM      1  N   UNL     1      28.465 -16.213  -2.526 -0.25 -0.00    +0.000 N 
DOCKED: ATOM      2  H   UNL     1      27.906 -16.966  -2.929 -0.02 -0.00    +0.000 HD
DOCKED: ATOM      3  H   UNL     1      29.415 -16.522  -2.321 -0.00 -0.00    +0.000 HD
DOCKED: ENDROOT
DOCKED: BRANCH   1   4
DOCKED: ATOM      4  C   UNL     1      27.847 -15.792  -1.262 -0.30 -0.00    +0.000 C 
DOCKED: BRANCH   4   8
DOCKED: ATOM      5  C   UNL     1      24.221 -18.034  -0.533 -0.68 -0.00    +0.000 A 
DOCKED: ATOM      6  C   UNL     1      25.483 -18.609  -0.280 -0.52 -0.00    +0.000 A 
DOCKED: ATOM      7  C   UNL     1      26.654 -17.886  -0.527 -0.51 -0.00    +0.000 A 
DOCKED: ATOM      8  C   UNL     1      26.588 -16.581  -1.035 -0.43 -0.00    +0.000 A 
DOCKED: ATOM      9  C   UNL     1      25.334 -15.993  -1.258 -0.46 -0.00    +0.000 A 
DOCKED: ATOM     10  C   UNL     1      24.163 -16.714  -1.008 -0.52 -0.00    +0.000 A 
DOCKED: BRANCH   5  12
DOCKED: ATOM     11  C   UNL     1      21.963 -18.870  -1.177 -0.78 -0.00    +0.000 C 
DOCKED: ATOM     12  C   UNL     1      22.948 -18.752  -0.273 -0.77 -0.00    +0.000 C 
DOCKED: BRANCH  11  14
DOCKED: ATOM     13  O   UNL     1      19.884 -19.734  -1.861 -2.40 -0.00    +0.000 OA
DOCKED: ATOM     14  C   UNL     1      20.699 -19.586  -0.912 -0.86 -0.00    +0.000 C 
DOCKED: ATOM     15  N   UNL     1      20.359 -20.090   0.386 -0.71 -0.00    +0.000 N 
DOCKED: ATOM     16  O   UNL     1      19.240 -20.832   0.554 -0.88 -0.00    +0.000 OA
DOCKED: ATOM     17  H   UNL     1      20.942 -19.896   1.156 -0.47 -0.00    +0.000 HD
DOCKED: ENDBRANCH  11  14
DOCKED: ENDBRANCH   5  12
DOCKED: ENDBRANCH   4   8
DOCKED: ENDBRANCH   1   4
DOCKED: BRANCH   1  18
DOCKED: ATOM     18  C   UNL     1      28.550 -15.114  -3.501 -0.23 -0.00    +0.000 C 
DOCKED: BRANCH  18  19
DOCKED: ATOM     19  C   UNL     1      27.906 -15.473  -4.849 -0.40 -0.00    +0.000 C 
DOCKED: BRANCH  19  20
DOCKED: ATOM     20  C   UNL     1      28.895 -15.293  -5.965 -0.35 -0.00    +0.000 A 
DOCKED: ATOM     21  C   UNL     1      28.981 -14.224  -6.858 -0.31 -0.00    +0.000 A 
DOCKED: ATOM     22  N   UNL     1      29.957 -14.439  -7.771 -0.20 -0.00    +0.000 N 
DOCKED: ATOM     23  C   UNL     1      30.475 -15.644  -7.477 -0.23 -0.00    +0.000 A 
DOCKED: ATOM     24  C   UNL     1      29.850 -16.198  -6.388 -0.29 -0.00    +0.000 A 
DOCKED: ATOM     25  C   UNL     1      30.200 -17.459  -5.904 -0.31 -0.00    +0.000 A 
DOCKED: ATOM     26  C   UNL     1      31.230 -18.154  -6.565 -0.26 -0.00    +0.000 A 
DOCKED: ATOM     27  C   UNL     1      31.876 -17.582  -7.682 -0.21 -0.00    +0.000 A 
DOCKED: ATOM     28  C   UNL     1      31.498 -16.310  -8.151 -0.23 -0.00    +0.000 A 
DOCKED: ATOM     29  C   UNL     1      28.136 -12.989  -6.826 -0.22 -0.00    +0.000 C 
DOCKED: ATOM     30  H   UNL     1      30.231 -13.837  -8.501 -0.45 -0.00    +0.000 HD
DOCKED: ENDBRANCH  19  20
DOCKED: ENDBRANCH  18  19
DOCKED: ENDBRANCH   1  18
DOCKED: TORSDOF 7
DOCKED: TER
DOCKED: ENDMDL
________________________________________________________________________________


	BEGINNING GENETIC ALGORITHM DOCKING 49 of 100
Run: 49 Seed: 292541147 1396989749 [ Run 49 of 100 GA/GALS ]
Beginning LAMARCKIAN GENETIC ALGORITHM (LGA), with a maximum of 2500000 energy evaluations.

Final-Value: -15.227


	FINAL GENETIC ALGORITHM DOCKED STATE
	_______________________________________________


Detailed state:  trans 28.620 -16.692 -0.305 quatxyzw -0.169025 0.264481 -0.458393 -0.831478 center 0.578 -0.033 0.130 ntor 7 -97.6077 127.0243 41.8748 109.4424 -149.6840 164.2901 113.7442
State:	 28.620 -16.692  -0.305  -0.304  0.476 -0.825 -67.498    -97.61  127.02   41.87  109.44 -149.68  164.29  113.74

DOCKED: MODEL       49
DOCKED: USER    Run = 49
DOCKED: USER    DPF = ligand_dock.biased.dpf
DOCKED: USER  
DOCKED: USER    Estimated Free Energy of Binding    =  -11.99 kcal/mol  [=(1)+(2)+(3)-(4)]
DOCKED: USER    Estimated Inhibition Constant, Ki   =    1.62 nM (nanomolar)  [Temperature = 298.15 K]
DOCKED: USER    
DOCKED: USER    (1) Final Intermolecular Energy     =  -14.08 kcal/mol
DOCKED: USER        vdW + Hbond + desolv Energy     =  -14.08 kcal/mol
DOCKED: USER        Electrostatic Energy            =   +0.00 kcal/mol
DOCKED: USER    (2) Final Total Internal Energy     =   -1.15 kcal/mol
DOCKED: USER    (3) Torsional Free Energy           =   +2.09 kcal/mol
DOCKED: USER    (4) Unbound System's Energy  [=(2)] =   -1.15 kcal/mol
DOCKED: USER    
DOCKED: USER    
DOCKED: USER    NEWDPF move ligand.pdbqt
DOCKED: USER    NEWDPF about 0.578000 -0.033000 0.130000
DOCKED: USER    NEWDPF tran0 28.620255 -16.691975 -0.304688
DOCKED: USER    NEWDPF quaternion0 -0.169025 0.264481 -0.458393 -0.831478
DOCKED: USER    NEWDPF axisangle0 -0.304244 0.476065 -0.825105 -67.498263
DOCKED: USER    NEWDPF quat0 -0.304244 0.476065 -0.825105 -67.498263
DOCKED: USER    NEWDPF dihe0 -97.61 127.02 41.87 109.44 -149.68 164.29 113.74 
DOCKED: USER  keepresnum = 1 
DOCKED: USER  
DOCKED: REMARK  Name = 
DOCKED: REMARK  8 active torsions:
DOCKED: REMARK  status: ('A' for Active; 'I' for Inactive)
DOCKED: REMARK    1  A    between atoms: C_2  and  C_3
DOCKED: REMARK    2  A    between atoms: C_4  and  C_5
DOCKED: REMARK    3  A    between atoms: C_8  and  C_9
DOCKED: REMARK    4  A    between atoms: C_9  and  N_10
DOCKED: REMARK    5  A    between atoms: N_10  and  C_11
DOCKED: REMARK    6  A    between atoms: C_11  and  C_12
DOCKED: REMARK    7  A    between atoms: C_12  and  C_13
DOCKED: REMARK    8  A    between atoms: C_14  and  C_22
DOCKED: REMARK                            x       y       z     vdW  Elec       q    Type
DOCKED: REMARK                         _______ _______ _______ _____ _____    ______ ____
DOCKED: USER                              x       y       z     vdW  Elec       q    Type
DOCKED: USER                           _______ _______ _______ _____ _____    ______ ____
DOCKED: ROOT
DOCKED: ATOM      1  N   UNL     1      28.571 -16.033   0.107 -0.22 -0.00    +0.000 N 
DOCKED: ATOM      2  H   UNL     1      29.588 -16.110   0.143 -0.14 -0.00    +0.000 HD
DOCKED: ATOM      3  H   UNL     1      28.133 -16.521   0.888 -0.54 -0.00    +0.000 HD
DOCKED: ENDROOT
DOCKED: BRANCH   1   4
DOCKED: ATOM      4  C   UNL     1      28.097 -16.656  -1.135 -0.36 -0.00    +0.000 C 
DOCKED: BRANCH   4   8
DOCKED: ATOM      5  C   UNL     1      23.921 -17.727  -0.776 -0.68 -0.00    +0.000 A 
DOCKED: ATOM      6  C   UNL     1      24.357 -16.874  -1.811 -0.51 -0.00    +0.000 A 
DOCKED: ATOM      7  C   UNL     1      25.705 -16.520  -1.918 -0.50 -0.00    +0.000 A 
DOCKED: ATOM      8  C   UNL     1      26.642 -17.006  -0.994 -0.46 -0.00    +0.000 A 
DOCKED: ATOM      9  C   UNL     1      26.218 -17.880   0.018 -0.55 -0.00    +0.000 A 
DOCKED: ATOM     10  C   UNL     1      24.871 -18.236   0.125 -0.54 -0.00    +0.000 A 
DOCKED: BRANCH   5  12
DOCKED: ATOM     11  C   UNL     1      22.050 -19.361  -0.966 -0.75 -0.00    +0.000 C 
DOCKED: ATOM     12  C   UNL     1      22.506 -18.145  -0.627 -0.83 -0.00    +0.000 C 
DOCKED: BRANCH  11  14
DOCKED: ATOM     13  O   UNL     1      19.891 -19.731  -1.827 -2.40 -0.00    +0.000 OA
DOCKED: ATOM     14  C   UNL     1      20.639 -19.771  -0.813 -0.82 -0.00    +0.000 C 
DOCKED: ATOM     15  N   UNL     1      20.090 -20.182   0.445 -0.71 -0.00    +0.000 N 
DOCKED: ATOM     16  O   UNL     1      18.822 -20.650   0.512 -0.88 -0.00    +0.000 OA
DOCKED: ATOM     17  H   UNL     1      20.637 -20.124   1.261 -0.40 -0.00    +0.000 HD
DOCKED: ENDBRANCH  11  14
DOCKED: ENDBRANCH   5  12
DOCKED: ENDBRANCH   4   8
DOCKED: ENDBRANCH   1   4
DOCKED: BRANCH   1  18
DOCKED: ATOM     18  C   UNL     1      28.200 -14.612   0.198 -0.23 -0.00    +0.000 C 
DOCKED: BRANCH  18  19
DOCKED: ATOM     19  C   UNL     1      29.421 -13.696   0.373 -0.11 -0.00    +0.000 C 
DOCKED: BRANCH  19  20
DOCKED: ATOM     20  C   UNL     1      29.951 -13.793   1.776 -0.12 -0.00    +0.000 A 
DOCKED: ATOM     21  C   UNL     1      31.278 -13.963   2.171 -0.09 -0.00    +0.000 A 
DOCKED: ATOM     22  N   UNL     1      31.367 -14.072   3.517 -0.18 -0.00    +0.000 N 
DOCKED: ATOM     23  C   UNL     1      30.106 -13.995   3.975 -0.26 -0.00    +0.000 A 
DOCKED: ATOM     24  C   UNL     1      29.215 -13.832   2.944 -0.22 -0.00    +0.000 A 
DOCKED: ATOM     25  C   UNL     1      27.840 -13.748   3.170 -0.35 -0.00    +0.000 A 
DOCKED: ATOM     26  C   UNL     1      27.386 -13.827   4.499 -0.50 -0.00    +0.000 A 
DOCKED: ATOM     27  C   UNL     1      28.303 -13.991   5.560 -0.35 -0.00    +0.000 A 
DOCKED: ATOM     28  C   UNL     1      29.684 -14.078   5.301 -0.31 -0.00    +0.000 A 
DOCKED: ATOM     29  C   UNL     1      32.463 -14.005   1.257 -0.04 -0.00    +0.000 C 
DOCKED: ATOM     30  H   UNL     1      32.187 -14.186   4.050 -0.01 -0.00    +0.000 HD
DOCKED: ENDBRANCH  19  20
DOCKED: ENDBRANCH  18  19
DOCKED: ENDBRANCH   1  18
DOCKED: TORSDOF 7
DOCKED: TER
DOCKED: ENDMDL
________________________________________________________________________________


	BEGINNING GENETIC ALGORITHM DOCKING 50 of 100
Run: 50 Seed: 1910435162 1359549967 [ Run 50 of 100 GA/GALS ]
Beginning LAMARCKIAN GENETIC ALGORITHM (LGA), with a maximum of 2500000 energy evaluations.

Final-Value: -15.924


	FINAL GENETIC ALGORITHM DOCKED STATE
	_______________________________________________


Detailed state:  trans 28.033 -16.151 0.052 quatxyzw 0.001612 -0.416985 0.825735 0.379845 center 0.578 -0.033 0.130 ntor 7 76.5176 -3.4613 32.2370 136.4919 -108.1163 47.1269 14.6359
State:	 28.033 -16.151   0.052   0.002 -0.451  0.893 135.352     76.52   -3.46   32.24  136.49 -108.12   47.13   14.64

DOCKED: MODEL       50
DOCKED: USER    Run = 50
DOCKED: USER    DPF = ligand_dock.biased.dpf
DOCKED: USER  
DOCKED: USER    Estimated Free Energy of Binding    =  -12.22 kcal/mol  [=(1)+(2)+(3)-(4)]
DOCKED: USER    Estimated Inhibition Constant, Ki   =    1.10 nM (nanomolar)  [Temperature = 298.15 K]
DOCKED: USER    
DOCKED: USER    (1) Final Intermolecular Energy     =  -14.31 kcal/mol
DOCKED: USER        vdW + Hbond + desolv Energy     =  -14.31 kcal/mol
DOCKED: USER        Electrostatic Energy            =   +0.00 kcal/mol
DOCKED: USER    (2) Final Total Internal Energy     =   -1.61 kcal/mol
DOCKED: USER    (3) Torsional Free Energy           =   +2.09 kcal/mol
DOCKED: USER    (4) Unbound System's Energy  [=(2)] =   -1.61 kcal/mol
DOCKED: USER    
DOCKED: USER    
DOCKED: USER    NEWDPF move ligand.pdbqt
DOCKED: USER    NEWDPF about 0.578000 -0.033000 0.130000
DOCKED: USER    NEWDPF tran0 28.033451 -16.150745 0.052221
DOCKED: USER    NEWDPF quaternion0 0.001612 -0.416985 0.825735 0.379845
DOCKED: USER    NEWDPF axisangle0 0.001742 -0.450770 0.892638 135.351784
DOCKED: USER    NEWDPF quat0 0.001742 -0.450770 0.892638 135.351784
DOCKED: USER    NEWDPF dihe0 76.52 -3.46 32.24 136.49 -108.12 47.13 14.64 
DOCKED: USER  keepresnum = 1 
DOCKED: USER  
DOCKED: REMARK  Name = 
DOCKED: REMARK  8 active torsions:
DOCKED: REMARK  status: ('A' for Active; 'I' for Inactive)
DOCKED: REMARK    1  A    between atoms: C_2  and  C_3
DOCKED: REMARK    2  A    between atoms: C_4  and  C_5
DOCKED: REMARK    3  A    between atoms: C_8  and  C_9
DOCKED: REMARK    4  A    between atoms: C_9  and  N_10
DOCKED: REMARK    5  A    between atoms: N_10  and  C_11
DOCKED: REMARK    6  A    between atoms: C_11  and  C_12
DOCKED: REMARK    7  A    between atoms: C_12  and  C_13
DOCKED: REMARK    8  A    between atoms: C_14  and  C_22
DOCKED: REMARK                            x       y       z     vdW  Elec       q    Type
DOCKED: REMARK                         _______ _______ _______ _____ _____    ______ ____
DOCKED: USER                              x       y       z     vdW  Elec       q    Type
DOCKED: USER                           _______ _______ _______ _____ _____    ______ ____
DOCKED: ROOT
DOCKED: ATOM      1  N   UNL     1      28.696 -15.970   0.419 -0.12 -0.00    +0.000 N 
DOCKED: ATOM      2  H   UNL     1      28.932 -16.947   0.242 -0.38 -0.00    +0.000 HD
DOCKED: ATOM      3  H   UNL     1      28.207 -15.860   1.307 -0.72 -0.00    +0.000 HD
DOCKED: ENDROOT
DOCKED: BRANCH   1   4
DOCKED: ATOM      4  C   UNL     1      27.802 -15.501  -0.647 -0.30 -0.00    +0.000 C 
DOCKED: BRANCH   4   8
DOCKED: ATOM      5  C   UNL     1      24.216 -17.918  -0.712 -0.69 -0.00    +0.000 A 
DOCKED: ATOM      6  C   UNL     1      24.262 -16.686  -1.393 -0.52 -0.00    +0.000 A 
DOCKED: ATOM      7  C   UNL     1      25.418 -15.900  -1.361 -0.45 -0.00    +0.000 A 
DOCKED: ATOM      8  C   UNL     1      26.547 -16.328  -0.646 -0.42 -0.00    +0.000 A 
DOCKED: ATOM      9  C   UNL     1      26.516 -17.569   0.006 -0.49 -0.00    +0.000 A 
DOCKED: ATOM     10  C   UNL     1      25.361 -18.355  -0.027 -0.54 -0.00    +0.000 A 
DOCKED: BRANCH   5  12
DOCKED: ATOM     11  C   UNL     1      21.768 -18.346  -0.906 -0.80 -0.00    +0.000 C 
DOCKED: ATOM     12  C   UNL     1      23.020 -18.796  -0.726 -0.83 -0.00    +0.000 C 
DOCKED: BRANCH  11  14
DOCKED: ATOM     13  O   UNL     1      20.248 -19.762  -2.011 -2.34 -0.00    +0.000 OA
DOCKED: ATOM     14  C   UNL     1      20.582 -19.226  -0.921 -0.90 -0.00    +0.000 C 
DOCKED: ATOM     15  N   UNL     1      19.789 -19.466   0.248 -0.73 -0.00    +0.000 N 
DOCKED: ATOM     16  O   UNL     1      18.777 -20.364   0.209 -0.97 -0.00    +0.000 OA
DOCKED: ATOM     17  H   UNL     1      19.983 -18.978   1.081 -0.21 -0.00    +0.000 HD
DOCKED: ENDBRANCH  11  14
DOCKED: ENDBRANCH   5  12
DOCKED: ENDBRANCH   4   8
DOCKED: ENDBRANCH   1   4
DOCKED: BRANCH   1  18
DOCKED: ATOM     18  C   UNL     1      29.940 -15.189   0.491 -0.14 -0.00    +0.000 C 
DOCKED: BRANCH  18  19
DOCKED: ATOM     19  C   UNL     1      30.126 -14.504   1.854 -0.15 -0.00    +0.000 C 
DOCKED: BRANCH  19  20
DOCKED: ATOM     20  C   UNL     1      28.863 -13.801   2.263 -0.20 -0.00    +0.000 A 
DOCKED: ATOM     21  C   UNL     1      28.124 -13.995   3.430 -0.38 -0.00    +0.000 A 
DOCKED: ATOM     22  N   UNL     1      27.009 -13.228   3.425 -0.38 -0.00    +0.000 N 
DOCKED: ATOM     23  C   UNL     1      27.023 -12.569   2.254 -0.29 -0.00    +0.000 A 
DOCKED: ATOM     24  C   UNL     1      28.133 -12.896   1.516 -0.17 -0.00    +0.000 A 
DOCKED: ATOM     25  C   UNL     1      28.359 -12.353   0.250 -0.09 -0.00    +0.000 A 
DOCKED: ATOM     26  C   UNL     1      27.411 -11.444  -0.253 -0.13 -0.00    +0.000 A 
DOCKED: ATOM     27  C   UNL     1      26.271 -11.104   0.508 -0.23 +0.00    +0.000 A 
DOCKED: ATOM     28  C   UNL     1      26.067 -11.671   1.780 -0.28 +0.00    +0.000 A 
DOCKED: ATOM     29  C   UNL     1      28.498 -14.903   4.560 -0.53 -0.00    +0.000 C 
DOCKED: ATOM     30  H   UNL     1      26.326 -13.168   4.132 +0.06 +0.00    +0.000 HD
DOCKED: ENDBRANCH  19  20
DOCKED: ENDBRANCH  18  19
DOCKED: ENDBRANCH   1  18
DOCKED: TORSDOF 7
DOCKED: TER
DOCKED: ENDMDL
________________________________________________________________________________


	BEGINNING GENETIC ALGORITHM DOCKING 51 of 100
Run: 51 Seed: 891982217 978652677 [ Run 51 of 100 GA/GALS ]
Beginning LAMARCKIAN GENETIC ALGORITHM (LGA), with a maximum of 2500000 energy evaluations.

Final-Value: -15.707


	FINAL GENETIC ALGORITHM DOCKED STATE
	_______________________________________________


Detailed state:  trans 29.435 -16.808 -0.207 quatxyzw 0.064304 0.106957 -0.912558 -0.389440 center 0.578 -0.033 0.130 ntor 7 100.6320 156.3342 -164.7172 -180.0000 -119.1964 44.8933 38.3823
State:	 29.435 -16.808  -0.207   0.070  0.116 -0.991 -134.161    100.63  156.33 -164.72 -180.00 -119.20   44.89   38.38

DOCKED: MODEL       51
DOCKED: USER    Run = 51
DOCKED: USER    DPF = ligand_dock.biased.dpf
DOCKED: USER  
DOCKED: USER    Estimated Free Energy of Binding    =  -12.12 kcal/mol  [=(1)+(2)+(3)-(4)]
DOCKED: USER    Estimated Inhibition Constant, Ki   =    1.31 nM (nanomolar)  [Temperature = 298.15 K]
DOCKED: USER    
DOCKED: USER    (1) Final Intermolecular Energy     =  -14.21 kcal/mol
DOCKED: USER        vdW + Hbond + desolv Energy     =  -14.21 kcal/mol
DOCKED: USER        Electrostatic Energy            =   +0.00 kcal/mol
DOCKED: USER    (2) Final Total Internal Energy     =   -1.50 kcal/mol
DOCKED: USER    (3) Torsional Free Energy           =   +2.09 kcal/mol
DOCKED: USER    (4) Unbound System's Energy  [=(2)] =   -1.50 kcal/mol
DOCKED: USER    
DOCKED: USER    
DOCKED: USER    NEWDPF move ligand.pdbqt
DOCKED: USER    NEWDPF about 0.578000 -0.033000 0.130000
DOCKED: USER    NEWDPF tran0 29.435226 -16.808462 -0.207043
DOCKED: USER    NEWDPF quaternion0 0.064304 0.106957 -0.912558 -0.389440
DOCKED: USER    NEWDPF axisangle0 0.069815 0.116125 -0.990778 -134.160626
DOCKED: USER    NEWDPF quat0 0.069815 0.116125 -0.990778 -134.160626
DOCKED: USER    NEWDPF dihe0 100.63 156.33 -164.72 -180.00 -119.20 44.89 38.38 
DOCKED: USER  keepresnum = 1 
DOCKED: USER  
DOCKED: REMARK  Name = 
DOCKED: REMARK  8 active torsions:
DOCKED: REMARK  status: ('A' for Active; 'I' for Inactive)
DOCKED: REMARK    1  A    between atoms: C_2  and  C_3
DOCKED: REMARK    2  A    between atoms: C_4  and  C_5
DOCKED: REMARK    3  A    between atoms: C_8  and  C_9
DOCKED: REMARK    4  A    between atoms: C_9  and  N_10
DOCKED: REMARK    5  A    between atoms: N_10  and  C_11
DOCKED: REMARK    6  A    between atoms: C_11  and  C_12
DOCKED: REMARK    7  A    between atoms: C_12  and  C_13
DOCKED: REMARK    8  A    between atoms: C_14  and  C_22
DOCKED: REMARK                            x       y       z     vdW  Elec       q    Type
DOCKED: REMARK                         _______ _______ _______ _____ _____    ______ ____
DOCKED: USER                              x       y       z     vdW  Elec       q    Type
DOCKED: USER                           _______ _______ _______ _____ _____    ______ ____
DOCKED: ROOT
DOCKED: ATOM      1  N   UNL     1      29.976 -16.465   0.236 -0.09 -0.00    +0.000 N 
DOCKED: ATOM      2  H   UNL     1      30.061 -17.391   0.656 -0.37 -0.00    +0.000 HD
DOCKED: ATOM      3  H   UNL     1      29.269 -15.904   0.712 -0.57 -0.00    +0.000 HD
DOCKED: ENDROOT
DOCKED: BRANCH   1   4
DOCKED: ATOM      4  C   UNL     1      29.558 -16.620  -1.163 -0.24 -0.00    +0.000 C 
DOCKED: BRANCH   4   8
DOCKED: ATOM      5  C   UNL     1      25.264 -17.096  -1.374 -0.57 -0.00    +0.000 A 
DOCKED: ATOM      6  C   UNL     1      25.981 -16.563  -2.464 -0.39 -0.00    +0.000 A 
DOCKED: ATOM      7  C   UNL     1      27.368 -16.399  -2.390 -0.28 -0.00    +0.000 A 
DOCKED: ATOM      8  C   UNL     1      28.063 -16.760  -1.226 -0.33 -0.00    +0.000 A 
DOCKED: ATOM      9  C   UNL     1      27.358 -17.320  -0.151 -0.34 -0.00    +0.000 A 
DOCKED: ATOM     10  C   UNL     1      25.972 -17.486  -0.226 -0.52 -0.00    +0.000 A 
DOCKED: BRANCH   5  12
DOCKED: ATOM     11  C   UNL     1      23.196 -18.435  -1.004 -0.82 -0.00    +0.000 C 
DOCKED: ATOM     12  C   UNL     1      23.796 -17.304  -1.408 -0.67 -0.00    +0.000 C 
DOCKED: BRANCH  11  14
DOCKED: ATOM     13  O   UNL     1      21.008 -17.885  -0.331 -1.93 +0.00    +0.000 OA
DOCKED: ATOM     14  C   UNL     1      21.733 -18.635  -1.039 -0.82 -0.00    +0.000 C 
DOCKED: ATOM     15  N   UNL     1      21.117 -19.664  -1.823 -0.62 -0.00    +0.000 N 
DOCKED: ATOM     16  O   UNL     1      19.768 -19.739  -1.905 -2.29 -0.00    +0.000 OA
DOCKED: ATOM     17  H   UNL     1      21.676 -20.317  -2.303 -0.56 -0.00    +0.000 HD
DOCKED: ENDBRANCH  11  14
DOCKED: ENDBRANCH   5  12
DOCKED: ENDBRANCH   4   8
DOCKED: ENDBRANCH   1   4
DOCKED: BRANCH   1  18
DOCKED: ATOM     18  C   UNL     1      31.264 -15.767   0.362 -0.12 -0.00    +0.000 C 
DOCKED: BRANCH  18  19
DOCKED: ATOM     19  C   UNL     1      31.143 -14.444   1.133 -0.09 -0.00    +0.000 C 
DOCKED: BRANCH  19  20
DOCKED: ATOM     20  C   UNL     1      29.705 -14.163   1.467 -0.13 -0.00    +0.000 A 
DOCKED: ATOM     21  C   UNL     1      28.700 -13.738   0.597 -0.14 -0.00    +0.000 A 
DOCKED: ATOM     22  N   UNL     1      27.543 -13.526   1.268 -0.25 -0.00    +0.000 N 
DOCKED: ATOM     23  C   UNL     1      27.814 -13.790   2.557 -0.30 -0.00    +0.000 A 
DOCKED: ATOM     24  C   UNL     1      29.121 -14.175   2.719 -0.21 -0.00    +0.000 A 
DOCKED: ATOM     25  C   UNL     1      29.645 -14.481   3.976 -0.32 -0.00    +0.000 A 
DOCKED: ATOM     26  C   UNL     1      28.786 -14.393   5.086 -0.39 -0.00    +0.000 A 
DOCKED: ATOM     27  C   UNL     1      27.439 -14.002   4.919 -0.47 -0.00    +0.000 A 
DOCKED: ATOM     28  C   UNL     1      26.940 -13.693   3.639 -0.28 -0.00    +0.000 A 
DOCKED: ATOM     29  C   UNL     1      28.845 -13.552  -0.881 -0.09 -0.00    +0.000 C 
DOCKED: ATOM     30  H   UNL     1      26.682 -13.235   0.889 -0.01 -0.00    +0.000 HD
DOCKED: ENDBRANCH  19  20
DOCKED: ENDBRANCH  18  19
DOCKED: ENDBRANCH   1  18
DOCKED: TORSDOF 7
DOCKED: TER
DOCKED: ENDMDL
________________________________________________________________________________


	BEGINNING GENETIC ALGORITHM DOCKING 52 of 100
Run: 52 Seed: 1099629706 2030586202 [ Run 52 of 100 GA/GALS ]
Beginning LAMARCKIAN GENETIC ALGORITHM (LGA), with a maximum of 2500000 energy evaluations.

Final-Value: -14.998


	FINAL GENETIC ALGORITHM DOCKED STATE
	_______________________________________________


Detailed state:  trans 29.723 -15.691 -1.916 quatxyzw -0.802400 -0.450350 -0.351191 -0.173220 center 0.578 -0.033 0.130 ntor 7 -171.2329 -59.9281 2.1853 170.9614 -137.6629 84.7185 125.0710
State:	 29.723 -15.691  -1.916  -0.815 -0.457 -0.357 -160.050   -171.23  -59.93    2.19  170.96 -137.66   84.72  125.07

DOCKED: MODEL       52
DOCKED: USER    Run = 52
DOCKED: USER    DPF = ligand_dock.biased.dpf
DOCKED: USER  
DOCKED: USER    Estimated Free Energy of Binding    =  -11.10 kcal/mol  [=(1)+(2)+(3)-(4)]
DOCKED: USER    Estimated Inhibition Constant, Ki   =    7.35 nM (nanomolar)  [Temperature = 298.15 K]
DOCKED: USER    
DOCKED: USER    (1) Final Intermolecular Energy     =  -13.18 kcal/mol
DOCKED: USER        vdW + Hbond + desolv Energy     =  -13.18 kcal/mol
DOCKED: USER        Electrostatic Energy            =   +0.00 kcal/mol
DOCKED: USER    (2) Final Total Internal Energy     =   -1.81 kcal/mol
DOCKED: USER    (3) Torsional Free Energy           =   +2.09 kcal/mol
DOCKED: USER    (4) Unbound System's Energy  [=(2)] =   -1.81 kcal/mol
DOCKED: USER    
DOCKED: USER    
DOCKED: USER    NEWDPF move ligand.pdbqt
DOCKED: USER    NEWDPF about 0.578000 -0.033000 0.130000
DOCKED: USER    NEWDPF tran0 29.723340 -15.691169 -1.915813
DOCKED: USER    NEWDPF quaternion0 -0.802400 -0.450350 -0.351191 -0.173220
DOCKED: USER    NEWDPF axisangle0 -0.814716 -0.457262 -0.356581 -160.049878
DOCKED: USER    NEWDPF quat0 -0.814716 -0.457262 -0.356581 -160.049878
DOCKED: USER    NEWDPF dihe0 -171.23 -59.93 2.19 170.96 -137.66 84.72 125.07 
DOCKED: USER  keepresnum = 1 
DOCKED: USER  
DOCKED: REMARK  Name = 
DOCKED: REMARK  8 active torsions:
DOCKED: REMARK  status: ('A' for Active; 'I' for Inactive)
DOCKED: REMARK    1  A    between atoms: C_2  and  C_3
DOCKED: REMARK    2  A    between atoms: C_4  and  C_5
DOCKED: REMARK    3  A    between atoms: C_8  and  C_9
DOCKED: REMARK    4  A    between atoms: C_9  and  N_10
DOCKED: REMARK    5  A    between atoms: N_10  and  C_11
DOCKED: REMARK    6  A    between atoms: C_11  and  C_12
DOCKED: REMARK    7  A    between atoms: C_12  and  C_13
DOCKED: REMARK    8  A    between atoms: C_14  and  C_22
DOCKED: REMARK                            x       y       z     vdW  Elec       q    Type
DOCKED: REMARK                         _______ _______ _______ _____ _____    ______ ____
DOCKED: USER                              x       y       z     vdW  Elec       q    Type
DOCKED: USER                           _______ _______ _______ _____ _____    ______ ____
DOCKED: ROOT
DOCKED: ATOM      1  N   UNL     1      29.694 -15.969  -2.643 -0.15 -0.00    +0.000 N 
DOCKED: ATOM      2  H   UNL     1      30.654 -15.626  -2.695 +0.00 -0.00    +0.000 HD
DOCKED: ATOM      3  H   UNL     1      29.026 -15.250  -2.920 +0.00 -0.00    +0.000 HD
DOCKED: ENDROOT
DOCKED: BRANCH   1   4
DOCKED: ATOM      4  C   UNL     1      29.402 -16.340  -1.252 -0.23 -0.00    +0.000 C 
DOCKED: BRANCH   4   8
DOCKED: ATOM      5  C   UNL     1      25.179 -17.146  -0.780 -0.57 -0.00    +0.000 A 
DOCKED: ATOM      6  C   UNL     1      26.141 -18.008  -0.216 -0.57 -0.00    +0.000 A 
DOCKED: ATOM      7  C   UNL     1      27.506 -17.752  -0.380 -0.27 -0.00    +0.000 A 
DOCKED: ATOM      8  C   UNL     1      27.935 -16.635  -1.112 -0.33 -0.00    +0.000 A 
DOCKED: ATOM      9  C   UNL     1      26.981 -15.757  -1.647 -0.33 -0.00    +0.000 A 
DOCKED: ATOM     10  C   UNL     1      25.617 -16.011  -1.482 -0.47 -0.00    +0.000 A 
DOCKED: BRANCH   5  12
DOCKED: ATOM     11  C   UNL     1      23.004 -18.196  -1.395 -0.71 -0.00    +0.000 C 
DOCKED: ATOM     12  C   UNL     1      23.719 -17.363  -0.623 -0.71 -0.00    +0.000 C 
DOCKED: BRANCH  11  14
DOCKED: ATOM     13  O   UNL     1      20.867 -17.490  -0.708 -2.08 +0.00    +0.000 OA
DOCKED: ATOM     14  C   UNL     1      21.552 -18.409  -1.232 -0.46 -0.00    +0.000 C 
DOCKED: ATOM     15  N   UNL     1      20.905 -19.627  -1.621 -0.75 -0.00    +0.000 N 
DOCKED: ATOM     16  O   UNL     1      19.557 -19.732  -1.551 -2.13 -0.00    +0.000 OA
DOCKED: ATOM     17  H   UNL     1      21.442 -20.387  -1.941 -0.46 -0.00    +0.000 HD
DOCKED: ENDBRANCH  11  14
DOCKED: ENDBRANCH   5  12
DOCKED: ENDBRANCH   4   8
DOCKED: ENDBRANCH   1   4
DOCKED: BRANCH   1  18
DOCKED: ATOM     18  C   UNL     1      29.546 -17.103  -3.568 -0.22 -0.00    +0.000 C 
DOCKED: BRANCH  18  19
DOCKED: ATOM     19  C   UNL     1      29.308 -16.651  -5.017 -0.26 -0.00    +0.000 C 
DOCKED: BRANCH  19  20
DOCKED: ATOM     20  C   UNL     1      28.969 -15.188  -5.060 -0.28 -0.00    +0.000 A 
DOCKED: ATOM     21  C   UNL     1      29.847 -14.119  -5.240 -0.13 -0.00    +0.000 A 
DOCKED: ATOM     22  N   UNL     1      29.190 -12.939  -5.157 -0.10 -0.00    +0.000 N 
DOCKED: ATOM     23  C   UNL     1      27.907 -13.251  -4.904 -0.20 -0.00    +0.000 A 
DOCKED: ATOM     24  C   UNL     1      27.735 -14.611  -4.831 -0.34 -0.00    +0.000 A 
DOCKED: ATOM     25  C   UNL     1      26.490 -15.179  -4.555 -0.50 -0.00    +0.000 A 
DOCKED: ATOM     26  C   UNL     1      25.400 -14.310  -4.360 -0.34 -0.00    +0.000 A 
DOCKED: ATOM     27  C   UNL     1      25.577 -12.912  -4.439 -0.32 -0.00    +0.000 A 
DOCKED: ATOM     28  C   UNL     1      26.846 -12.367  -4.714 -0.23 -0.00    +0.000 A 
DOCKED: ATOM     29  C   UNL     1      31.315 -14.231  -5.508 -0.08 -0.00    +0.000 C 
DOCKED: ATOM     30  H   UNL     1      29.572 -12.037  -5.260 +0.00 -0.00    +0.000 HD
DOCKED: ENDBRANCH  19  20
DOCKED: ENDBRANCH  18  19
DOCKED: ENDBRANCH   1  18
DOCKED: TORSDOF 7
DOCKED: TER
DOCKED: ENDMDL
________________________________________________________________________________


	BEGINNING GENETIC ALGORITHM DOCKING 53 of 100
Run: 53 Seed: 531862945 2107519529 [ Run 53 of 100 GA/GALS ]
Beginning LAMARCKIAN GENETIC ALGORITHM (LGA), with a maximum of 2500000 energy evaluations.

Final-Value: -14.994


	FINAL GENETIC ALGORITHM DOCKED STATE
	_______________________________________________


Detailed state:  trans 27.726 -15.817 -0.017 quatxyzw -0.019066 0.095743 0.792460 0.602060 center 0.578 -0.033 0.130 ntor 7 130.1025 96.3939 50.6171 119.8474 31.1101 -168.2678 40.9254
State:	 27.726 -15.817  -0.017  -0.024  0.120  0.992 105.965    130.10   96.39   50.62  119.85   31.11 -168.27   40.93

DOCKED: MODEL       53
DOCKED: USER    Run = 53
DOCKED: USER    DPF = ligand_dock.biased.dpf
DOCKED: USER  
DOCKED: USER    Estimated Free Energy of Binding    =  -11.81 kcal/mol  [=(1)+(2)+(3)-(4)]
DOCKED: USER    Estimated Inhibition Constant, Ki   =    2.19 nM (nanomolar)  [Temperature = 298.15 K]
DOCKED: USER    
DOCKED: USER    (1) Final Intermolecular Energy     =  -13.90 kcal/mol
DOCKED: USER        vdW + Hbond + desolv Energy     =  -13.90 kcal/mol
DOCKED: USER        Electrostatic Energy            =   +0.00 kcal/mol
DOCKED: USER    (2) Final Total Internal Energy     =   -1.09 kcal/mol
DOCKED: USER    (3) Torsional Free Energy           =   +2.09 kcal/mol
DOCKED: USER    (4) Unbound System's Energy  [=(2)] =   -1.09 kcal/mol
DOCKED: USER    
DOCKED: USER    
DOCKED: USER    NEWDPF move ligand.pdbqt
DOCKED: USER    NEWDPF about 0.578000 -0.033000 0.130000
DOCKED: USER    NEWDPF tran0 27.726091 -15.816682 -0.016850
DOCKED: USER    NEWDPF quaternion0 -0.019066 0.095743 0.792460 0.602060
DOCKED: USER    NEWDPF axisangle0 -0.023879 0.119911 0.992497 105.964822
DOCKED: USER    NEWDPF quat0 -0.023879 0.119911 0.992497 105.964822
DOCKED: USER    NEWDPF dihe0 130.10 96.39 50.62 119.85 31.11 -168.27 40.93 
DOCKED: USER  keepresnum = 1 
DOCKED: USER  
DOCKED: REMARK  Name = 
DOCKED: REMARK  8 active torsions:
DOCKED: REMARK  status: ('A' for Active; 'I' for Inactive)
DOCKED: REMARK    1  A    between atoms: C_2  and  C_3
DOCKED: REMARK    2  A    between atoms: C_4  and  C_5
DOCKED: REMARK    3  A    between atoms: C_8  and  C_9
DOCKED: REMARK    4  A    between atoms: C_9  and  N_10
DOCKED: REMARK    5  A    between atoms: N_10  and  C_11
DOCKED: REMARK    6  A    between atoms: C_11  and  C_12
DOCKED: REMARK    7  A    between atoms: C_12  and  C_13
DOCKED: REMARK    8  A    between atoms: C_14  and  C_22
DOCKED: REMARK                            x       y       z     vdW  Elec       q    Type
DOCKED: REMARK                         _______ _______ _______ _____ _____    ______ ____
DOCKED: USER                              x       y       z     vdW  Elec       q    Type
DOCKED: USER                           _______ _______ _______ _____ _____    ______ ____
DOCKED: ROOT
DOCKED: ATOM      1  N   UNL     1      27.962 -15.129   0.261 -0.26 -0.00    +0.000 N 
DOCKED: ATOM      2  H   UNL     1      28.326 -15.689   1.032 -0.60 -0.00    +0.000 HD
DOCKED: ATOM      3  H   UNL     1      27.000 -14.838   0.434 -0.01 -0.00    +0.000 HD
DOCKED: ENDROOT
DOCKED: BRANCH   1   4
DOCKED: ATOM      4  C   UNL     1      27.971 -15.945  -0.960 -0.32 -0.00    +0.000 C 
DOCKED: BRANCH   4   8
DOCKED: ATOM      5  C   UNL     1      24.260 -18.158  -1.158 -0.68 -0.00    +0.000 A 
DOCKED: ATOM      6  C   UNL     1      25.105 -18.275  -0.037 -0.58 -0.00    +0.000 A 
DOCKED: ATOM      7  C   UNL     1      26.310 -17.567   0.020 -0.49 -0.00    +0.000 A 
DOCKED: ATOM      8  C   UNL     1      26.695 -16.735  -1.041 -0.44 -0.00    +0.000 A 
DOCKED: ATOM      9  C   UNL     1      25.842 -16.591  -2.145 -0.47 -0.00    +0.000 A 
DOCKED: ATOM     10  C   UNL     1      24.636 -17.296  -2.202 -0.43 -0.00    +0.000 A 
DOCKED: BRANCH   5  12
DOCKED: ATOM     11  C   UNL     1      21.869 -18.534  -0.565 -0.85 -0.00    +0.000 C 
DOCKED: ATOM     12  C   UNL     1      22.964 -18.874  -1.262 -0.79 -0.00    +0.000 C 
DOCKED: BRANCH  11  14
DOCKED: ATOM     13  O   UNL     1      20.264 -19.745  -1.788 -2.35 -0.00    +0.000 OA
DOCKED: ATOM     14  C   UNL     1      20.582 -19.251  -0.674 -0.90 -0.00    +0.000 C 
DOCKED: ATOM     15  N   UNL     1      19.677 -19.377   0.430 -0.70 -0.00    +0.000 N 
DOCKED: ATOM     16  O   UNL     1      18.561 -20.134   0.310 -0.89 -0.00    +0.000 OA
DOCKED: ATOM     17  H   UNL     1      19.868 -18.913   1.277 -0.26 -0.00    +0.000 HD
DOCKED: ENDBRANCH  11  14
DOCKED: ENDBRANCH   5  12
DOCKED: ENDBRANCH   4   8
DOCKED: ENDBRANCH   1   4
DOCKED: BRANCH   1  18
DOCKED: ATOM     18  C   UNL     1      28.782 -13.915   0.129 -0.14 -0.00    +0.000 C 
DOCKED: BRANCH  18  19
DOCKED: ATOM     19  C   UNL     1      30.204 -14.104   0.678 -0.10 -0.00    +0.000 C 
DOCKED: BRANCH  19  20
DOCKED: ATOM     20  C   UNL     1      30.164 -14.354   2.159 -0.14 -0.00    +0.000 A 
DOCKED: ATOM     21  C   UNL     1      30.959 -15.236   2.892 -0.12 -0.00    +0.000 A 
DOCKED: ATOM     22  N   UNL     1      30.594 -15.240   4.195 -0.32 -0.00    +0.000 N 
DOCKED: ATOM     23  C   UNL     1      29.561 -14.386   4.289 -0.35 -0.00    +0.000 A 
DOCKED: ATOM     24  C   UNL     1      29.266 -13.831   3.069 -0.22 -0.00    +0.000 A 
DOCKED: ATOM     25  C   UNL     1      28.214 -12.927   2.909 -0.24 -0.00    +0.000 A 
DOCKED: ATOM     26  C   UNL     1      27.461 -12.588   4.047 -0.24 +0.00    +0.000 A 
DOCKED: ATOM     27  C   UNL     1      27.767 -13.155   5.304 -0.44 -0.00    +0.000 A 
DOCKED: ATOM     28  C   UNL     1      28.830 -14.068   5.433 -0.39 -0.00    +0.000 A 
DOCKED: ATOM     29  C   UNL     1      32.080 -16.063   2.344 -0.21 -0.00    +0.000 C 
DOCKED: ATOM     30  H   UNL     1      31.000 -15.763   4.924 +0.03 -0.00    +0.000 HD
DOCKED: ENDBRANCH  19  20
DOCKED: ENDBRANCH  18  19
DOCKED: ENDBRANCH   1  18
DOCKED: TORSDOF 7
DOCKED: TER
DOCKED: ENDMDL
________________________________________________________________________________


	BEGINNING GENETIC ALGORITHM DOCKING 54 of 100
Run: 54 Seed: 1722147748 201491614 [ Run 54 of 100 GA/GALS ]
Beginning LAMARCKIAN GENETIC ALGORITHM (LGA), with a maximum of 2500000 energy evaluations.

Final-Value: -15.246


	FINAL GENETIC ALGORITHM DOCKED STATE
	_______________________________________________


Detailed state:  trans 28.977 -16.808 -1.182 quatxyzw 0.061353 -0.467191 0.145320 0.869971 center 0.578 -0.033 0.130 ntor 7 -67.2473 138.8446 179.5900 12.2202 -151.3626 173.1234 147.9691
State:	 28.977 -16.808  -1.182   0.124 -0.947  0.295 59.089    -67.25  138.84  179.59   12.22 -151.36  173.12  147.97

DOCKED: MODEL       54
DOCKED: USER    Run = 54
DOCKED: USER    DPF = ligand_dock.biased.dpf
DOCKED: USER  
DOCKED: USER    Estimated Free Energy of Binding    =  -11.99 kcal/mol  [=(1)+(2)+(3)-(4)]
DOCKED: USER    Estimated Inhibition Constant, Ki   =    1.64 nM (nanomolar)  [Temperature = 298.15 K]
DOCKED: USER    
DOCKED: USER    (1) Final Intermolecular Energy     =  -14.07 kcal/mol
DOCKED: USER        vdW + Hbond + desolv Energy     =  -14.07 kcal/mol
DOCKED: USER        Electrostatic Energy            =   +0.00 kcal/mol
DOCKED: USER    (2) Final Total Internal Energy     =   -1.17 kcal/mol
DOCKED: USER    (3) Torsional Free Energy           =   +2.09 kcal/mol
DOCKED: USER    (4) Unbound System's Energy  [=(2)] =   -1.17 kcal/mol
DOCKED: USER    
DOCKED: USER    
DOCKED: USER    NEWDPF move ligand.pdbqt
DOCKED: USER    NEWDPF about 0.578000 -0.033000 0.130000
DOCKED: USER    NEWDPF tran0 28.977003 -16.807750 -1.182158
DOCKED: USER    NEWDPF quaternion0 0.061353 -0.467191 0.145320 0.869971
DOCKED: USER    NEWDPF axisangle0 0.124422 -0.947453 0.294706 59.089403
DOCKED: USER    NEWDPF quat0 0.124422 -0.947453 0.294706 59.089403
DOCKED: USER    NEWDPF dihe0 -67.25 138.84 179.59 12.22 -151.36 173.12 147.97 
DOCKED: USER  keepresnum = 1 
DOCKED: USER  
DOCKED: REMARK  Name = 
DOCKED: REMARK  8 active torsions:
DOCKED: REMARK  status: ('A' for Active; 'I' for Inactive)
DOCKED: REMARK    1  A    between atoms: C_2  and  C_3
DOCKED: REMARK    2  A    between atoms: C_4  and  C_5
DOCKED: REMARK    3  A    between atoms: C_8  and  C_9
DOCKED: REMARK    4  A    between atoms: C_9  and  N_10
DOCKED: REMARK    5  A    between atoms: N_10  and  C_11
DOCKED: REMARK    6  A    between atoms: C_11  and  C_12
DOCKED: REMARK    7  A    between atoms: C_12  and  C_13
DOCKED: REMARK    8  A    between atoms: C_14  and  C_22
DOCKED: REMARK                            x       y       z     vdW  Elec       q    Type
DOCKED: REMARK                         _______ _______ _______ _____ _____    ______ ____
DOCKED: USER                              x       y       z     vdW  Elec       q    Type
DOCKED: USER                           _______ _______ _______ _____ _____    ______ ____
DOCKED: ROOT
DOCKED: ATOM      1  N   UNL     1      28.903 -16.509  -0.467 -0.25 -0.00    +0.000 N 
DOCKED: ATOM      2  H   UNL     1      29.811 -16.089  -0.667 -0.01 -0.00    +0.000 HD
DOCKED: ATOM      3  H   UNL     1      29.003 -17.430  -0.042 -0.42 -0.00    +0.000 HD
DOCKED: ENDROOT
DOCKED: BRANCH   1   4
DOCKED: ATOM      4  C   UNL     1      28.173 -16.676  -1.731 -0.34 -0.00    +0.000 C 
DOCKED: BRANCH   4   8
DOCKED: ATOM      5  C   UNL     1      24.011 -17.565  -0.955 -0.67 -0.00    +0.000 A 
DOCKED: ATOM      6  C   UNL     1      24.374 -16.433  -1.713 -0.41 -0.00    +0.000 A 
DOCKED: ATOM      7  C   UNL     1      25.720 -16.142  -1.953 -0.48 -0.00    +0.000 A 
DOCKED: ATOM      8  C   UNL     1      26.728 -16.970  -1.438 -0.43 -0.00    +0.000 A 
DOCKED: ATOM      9  C   UNL     1      26.371 -18.114  -0.710 -0.51 -0.00    +0.000 A 
DOCKED: ATOM     10  C   UNL     1      25.025 -18.407  -0.471 -0.60 -0.00    +0.000 A 
DOCKED: BRANCH   5  12
DOCKED: ATOM     11  C   UNL     1      22.020 -19.052  -1.134 -0.80 -0.00    +0.000 C 
DOCKED: ATOM     12  C   UNL     1      22.598 -17.928  -0.685 -0.82 -0.00    +0.000 C 
DOCKED: BRANCH  11  14
DOCKED: ATOM     13  O   UNL     1      19.879 -19.736  -1.830 -2.40 -0.00    +0.000 OA
DOCKED: ATOM     14  C   UNL     1      20.613 -19.408  -0.861 -0.90 -0.00    +0.000 C 
DOCKED: ATOM     15  N   UNL     1      20.052 -19.363   0.457 -0.70 -0.00    +0.000 N 
DOCKED: ATOM     16  O   UNL     1      18.789 -19.800   0.672 -0.81 -0.00    +0.000 OA
DOCKED: ATOM     17  H   UNL     1      20.587 -19.015   1.207 -0.19 -0.00    +0.000 HD
DOCKED: ENDBRANCH  11  14
DOCKED: ENDBRANCH   5  12
DOCKED: ENDBRANCH   4   8
DOCKED: ENDBRANCH   1   4
DOCKED: BRANCH   1  18
DOCKED: ATOM     18  C   UNL     1      28.183 -15.649   0.486 -0.12 -0.00    +0.000 C 
DOCKED: BRANCH  18  19
DOCKED: ATOM     19  C   UNL     1      28.922 -14.330   0.760 -0.19 -0.00    +0.000 C 
DOCKED: BRANCH  19  20
DOCKED: ATOM     20  C   UNL     1      28.252 -13.579   1.876 -0.21 -0.00    +0.000 A 
DOCKED: ATOM     21  C   UNL     1      27.223 -12.643   1.770 -0.26 -0.00    +0.000 A 
DOCKED: ATOM     22  N   UNL     1      26.919 -12.125   2.983 -0.28 +0.00    +0.000 N 
DOCKED: ATOM     23  C   UNL     1      27.762 -12.708   3.852 -0.33 -0.00    +0.000 A 
DOCKED: ATOM     24  C   UNL     1      28.593 -13.595   3.215 -0.28 -0.00    +0.000 A 
DOCKED: ATOM     25  C   UNL     1      29.573 -14.309   3.907 -0.31 -0.00    +0.000 A 
DOCKED: ATOM     26  C   UNL     1      29.682 -14.101   5.294 -0.32 -0.00    +0.000 A 
DOCKED: ATOM     27  C   UNL     1      28.823 -13.192   5.950 -0.38 -0.00    +0.000 A 
DOCKED: ATOM     28  C   UNL     1      27.848 -12.482   5.225 -0.38 +0.00    +0.000 A 
DOCKED: ATOM     29  C   UNL     1      26.520 -12.257   0.507 -0.28 -0.00    +0.000 C 
DOCKED: ATOM     30  H   UNL     1      26.224 -11.457   3.187 -0.02 +0.00    +0.000 HD
DOCKED: ENDBRANCH  19  20
DOCKED: ENDBRANCH  18  19
DOCKED: ENDBRANCH   1  18
DOCKED: TORSDOF 7
DOCKED: TER
DOCKED: ENDMDL
________________________________________________________________________________


	BEGINNING GENETIC ALGORITHM DOCKING 55 of 100
Run: 55 Seed: 458986465 1530921849 [ Run 55 of 100 GA/GALS ]
Beginning LAMARCKIAN GENETIC ALGORITHM (LGA), with a maximum of 2500000 energy evaluations.

Final-Value: -16.139


	FINAL GENETIC ALGORITHM DOCKED STATE
	_______________________________________________


Detailed state:  trans 28.213 -15.998 0.798 quatxyzw 0.118719 -0.132659 0.364433 0.914055 center 0.578 -0.033 0.130 ntor 7 -179.9547 -113.1708 158.9874 74.4519 -159.0396 -179.9558 119.4126
State:	 28.213 -15.998   0.798   0.293 -0.327  0.899 47.856   -179.95 -113.17  158.99   74.45 -159.04 -179.96  119.41

DOCKED: MODEL       55
DOCKED: USER    Run = 55
DOCKED: USER    DPF = ligand_dock.biased.dpf
DOCKED: USER  
DOCKED: USER    Estimated Free Energy of Binding    =  -12.96 kcal/mol  [=(1)+(2)+(3)-(4)]
DOCKED: USER    Estimated Inhibition Constant, Ki   =  313.98 pM (picomolar)  [Temperature = 298.15 K]
DOCKED: USER    
DOCKED: USER    (1) Final Intermolecular Energy     =  -15.05 kcal/mol
DOCKED: USER        vdW + Hbond + desolv Energy     =  -15.05 kcal/mol
DOCKED: USER        Electrostatic Energy            =   +0.00 kcal/mol
DOCKED: USER    (2) Final Total Internal Energy     =   -1.09 kcal/mol
DOCKED: USER    (3) Torsional Free Energy           =   +2.09 kcal/mol
DOCKED: USER    (4) Unbound System's Energy  [=(2)] =   -1.09 kcal/mol
DOCKED: USER    
DOCKED: USER    
DOCKED: USER    NEWDPF move ligand.pdbqt
DOCKED: USER    NEWDPF about 0.578000 -0.033000 0.130000
DOCKED: USER    NEWDPF tran0 28.213303 -15.997607 0.798359
DOCKED: USER    NEWDPF quaternion0 0.118719 -0.132659 0.364433 0.914055
DOCKED: USER    NEWDPF axisangle0 0.292706 -0.327076 0.898524 47.856261
DOCKED: USER    NEWDPF quat0 0.292706 -0.327076 0.898524 47.856261
DOCKED: USER    NEWDPF dihe0 -179.95 -113.17 158.99 74.45 -159.04 -179.96 119.41 
DOCKED: USER  keepresnum = 1 
DOCKED: USER  
DOCKED: REMARK  Name = 
DOCKED: REMARK  8 active torsions:
DOCKED: REMARK  status: ('A' for Active; 'I' for Inactive)
DOCKED: REMARK    1  A    between atoms: C_2  and  C_3
DOCKED: REMARK    2  A    between atoms: C_4  and  C_5
DOCKED: REMARK    3  A    between atoms: C_8  and  C_9
DOCKED: REMARK    4  A    between atoms: C_9  and  N_10
DOCKED: REMARK    5  A    between atoms: N_10  and  C_11
DOCKED: REMARK    6  A    between atoms: C_11  and  C_12
DOCKED: REMARK    7  A    between atoms: C_12  and  C_13
DOCKED: REMARK    8  A    between atoms: C_14  and  C_22
DOCKED: REMARK                            x       y       z     vdW  Elec       q    Type
DOCKED: REMARK                         _______ _______ _______ _____ _____    ______ ____
DOCKED: USER                              x       y       z     vdW  Elec       q    Type
DOCKED: USER                           _______ _______ _______ _____ _____    ______ ____
DOCKED: ROOT
DOCKED: ATOM      1  N   UNL     1      27.892 -15.402   1.184 -0.10 -0.00    +0.000 N 
DOCKED: ATOM      2  H   UNL     1      28.848 -15.235   1.500 -1.13 -0.00    +0.000 HD
DOCKED: ATOM      3  H   UNL     1      27.398 -16.038   1.810 -0.41 -0.00    +0.000 HD
DOCKED: ENDROOT
DOCKED: BRANCH   1   4
DOCKED: ATOM      4  C   UNL     1      27.939 -16.027  -0.145 -0.31 -0.00    +0.000 C 
DOCKED: BRANCH   4   8
DOCKED: ATOM      5  C   UNL     1      24.095 -17.742  -1.138 -0.67 -0.00    +0.000 A 
DOCKED: ATOM      6  C   UNL     1      24.600 -16.646  -1.865 -0.50 -0.00    +0.000 A 
DOCKED: ATOM      7  C   UNL     1      25.838 -16.085  -1.535 -0.46 -0.00    +0.000 A 
DOCKED: ATOM      8  C   UNL     1      26.591 -16.606  -0.472 -0.43 -0.00    +0.000 A 
DOCKED: ATOM      9  C   UNL     1      26.107 -17.717   0.234 -0.35 -0.00    +0.000 A 
DOCKED: ATOM     10  C   UNL     1      24.870 -18.278  -0.098 -0.59 -0.00    +0.000 A 
DOCKED: BRANCH   5  12
DOCKED: ATOM     11  C   UNL     1      21.895 -18.742  -0.529 -0.84 -0.00    +0.000 C 
DOCKED: ATOM     12  C   UNL     1      22.795 -18.383  -1.458 -0.68 -0.00    +0.000 C 
DOCKED: BRANCH  11  14
DOCKED: ATOM     13  O   UNL     1      20.456 -19.885  -1.999 -2.16 -0.00    +0.000 OA
DOCKED: ATOM     14  C   UNL     1      20.603 -19.379  -0.855 -0.90 -0.00    +0.000 C 
DOCKED: ATOM     15  N   UNL     1      19.509 -19.415   0.071 -0.76 -0.00    +0.000 N 
DOCKED: ATOM     16  O   UNL     1      18.384 -20.102  -0.234 -1.02 -0.00    +0.000 OA
DOCKED: ATOM     17  H   UNL     1      19.578 -18.938   0.930 -0.24 -0.00    +0.000 HD
DOCKED: ENDBRANCH  11  14
DOCKED: ENDBRANCH   5  12
DOCKED: ENDBRANCH   4   8
DOCKED: ENDBRANCH   1   4
DOCKED: BRANCH   1  18
DOCKED: ATOM     18  C   UNL     1      27.166 -14.123   1.175 -0.27 -0.00    +0.000 C 
DOCKED: BRANCH  18  19
DOCKED: ATOM     19  C   UNL     1      28.104 -12.914   1.308 -0.20 -0.00    +0.000 C 
DOCKED: BRANCH  19  20
DOCKED: ATOM     20  C   UNL     1      27.934 -12.264   2.652 -0.21 -0.00    +0.000 A 
DOCKED: ATOM     21  C   UNL     1      27.365 -11.020   2.926 -0.26 +0.00    +0.000 A 
DOCKED: ATOM     22  N   UNL     1      27.443 -10.738   4.248 -0.35 +0.00    +0.000 N 
DOCKED: ATOM     23  C   UNL     1      28.076 -11.783   4.809 -0.32 +0.00    +0.000 A 
DOCKED: ATOM     24  C   UNL     1      28.397 -12.729   3.868 -0.27 -0.00    +0.000 A 
DOCKED: ATOM     25  C   UNL     1      29.079 -13.898   4.207 -0.35 -0.00    +0.000 A 
DOCKED: ATOM     26  C   UNL     1      29.428 -14.088   5.557 -0.27 -0.00    +0.000 A 
DOCKED: ATOM     27  C   UNL     1      29.093 -13.116   6.525 -0.36 -0.00    +0.000 A 
DOCKED: ATOM     28  C   UNL     1      28.409 -11.944   6.153 -0.35 +0.00    +0.000 A 
DOCKED: ATOM     29  C   UNL     1      26.732 -10.108   1.922 -0.23 +0.00    +0.000 C 
DOCKED: ATOM     30  H   UNL     1      27.106  -9.933   4.704 -0.07 +0.00    +0.000 HD
DOCKED: ENDBRANCH  19  20
DOCKED: ENDBRANCH  18  19
DOCKED: ENDBRANCH   1  18
DOCKED: TORSDOF 7
DOCKED: TER
DOCKED: ENDMDL
________________________________________________________________________________


	BEGINNING GENETIC ALGORITHM DOCKING 56 of 100
Run: 56 Seed: 2094108052 821540885 [ Run 56 of 100 GA/GALS ]
Beginning LAMARCKIAN GENETIC ALGORITHM (LGA), with a maximum of 2500000 energy evaluations.

Final-Value: -14.871


	FINAL GENETIC ALGORITHM DOCKED STATE
	_______________________________________________


Detailed state:  trans 28.856 -15.073 -1.379 quatxyzw -0.389183 0.570063 0.606094 -0.395239 center 0.578 -0.033 0.130 ntor 7 143.0162 180.0000 -14.0610 82.9728 -180.0000 -161.3269 -82.2361
State:	 28.856 -15.073  -1.379  -0.424  0.621  0.660 -133.438    143.02  180.00  -14.06   82.97 -180.00 -161.33  -82.24

DOCKED: MODEL       56
DOCKED: USER    Run = 56
DOCKED: USER    DPF = ligand_dock.biased.dpf
DOCKED: USER  
DOCKED: USER    Estimated Free Energy of Binding    =  -11.51 kcal/mol  [=(1)+(2)+(3)-(4)]
DOCKED: USER    Estimated Inhibition Constant, Ki   =    3.63 nM (nanomolar)  [Temperature = 298.15 K]
DOCKED: USER    
DOCKED: USER    (1) Final Intermolecular Energy     =  -13.60 kcal/mol
DOCKED: USER        vdW + Hbond + desolv Energy     =  -13.60 kcal/mol
DOCKED: USER        Electrostatic Energy            =   +0.00 kcal/mol
DOCKED: USER    (2) Final Total Internal Energy     =   -1.27 kcal/mol
DOCKED: USER    (3) Torsional Free Energy           =   +2.09 kcal/mol
DOCKED: USER    (4) Unbound System's Energy  [=(2)] =   -1.27 kcal/mol
DOCKED: USER    
DOCKED: USER    
DOCKED: USER    NEWDPF move ligand.pdbqt
DOCKED: USER    NEWDPF about 0.578000 -0.033000 0.130000
DOCKED: USER    NEWDPF tran0 28.855752 -15.072780 -1.378535
DOCKED: USER    NEWDPF quaternion0 -0.389183 0.570063 0.606094 -0.395239
DOCKED: USER    NEWDPF axisangle0 -0.423680 0.620593 0.659818 -133.438180
DOCKED: USER    NEWDPF quat0 -0.423680 0.620593 0.659818 -133.438180
DOCKED: USER    NEWDPF dihe0 143.02 180.00 -14.06 82.97 -180.00 -161.33 -82.24 
DOCKED: USER  keepresnum = 1 
DOCKED: USER  
DOCKED: REMARK  Name = 
DOCKED: REMARK  8 active torsions:
DOCKED: REMARK  status: ('A' for Active; 'I' for Inactive)
DOCKED: REMARK    1  A    between atoms: C_2  and  C_3
DOCKED: REMARK    2  A    between atoms: C_4  and  C_5
DOCKED: REMARK    3  A    between atoms: C_8  and  C_9
DOCKED: REMARK    4  A    between atoms: C_9  and  N_10
DOCKED: REMARK    5  A    between atoms: N_10  and  C_11
DOCKED: REMARK    6  A    between atoms: C_11  and  C_12
DOCKED: REMARK    7  A    between atoms: C_12  and  C_13
DOCKED: REMARK    8  A    between atoms: C_14  and  C_22
DOCKED: REMARK                            x       y       z     vdW  Elec       q    Type
DOCKED: REMARK                         _______ _______ _______ _____ _____    ______ ____
DOCKED: USER                              x       y       z     vdW  Elec       q    Type
DOCKED: USER                           _______ _______ _______ _____ _____    ______ ____
DOCKED: ROOT
DOCKED: ATOM      1  N   UNL     1      29.029 -14.775  -0.681 -0.13 -0.00    +0.000 N 
DOCKED: ATOM      2  H   UNL     1      28.246 -14.150  -0.874 +0.00 -0.00    +0.000 HD
DOCKED: ATOM      3  H   UNL     1      29.907 -14.392  -1.032 +0.00 -0.00    +0.000 HD
DOCKED: ENDROOT
DOCKED: BRANCH   1   4
DOCKED: ATOM      4  C   UNL     1      28.792 -16.053  -1.364 -0.25 -0.00    +0.000 C 
DOCKED: BRANCH   4   8
DOCKED: ATOM      5  C   UNL     1      24.585 -17.052  -1.284 -0.60 -0.00    +0.000 A 
DOCKED: ATOM      6  C   UNL     1      25.133 -16.344  -2.372 -0.49 -0.00    +0.000 A 
DOCKED: ATOM      7  C   UNL     1      26.492 -16.012  -2.390 -0.40 -0.00    +0.000 A 
DOCKED: ATOM      8  C   UNL     1      27.325 -16.376  -1.323 -0.35 -0.00    +0.000 A 
DOCKED: ATOM      9  C   UNL     1      26.791 -17.109  -0.254 -0.46 -0.00    +0.000 A 
DOCKED: ATOM     10  C   UNL     1      25.433 -17.444  -0.236 -0.49 -0.00    +0.000 A 
DOCKED: BRANCH   5  12
DOCKED: ATOM     11  C   UNL     1      22.692 -18.458  -0.477 -0.83 -0.00    +0.000 C 
DOCKED: ATOM     12  C   UNL     1      23.155 -17.443  -1.223 -0.62 -0.00    +0.000 C 
DOCKED: BRANCH  11  14
DOCKED: ATOM     13  O   UNL     1      20.404 -17.990  -0.767 -2.23 -0.00    +0.000 OA
DOCKED: ATOM     14  C   UNL     1      21.267 -18.841  -0.420 -0.84 -0.00    +0.000 C 
DOCKED: ATOM     15  N   UNL     1      20.834 -20.127   0.039 -0.67 -0.00    +0.000 N 
DOCKED: ATOM     16  O   UNL     1      19.526 -20.467  -0.028 -1.17 -0.00    +0.000 OA
DOCKED: ATOM     17  H   UNL     1      21.490 -20.764   0.403 -0.60 -0.00    +0.000 HD
DOCKED: ENDBRANCH  11  14
DOCKED: ENDBRANCH   5  12
DOCKED: ENDBRANCH   4   8
DOCKED: ENDBRANCH   1   4
DOCKED: BRANCH   1  18
DOCKED: ATOM     18  C   UNL     1      29.159 -14.934   0.776 -0.15 -0.00    +0.000 C 
DOCKED: BRANCH  18  19
DOCKED: ATOM     19  C   UNL     1      27.805 -14.857   1.498 -0.20 -0.00    +0.000 C 
DOCKED: BRANCH  19  20
DOCKED: ATOM     20  C   UNL     1      27.620 -13.503   2.122 -0.27 -0.00    +0.000 A 
DOCKED: ATOM     21  C   UNL     1      27.282 -12.312   1.479 -0.23 -0.00    +0.000 A 
DOCKED: ATOM     22  N   UNL     1      27.269 -11.281   2.355 -0.26 +0.00    +0.000 N 
DOCKED: ATOM     23  C   UNL     1      27.619 -11.804   3.542 -0.25 +0.00    +0.000 A 
DOCKED: ATOM     24  C   UNL     1      27.847 -13.154   3.439 -0.33 -0.00    +0.000 A 
DOCKED: ATOM     25  C   UNL     1      28.245 -13.916   4.538 -0.48 -0.00    +0.000 A 
DOCKED: ATOM     26  C   UNL     1      28.400 -13.259   5.773 -0.40 -0.00    +0.000 A 
DOCKED: ATOM     27  C   UNL     1      28.161 -11.872   5.880 -0.36 +0.00    +0.000 A 
DOCKED: ATOM     28  C   UNL     1      27.766 -11.127   4.752 -0.34 +0.00    +0.000 A 
DOCKED: ATOM     29  C   UNL     1      26.954 -12.167   0.026 -0.21 -0.00    +0.000 C 
DOCKED: ATOM     30  H   UNL     1      27.050 -10.340   2.162 -0.01 +0.00    +0.000 HD
DOCKED: ENDBRANCH  19  20
DOCKED: ENDBRANCH  18  19
DOCKED: ENDBRANCH   1  18
DOCKED: TORSDOF 7
DOCKED: TER
DOCKED: ENDMDL
________________________________________________________________________________


	BEGINNING GENETIC ALGORITHM DOCKING 57 of 100
Run: 57 Seed: 1263199729 105429714 [ Run 57 of 100 GA/GALS ]
Beginning LAMARCKIAN GENETIC ALGORITHM (LGA), with a maximum of 2500000 energy evaluations.

Final-Value: -14.635


	FINAL GENETIC ALGORITHM DOCKED STATE
	_______________________________________________


Detailed state:  trans 28.840 -15.785 -0.423 quatxyzw 0.098770 -0.298810 -0.946494 0.071457 center 0.578 -0.033 0.130 ntor 7 -180.0000 -180.0000 -160.4925 171.0282 -178.3853 109.1482 -26.7803
State:	 28.840 -15.785  -0.423   0.099 -0.300 -0.949 171.805   -180.00 -180.00 -160.49  171.03 -178.39  109.15  -26.78

DOCKED: MODEL       57
DOCKED: USER    Run = 57
DOCKED: USER    DPF = ligand_dock.biased.dpf
DOCKED: USER  
DOCKED: USER    Estimated Free Energy of Binding    =  -11.23 kcal/mol  [=(1)+(2)+(3)-(4)]
DOCKED: USER    Estimated Inhibition Constant, Ki   =    5.88 nM (nanomolar)  [Temperature = 298.15 K]
DOCKED: USER    
DOCKED: USER    (1) Final Intermolecular Energy     =  -13.32 kcal/mol
DOCKED: USER        vdW + Hbond + desolv Energy     =  -13.32 kcal/mol
DOCKED: USER        Electrostatic Energy            =   +0.00 kcal/mol
DOCKED: USER    (2) Final Total Internal Energy     =   -1.32 kcal/mol
DOCKED: USER    (3) Torsional Free Energy           =   +2.09 kcal/mol
DOCKED: USER    (4) Unbound System's Energy  [=(2)] =   -1.32 kcal/mol
DOCKED: USER    
DOCKED: USER    
DOCKED: USER    NEWDPF move ligand.pdbqt
DOCKED: USER    NEWDPF about 0.578000 -0.033000 0.130000
DOCKED: USER    NEWDPF tran0 28.840152 -15.785279 -0.422717
DOCKED: USER    NEWDPF quaternion0 0.098770 -0.298810 -0.946494 0.071457
DOCKED: USER    NEWDPF axisangle0 0.099023 -0.299576 -0.948920 171.804659
DOCKED: USER    NEWDPF quat0 0.099023 -0.299576 -0.948920 171.804659
DOCKED: USER    NEWDPF dihe0 -180.00 -180.00 -160.49 171.03 -178.39 109.15 -26.78 
DOCKED: USER  keepresnum = 1 
DOCKED: USER  
DOCKED: REMARK  Name = 
DOCKED: REMARK  8 active torsions:
DOCKED: REMARK  status: ('A' for Active; 'I' for Inactive)
DOCKED: REMARK    1  A    between atoms: C_2  and  C_3
DOCKED: REMARK    2  A    between atoms: C_4  and  C_5
DOCKED: REMARK    3  A    between atoms: C_8  and  C_9
DOCKED: REMARK    4  A    between atoms: C_9  and  N_10
DOCKED: REMARK    5  A    between atoms: N_10  and  C_11
DOCKED: REMARK    6  A    between atoms: C_11  and  C_12
DOCKED: REMARK    7  A    between atoms: C_12  and  C_13
DOCKED: REMARK    8  A    between atoms: C_14  and  C_22
DOCKED: REMARK                            x       y       z     vdW  Elec       q    Type
DOCKED: REMARK                         _______ _______ _______ _____ _____    ______ ____
DOCKED: USER                              x       y       z     vdW  Elec       q    Type
DOCKED: USER                           _______ _______ _______ _____ _____    ______ ____
DOCKED: ROOT
DOCKED: ATOM      1  N   UNL     1      29.454 -15.727   0.053 -0.18 -0.00    +0.000 N 
DOCKED: ATOM      2  H   UNL     1      28.754 -15.830   0.789 -0.59 -0.00    +0.000 HD
DOCKED: ATOM      3  H   UNL     1      29.590 -14.748  -0.197 -0.00 -0.00    +0.000 HD
DOCKED: ENDROOT
DOCKED: BRANCH   1   4
DOCKED: ATOM      4  C   UNL     1      28.985 -16.435  -1.145 -0.27 -0.00    +0.000 C 
DOCKED: BRANCH   4   8
DOCKED: ATOM      5  C   UNL     1      24.716 -17.099  -0.936 -0.59 -0.00    +0.000 A 
DOCKED: ATOM      6  C   UNL     1      25.234 -15.970  -1.601 -0.47 -0.00    +0.000 A 
DOCKED: ATOM      7  C   UNL     1      26.614 -15.752  -1.657 -0.36 -0.00    +0.000 A 
DOCKED: ATOM      8  C   UNL     1      27.500 -16.652  -1.048 -0.37 -0.00    +0.000 A 
DOCKED: ATOM      9  C   UNL     1      26.991 -17.793  -0.413 -0.47 -0.00    +0.000 A 
DOCKED: ATOM     10  C   UNL     1      25.612 -18.014  -0.358 -0.61 -0.00    +0.000 A 
DOCKED: BRANCH   5  12
DOCKED: ATOM     11  C   UNL     1      22.756 -18.612  -0.652 -0.83 -0.00    +0.000 C 
DOCKED: ATOM     12  C   UNL     1      23.262 -17.386  -0.860 -0.74 -0.00    +0.000 C 
DOCKED: BRANCH  11  14
DOCKED: ATOM     13  O   UNL     1      20.507 -18.023  -1.021 -2.18 -0.00    +0.000 OA
DOCKED: ATOM     14  C   UNL     1      21.307 -18.890  -0.577 -0.86 -0.00    +0.000 C 
DOCKED: ATOM     15  N   UNL     1      20.784 -20.090   0.006 -0.69 -0.00    +0.000 N 
DOCKED: ATOM     16  O   UNL     1      19.456 -20.347  -0.045 -1.18 -0.00    +0.000 OA
DOCKED: ATOM     17  H   UNL     1      21.393 -20.728   0.444 -0.61 -0.00    +0.000 HD
DOCKED: ENDBRANCH  11  14
DOCKED: ENDBRANCH   5  12
DOCKED: ENDBRANCH   4   8
DOCKED: ENDBRANCH   1   4
DOCKED: BRANCH   1  18
DOCKED: ATOM     18  C   UNL     1      30.738 -16.249   0.545 -0.07 -0.00    +0.000 C 
DOCKED: BRANCH  18  19
DOCKED: ATOM     19  C   UNL     1      31.204 -15.546   1.830 -0.11 -0.00    +0.000 C 
DOCKED: BRANCH  19  20
DOCKED: ATOM     20  C   UNL     1      30.396 -14.301   2.068 -0.13 -0.00    +0.000 A 
DOCKED: ATOM     21  C   UNL     1      30.428 -13.116   1.332 -0.05 -0.00    +0.000 A 
DOCKED: ATOM     22  N   UNL     1      29.609 -12.189   1.882 -0.07 -0.00    +0.000 N 
DOCKED: ATOM     23  C   UNL     1      29.078 -12.769   2.971 -0.15 -0.00    +0.000 A 
DOCKED: ATOM     24  C   UNL     1      29.538 -14.053   3.122 -0.23 -0.00    +0.000 A 
DOCKED: ATOM     25  C   UNL     1      29.144 -14.853   4.196 -0.34 -0.00    +0.000 A 
DOCKED: ATOM     26  C   UNL     1      28.244 -14.304   5.128 -0.46 -0.00    +0.000 A 
DOCKED: ATOM     27  C   UNL     1      27.766 -12.985   4.970 -0.43 -0.00    +0.000 A 
DOCKED: ATOM     28  C   UNL     1      28.186 -12.200   3.880 -0.26 -0.00    +0.000 A 
DOCKED: ATOM     29  C   UNL     1      31.231 -12.879   0.092 -0.02 -0.00    +0.000 C 
DOCKED: ATOM     30  H   UNL     1      29.439 -11.277   1.552 +0.00 -0.00    +0.000 HD
DOCKED: ENDBRANCH  19  20
DOCKED: ENDBRANCH  18  19
DOCKED: ENDBRANCH   1  18
DOCKED: TORSDOF 7
DOCKED: TER
DOCKED: ENDMDL
________________________________________________________________________________


	BEGINNING GENETIC ALGORITHM DOCKING 58 of 100
Run: 58 Seed: 1091051937 858839992 [ Run 58 of 100 GA/GALS ]
Beginning LAMARCKIAN GENETIC ALGORITHM (LGA), with a maximum of 2500000 energy evaluations.

Final-Value: -15.997


	FINAL GENETIC ALGORITHM DOCKED STATE
	_______________________________________________


Detailed state:  trans 28.459 -16.056 -0.001 quatxyzw -0.134783 0.235064 -0.236743 -0.933022 center 0.578 -0.033 0.130 ntor 7 137.6306 96.6464 148.7386 65.2390 38.2923 180.0000 124.6739
State:	 28.459 -16.056  -0.001  -0.375  0.653 -0.658 -42.178    137.63   96.65  148.74   65.24   38.29  180.00  124.67

DOCKED: MODEL       58
DOCKED: USER    Run = 58
DOCKED: USER    DPF = ligand_dock.biased.dpf
DOCKED: USER  
DOCKED: USER    Estimated Free Energy of Binding    =  -12.81 kcal/mol  [=(1)+(2)+(3)-(4)]
DOCKED: USER    Estimated Inhibition Constant, Ki   =  405.10 pM (picomolar)  [Temperature = 298.15 K]
DOCKED: USER    
DOCKED: USER    (1) Final Intermolecular Energy     =  -14.90 kcal/mol
DOCKED: USER        vdW + Hbond + desolv Energy     =  -14.90 kcal/mol
DOCKED: USER        Electrostatic Energy            =   +0.00 kcal/mol
DOCKED: USER    (2) Final Total Internal Energy     =   -1.10 kcal/mol
DOCKED: USER    (3) Torsional Free Energy           =   +2.09 kcal/mol
DOCKED: USER    (4) Unbound System's Energy  [=(2)] =   -1.10 kcal/mol
DOCKED: USER    
DOCKED: USER    
DOCKED: USER    NEWDPF move ligand.pdbqt
DOCKED: USER    NEWDPF about 0.578000 -0.033000 0.130000
DOCKED: USER    NEWDPF tran0 28.459011 -16.055659 -0.001190
DOCKED: USER    NEWDPF quaternion0 -0.134783 0.235064 -0.236743 -0.933022
DOCKED: USER    NEWDPF axisangle0 -0.374588 0.653286 -0.657953 -42.178062
DOCKED: USER    NEWDPF quat0 -0.374588 0.653286 -0.657953 -42.178062
DOCKED: USER    NEWDPF dihe0 137.63 96.65 148.74 65.24 38.29 180.00 124.67 
DOCKED: USER  keepresnum = 1 
DOCKED: USER  
DOCKED: REMARK  Name = 
DOCKED: REMARK  8 active torsions:
DOCKED: REMARK  status: ('A' for Active; 'I' for Inactive)
DOCKED: REMARK    1  A    between atoms: C_2  and  C_3
DOCKED: REMARK    2  A    between atoms: C_4  and  C_5
DOCKED: REMARK    3  A    between atoms: C_8  and  C_9
DOCKED: REMARK    4  A    between atoms: C_9  and  N_10
DOCKED: REMARK    5  A    between atoms: N_10  and  C_11
DOCKED: REMARK    6  A    between atoms: C_11  and  C_12
DOCKED: REMARK    7  A    between atoms: C_12  and  C_13
DOCKED: REMARK    8  A    between atoms: C_14  and  C_22
DOCKED: REMARK                            x       y       z     vdW  Elec       q    Type
DOCKED: REMARK                         _______ _______ _______ _____ _____    ______ ____
DOCKED: USER                              x       y       z     vdW  Elec       q    Type
DOCKED: USER                           _______ _______ _______ _____ _____    ______ ____
DOCKED: ROOT
DOCKED: ATOM      1  N   UNL     1      28.115 -15.574   0.505 -0.25 -0.00    +0.000 N 
DOCKED: ATOM      2  H   UNL     1      29.059 -15.207   0.629 -0.22 -0.00    +0.000 HD
DOCKED: ATOM      3  H   UNL     1      27.927 -16.342   1.149 -0.53 -0.00    +0.000 HD
DOCKED: ENDROOT
DOCKED: BRANCH   1   4
DOCKED: ATOM      4  C   UNL     1      27.988 -16.095  -0.862 -0.33 -0.00    +0.000 C 
DOCKED: BRANCH   4   8
DOCKED: ATOM      5  C   UNL     1      24.223 -18.198  -1.191 -0.68 -0.00    +0.000 A 
DOCKED: ATOM      6  C   UNL     1      25.102 -18.464  -0.122 -0.50 -0.00    +0.000 A 
DOCKED: ATOM      7  C   UNL     1      26.324 -17.791  -0.024 -0.53 -0.00    +0.000 A 
DOCKED: ATOM      8  C   UNL     1      26.692 -16.845  -0.992 -0.45 -0.00    +0.000 A 
DOCKED: ATOM      9  C   UNL     1      25.806 -16.553  -2.039 -0.48 -0.00    +0.000 A 
DOCKED: ATOM     10  C   UNL     1      24.583 -17.224  -2.137 -0.43 -0.00    +0.000 A 
DOCKED: BRANCH   5  12
DOCKED: ATOM     11  C   UNL     1      21.843 -18.595  -0.564 -0.85 -0.00    +0.000 C 
DOCKED: ATOM     12  C   UNL     1      22.908 -18.872  -1.333 -0.78 -0.00    +0.000 C 
DOCKED: BRANCH  11  14
DOCKED: ATOM     13  O   UNL     1      20.237 -19.752  -1.836 -2.37 -0.00    +0.000 OA
DOCKED: ATOM     14  C   UNL     1      20.538 -19.269  -0.712 -0.90 -0.00    +0.000 C 
DOCKED: ATOM     15  N   UNL     1      19.597 -19.366   0.365 -0.72 -0.00    +0.000 N 
DOCKED: ATOM     16  O   UNL     1      18.461 -20.086   0.211 -0.90 -0.00    +0.000 OA
DOCKED: ATOM     17  H   UNL     1      19.778 -18.909   1.218 -0.26 -0.00    +0.000 HD
DOCKED: ENDBRANCH  11  14
DOCKED: ENDBRANCH   5  12
DOCKED: ENDBRANCH   4   8
DOCKED: ENDBRANCH   1   4
DOCKED: BRANCH   1  18
DOCKED: ATOM     18  C   UNL     1      27.150 -14.502   0.789 -0.26 -0.00    +0.000 C 
DOCKED: BRANCH  18  19
DOCKED: ATOM     19  C   UNL     1      27.811 -13.117   0.851 -0.21 -0.00    +0.000 C 
DOCKED: BRANCH  19  20
DOCKED: ATOM     20  C   UNL     1      27.621 -12.506   2.211 -0.23 -0.00    +0.000 A 
DOCKED: ATOM     21  C   UNL     1      26.986 -11.303   2.519 -0.28 +0.00    +0.000 A 
DOCKED: ATOM     22  N   UNL     1      27.065 -11.046   3.846 -0.27 +0.00    +0.000 N 
DOCKED: ATOM     23  C   UNL     1      27.764 -12.063   4.376 -0.31 +0.00    +0.000 A 
DOCKED: ATOM     24  C   UNL     1      28.126 -12.969   3.411 -0.28 -0.00    +0.000 A 
DOCKED: ATOM     25  C   UNL     1      28.880 -14.104   3.716 -0.35 -0.00    +0.000 A 
DOCKED: ATOM     26  C   UNL     1      29.257 -14.302   5.057 -0.33 -0.00    +0.000 A 
DOCKED: ATOM     27  C   UNL     1      28.880 -13.372   6.050 -0.39 -0.00    +0.000 A 
DOCKED: ATOM     28  C   UNL     1      28.124 -12.233   5.712 -0.39 +0.00    +0.000 A 
DOCKED: ATOM     29  C   UNL     1      26.287 -10.409   1.543 -0.36 +0.00    +0.000 C 
DOCKED: ATOM     30  H   UNL     1      26.688 -10.271   4.324 -0.06 +0.00    +0.000 HD
DOCKED: ENDBRANCH  19  20
DOCKED: ENDBRANCH  18  19
DOCKED: ENDBRANCH   1  18
DOCKED: TORSDOF 7
DOCKED: TER
DOCKED: ENDMDL
________________________________________________________________________________


	BEGINNING GENETIC ALGORITHM DOCKING 59 of 100
Run: 59 Seed: 508682453 748814195 [ Run 59 of 100 GA/GALS ]
Beginning LAMARCKIAN GENETIC ALGORITHM (LGA), with a maximum of 2500000 energy evaluations.

Final-Value: -15.139


	FINAL GENETIC ALGORITHM DOCKED STATE
	_______________________________________________


Detailed state:  trans 28.003 -16.123 -1.323 quatxyzw 0.159933 -0.738533 -0.653845 -0.038443 center 0.578 -0.033 0.130 ntor 7 -92.2416 139.0838 179.9575 -116.8993 142.4446 141.2472 -19.2224
State:	 28.003 -16.123  -1.323   0.160 -0.739 -0.654 -175.594    -92.24  139.08  179.96 -116.90  142.44  141.25  -19.22

DOCKED: MODEL       59
DOCKED: USER    Run = 59
DOCKED: USER    DPF = ligand_dock.biased.dpf
DOCKED: USER  
DOCKED: USER    Estimated Free Energy of Binding    =  -11.52 kcal/mol  [=(1)+(2)+(3)-(4)]
DOCKED: USER    Estimated Inhibition Constant, Ki   =    3.58 nM (nanomolar)  [Temperature = 298.15 K]
DOCKED: USER    
DOCKED: USER    (1) Final Intermolecular Energy     =  -13.61 kcal/mol
DOCKED: USER        vdW + Hbond + desolv Energy     =  -13.61 kcal/mol
DOCKED: USER        Electrostatic Energy            =   +0.00 kcal/mol
DOCKED: USER    (2) Final Total Internal Energy     =   -1.53 kcal/mol
DOCKED: USER    (3) Torsional Free Energy           =   +2.09 kcal/mol
DOCKED: USER    (4) Unbound System's Energy  [=(2)] =   -1.53 kcal/mol
DOCKED: USER    
DOCKED: USER    
DOCKED: USER    NEWDPF move ligand.pdbqt
DOCKED: USER    NEWDPF about 0.578000 -0.033000 0.130000
DOCKED: USER    NEWDPF tran0 28.002813 -16.123429 -1.322939
DOCKED: USER    NEWDPF quaternion0 0.159933 -0.738533 -0.653845 -0.038443
DOCKED: USER    NEWDPF axisangle0 0.160051 -0.739079 -0.654328 -175.593678
DOCKED: USER    NEWDPF quat0 0.160051 -0.739079 -0.654328 -175.593678
DOCKED: USER    NEWDPF dihe0 -92.24 139.08 179.96 -116.90 142.44 141.25 -19.22 
DOCKED: USER  keepresnum = 1 
DOCKED: USER  
DOCKED: REMARK  Name = 
DOCKED: REMARK  8 active torsions:
DOCKED: REMARK  status: ('A' for Active; 'I' for Inactive)
DOCKED: REMARK    1  A    between atoms: C_2  and  C_3
DOCKED: REMARK    2  A    between atoms: C_4  and  C_5
DOCKED: REMARK    3  A    between atoms: C_8  and  C_9
DOCKED: REMARK    4  A    between atoms: C_9  and  N_10
DOCKED: REMARK    5  A    between atoms: N_10  and  C_11
DOCKED: REMARK    6  A    between atoms: C_11  and  C_12
DOCKED: REMARK    7  A    between atoms: C_12  and  C_13
DOCKED: REMARK    8  A    between atoms: C_14  and  C_22
DOCKED: REMARK                            x       y       z     vdW  Elec       q    Type
DOCKED: REMARK                         _______ _______ _______ _____ _____    ______ ____
DOCKED: USER                              x       y       z     vdW  Elec       q    Type
DOCKED: USER                           _______ _______ _______ _____ _____    ______ ____
DOCKED: ROOT
DOCKED: ATOM      1  N   UNL     1      28.560 -15.602  -1.169 -0.19 -0.00    +0.000 N 
DOCKED: ATOM      2  H   UNL     1      27.801 -15.086  -0.724 +0.00 -0.00    +0.000 HD
DOCKED: ATOM      3  H   UNL     1      28.646 -15.361  -2.156 +0.00 -0.00    +0.000 HD
DOCKED: ENDROOT
DOCKED: BRANCH   1   4
DOCKED: ATOM      4  C   UNL     1      28.267 -17.039  -1.082 -0.36 -0.00    +0.000 C 
DOCKED: BRANCH   4   8
DOCKED: ATOM      5  C   UNL     1      23.994 -17.685  -0.886 -0.68 -0.00    +0.000 A 
DOCKED: ATOM      6  C   UNL     1      24.559 -16.939  -1.940 -0.49 -0.00    +0.000 A 
DOCKED: ATOM      7  C   UNL     1      25.940 -16.722  -1.995 -0.47 -0.00    +0.000 A 
DOCKED: ATOM      8  C   UNL     1      26.779 -17.240  -0.998 -0.46 -0.00    +0.000 A 
DOCKED: ATOM      9  C   UNL     1      26.225 -18.010   0.035 -0.56 -0.00    +0.000 A 
DOCKED: ATOM     10  C   UNL     1      24.846 -18.229   0.089 -0.56 -0.00    +0.000 A 
DOCKED: BRANCH   5  12
DOCKED: ATOM     11  C   UNL     1      22.007 -19.188  -0.858 -0.80 -0.00    +0.000 C 
DOCKED: ATOM     12  C   UNL     1      22.539 -17.958  -0.789 -0.80 -0.00    +0.000 C 
DOCKED: BRANCH  11  14
DOCKED: ATOM     13  O   UNL     1      19.926 -19.731  -1.814 -2.39 -0.00    +0.000 OA
DOCKED: ATOM     14  C   UNL     1      20.557 -19.452  -0.760 -0.89 -0.00    +0.000 C 
DOCKED: ATOM     15  N   UNL     1      19.844 -19.375   0.481 -0.69 -0.00    +0.000 N 
DOCKED: ATOM     16  O   UNL     1      18.539 -19.730   0.538 -0.77 -0.00    +0.000 OA
DOCKED: ATOM     17  H   UNL     1      20.306 -19.064   1.294 -0.22 -0.00    +0.000 HD
DOCKED: ENDBRANCH  11  14
DOCKED: ENDBRANCH   5  12
DOCKED: ENDBRANCH   4   8
DOCKED: ENDBRANCH   1   4
DOCKED: BRANCH   1  18
DOCKED: ATOM     18  C   UNL     1      29.825 -15.248  -0.507 -0.14 -0.00    +0.000 C 
DOCKED: BRANCH  18  19
DOCKED: ATOM     19  C   UNL     1      29.776 -13.861   0.151 -0.09 -0.00    +0.000 C 
DOCKED: BRANCH  19  20
DOCKED: ATOM     20  C   UNL     1      28.676 -13.806   1.173 -0.17 -0.00    +0.000 A 
DOCKED: ATOM     21  C   UNL     1      27.345 -13.441   0.967 -0.24 -0.00    +0.000 A 
DOCKED: ATOM     22  N   UNL     1      26.660 -13.446   2.134 -0.31 -0.00    +0.000 N 
DOCKED: ATOM     23  C   UNL     1      27.551 -13.789   3.080 -0.35 -0.00    +0.000 A 
DOCKED: ATOM     24  C   UNL     1      28.791 -14.009   2.535 -0.23 -0.00    +0.000 A 
DOCKED: ATOM     25  C   UNL     1      29.888 -14.356   3.324 -0.24 -0.00    +0.000 A 
DOCKED: ATOM     26  C   UNL     1      29.687 -14.485   4.710 -0.33 -0.00    +0.000 A 
DOCKED: ATOM     27  C   UNL     1      28.410 -14.263   5.271 -0.43 -0.00    +0.000 A 
DOCKED: ATOM     28  C   UNL     1      27.323 -13.908   4.451 -0.49 -0.00    +0.000 A 
DOCKED: ATOM     29  C   UNL     1      26.726 -13.104  -0.353 -0.22 -0.00    +0.000 C 
DOCKED: ATOM     30  H   UNL     1      25.706 -13.240   2.264 -0.02 +0.00    +0.000 HD
DOCKED: ENDBRANCH  19  20
DOCKED: ENDBRANCH  18  19
DOCKED: ENDBRANCH   1  18
DOCKED: TORSDOF 7
DOCKED: TER
DOCKED: ENDMDL
________________________________________________________________________________


	BEGINNING GENETIC ALGORITHM DOCKING 60 of 100
Run: 60 Seed: 1156309914 259275431 [ Run 60 of 100 GA/GALS ]
Beginning LAMARCKIAN GENETIC ALGORITHM (LGA), with a maximum of 2500000 energy evaluations.

Final-Value: -16.132


	FINAL GENETIC ALGORITHM DOCKED STATE
	_______________________________________________


Detailed state:  trans 29.087 -16.585 0.278 quatxyzw -0.251225 0.028192 -0.653118 -0.713812 center 0.578 -0.033 0.130 ntor 7 178.9250 179.5171 -150.4047 145.8161 168.6270 100.2704 98.9017
State:	 29.087 -16.585   0.278  -0.359  0.040 -0.933 -88.908    178.93  179.52 -150.40  145.82  168.63  100.27   98.90

DOCKED: MODEL       60
DOCKED: USER    Run = 60
DOCKED: USER    DPF = ligand_dock.biased.dpf
DOCKED: USER  
DOCKED: USER    Estimated Free Energy of Binding    =  -12.46 kcal/mol  [=(1)+(2)+(3)-(4)]
DOCKED: USER    Estimated Inhibition Constant, Ki   =  733.86 pM (picomolar)  [Temperature = 298.15 K]
DOCKED: USER    
DOCKED: USER    (1) Final Intermolecular Energy     =  -14.55 kcal/mol
DOCKED: USER        vdW + Hbond + desolv Energy     =  -14.55 kcal/mol
DOCKED: USER        Electrostatic Energy            =   +0.00 kcal/mol
DOCKED: USER    (2) Final Total Internal Energy     =   -1.58 kcal/mol
DOCKED: USER    (3) Torsional Free Energy           =   +2.09 kcal/mol
DOCKED: USER    (4) Unbound System's Energy  [=(2)] =   -1.58 kcal/mol
DOCKED: USER    
DOCKED: USER    
DOCKED: USER    NEWDPF move ligand.pdbqt
DOCKED: USER    NEWDPF about 0.578000 -0.033000 0.130000
DOCKED: USER    NEWDPF tran0 29.087381 -16.585308 0.278320
DOCKED: USER    NEWDPF quaternion0 -0.251225 0.028192 -0.653118 -0.713812
DOCKED: USER    NEWDPF axisangle0 -0.358720 0.040255 -0.932577 -88.908103
DOCKED: USER    NEWDPF quat0 -0.358720 0.040255 -0.932577 -88.908103
DOCKED: USER    NEWDPF dihe0 178.93 179.52 -150.40 145.82 168.63 100.27 98.90 
DOCKED: USER  keepresnum = 1 
DOCKED: USER  
DOCKED: REMARK  Name = 
DOCKED: REMARK  8 active torsions:
DOCKED: REMARK  status: ('A' for Active; 'I' for Inactive)
DOCKED: REMARK    1  A    between atoms: C_2  and  C_3
DOCKED: REMARK    2  A    between atoms: C_4  and  C_5
DOCKED: REMARK    3  A    between atoms: C_8  and  C_9
DOCKED: REMARK    4  A    between atoms: C_9  and  N_10
DOCKED: REMARK    5  A    between atoms: N_10  and  C_11
DOCKED: REMARK    6  A    between atoms: C_11  and  C_12
DOCKED: REMARK    7  A    between atoms: C_12  and  C_13
DOCKED: REMARK    8  A    between atoms: C_14  and  C_22
DOCKED: REMARK                            x       y       z     vdW  Elec       q    Type
DOCKED: REMARK                         _______ _______ _______ _____ _____    ______ ____
DOCKED: USER                              x       y       z     vdW  Elec       q    Type
DOCKED: USER                           _______ _______ _______ _____ _____    ______ ____
DOCKED: ROOT
DOCKED: ATOM      1  N   UNL     1      29.194 -15.815   0.324 -0.14 -0.00    +0.000 N 
DOCKED: ATOM      2  H   UNL     1      30.074 -16.075   0.772 -0.40 -0.00    +0.000 HD
DOCKED: ATOM      3  H   UNL     1      28.442 -15.724   1.006 -0.64 -0.00    +0.000 HD
DOCKED: ENDROOT
DOCKED: BRANCH   1   4
DOCKED: ATOM      4  C   UNL     1      28.817 -16.875  -0.621 -0.28 -0.00    +0.000 C 
DOCKED: BRANCH   4   8
DOCKED: ATOM      5  C   UNL     1      24.519 -17.351  -0.718 -0.62 -0.00    +0.000 A 
DOCKED: ATOM      6  C   UNL     1      25.144 -16.326  -1.456 -0.52 -0.00    +0.000 A 
DOCKED: ATOM      7  C   UNL     1      26.532 -16.166  -1.414 -0.40 -0.00    +0.000 A 
DOCKED: ATOM      8  C   UNL     1      27.321 -17.023  -0.632 -0.41 -0.00    +0.000 A 
DOCKED: ATOM      9  C   UNL     1      26.707 -18.065   0.078 -0.43 -0.00    +0.000 A 
DOCKED: ATOM     10  C   UNL     1      25.319 -18.226   0.034 -0.59 -0.00    +0.000 A 
DOCKED: BRANCH   5  12
DOCKED: ATOM     11  C   UNL     1      22.473 -18.749  -0.453 -0.82 -0.00    +0.000 C 
DOCKED: ATOM     12  C   UNL     1      23.052 -17.573  -0.740 -0.78 -0.00    +0.000 C 
DOCKED: BRANCH  11  14
DOCKED: ATOM     13  O   UNL     1      20.291 -18.108  -1.057 -2.13 -0.00    +0.000 OA
DOCKED: ATOM     14  C   UNL     1      21.012 -18.962  -0.476 -0.86 -0.00    +0.000 C 
DOCKED: ATOM     15  N   UNL     1      20.389 -20.085   0.160 -0.72 -0.00    +0.000 N 
DOCKED: ATOM     16  O   UNL     1      19.059 -20.293   0.020 -1.09 -0.00    +0.000 OA
DOCKED: ATOM     17  H   UNL     1      20.930 -20.706   0.700 -0.51 -0.00    +0.000 HD
DOCKED: ENDBRANCH  11  14
DOCKED: ENDBRANCH   5  12
DOCKED: ENDBRANCH   4   8
DOCKED: ENDBRANCH   1   4
DOCKED: BRANCH   1  18
DOCKED: ATOM     18  C   UNL     1      29.365 -14.512  -0.336 -0.13 -0.00    +0.000 C 
DOCKED: BRANCH  18  19
DOCKED: ATOM     19  C   UNL     1      29.599 -13.372   0.667 -0.09 -0.00    +0.000 C 
DOCKED: BRANCH  19  20
DOCKED: ATOM     20  C   UNL     1      28.745 -13.566   1.888 -0.18 -0.00    +0.000 A 
DOCKED: ATOM     21  C   UNL     1      27.353 -13.640   1.946 -0.28 -0.00    +0.000 A 
DOCKED: ATOM     22  N   UNL     1      26.932 -13.753   3.228 -0.41 -0.00    +0.000 N 
DOCKED: ATOM     23  C   UNL     1      28.044 -13.729   3.982 -0.42 -0.00    +0.000 A 
DOCKED: ATOM     24  C   UNL     1      29.168 -13.609   3.203 -0.22 -0.00    +0.000 A 
DOCKED: ATOM     25  C   UNL     1      30.444 -13.540   3.762 -0.18 -0.00    +0.000 A 
DOCKED: ATOM     26  C   UNL     1      30.552 -13.606   5.163 -0.24 -0.00    +0.000 A 
DOCKED: ATOM     27  C   UNL     1      29.397 -13.734   5.965 -0.33 -0.00    +0.000 A 
DOCKED: ATOM     28  C   UNL     1      28.122 -13.796   5.373 -0.43 -0.00    +0.000 A 
DOCKED: ATOM     29  C   UNL     1      26.428 -13.618   0.771 -0.27 -0.00    +0.000 C 
DOCKED: ATOM     30  H   UNL     1      26.003 -13.835   3.542 -0.03 -0.00    +0.000 HD
DOCKED: ENDBRANCH  19  20
DOCKED: ENDBRANCH  18  19
DOCKED: ENDBRANCH   1  18
DOCKED: TORSDOF 7
DOCKED: TER
DOCKED: ENDMDL
________________________________________________________________________________


	BEGINNING GENETIC ALGORITHM DOCKING 61 of 100
Run: 61 Seed: 103528194 546408234 [ Run 61 of 100 GA/GALS ]
Beginning LAMARCKIAN GENETIC ALGORITHM (LGA), with a maximum of 2500000 energy evaluations.

Final-Value: -14.956


	FINAL GENETIC ALGORITHM DOCKED STATE
	_______________________________________________


Detailed state:  trans 28.994 -17.136 -1.401 quatxyzw 0.033357 -0.977346 0.206207 -0.034057 center 0.578 -0.033 0.130 ntor 7 156.4203 -144.3079 -180.0000 178.2337 -10.3634 -178.6259 -4.0301
State:	 28.994 -17.136  -1.401   0.033 -0.978  0.206 -176.097    156.42 -144.31 -180.00  178.23  -10.36 -178.63   -4.03

DOCKED: MODEL       61
DOCKED: USER    Run = 61
DOCKED: USER    DPF = ligand_dock.biased.dpf
DOCKED: USER  
DOCKED: USER    Estimated Free Energy of Binding    =  -10.97 kcal/mol  [=(1)+(2)+(3)-(4)]
DOCKED: USER    Estimated Inhibition Constant, Ki   =    9.16 nM (nanomolar)  [Temperature = 298.15 K]
DOCKED: USER    
DOCKED: USER    (1) Final Intermolecular Energy     =  -13.05 kcal/mol
DOCKED: USER        vdW + Hbond + desolv Energy     =  -13.05 kcal/mol
DOCKED: USER        Electrostatic Energy            =   +0.00 kcal/mol
DOCKED: USER    (2) Final Total Internal Energy     =   -1.90 kcal/mol
DOCKED: USER    (3) Torsional Free Energy           =   +2.09 kcal/mol
DOCKED: USER    (4) Unbound System's Energy  [=(2)] =   -1.90 kcal/mol
DOCKED: USER    
DOCKED: USER    
DOCKED: USER    NEWDPF move ligand.pdbqt
DOCKED: USER    NEWDPF about 0.578000 -0.033000 0.130000
DOCKED: USER    NEWDPF tran0 28.993645 -17.135724 -1.401195
DOCKED: USER    NEWDPF quaternion0 0.033357 -0.977346 0.206207 -0.034057
DOCKED: USER    NEWDPF axisangle0 0.033377 -0.977914 0.206327 -176.096624
DOCKED: USER    NEWDPF quat0 0.033377 -0.977914 0.206327 -176.096624
DOCKED: USER    NEWDPF dihe0 156.42 -144.31 -180.00 178.23 -10.36 -178.63 -4.03 
DOCKED: USER  keepresnum = 1 
DOCKED: USER  
DOCKED: REMARK  Name = 
DOCKED: REMARK  8 active torsions:
DOCKED: REMARK  status: ('A' for Active; 'I' for Inactive)
DOCKED: REMARK    1  A    between atoms: C_2  and  C_3
DOCKED: REMARK    2  A    between atoms: C_4  and  C_5
DOCKED: REMARK    3  A    between atoms: C_8  and  C_9
DOCKED: REMARK    4  A    between atoms: C_9  and  N_10
DOCKED: REMARK    5  A    between atoms: N_10  and  C_11
DOCKED: REMARK    6  A    between atoms: C_11  and  C_12
DOCKED: REMARK    7  A    between atoms: C_12  and  C_13
DOCKED: REMARK    8  A    between atoms: C_14  and  C_22
DOCKED: REMARK                            x       y       z     vdW  Elec       q    Type
DOCKED: REMARK                         _______ _______ _______ _____ _____    ______ ____
DOCKED: USER                              x       y       z     vdW  Elec       q    Type
DOCKED: USER                           _______ _______ _______ _____ _____    ______ ____
DOCKED: ROOT
DOCKED: ATOM      1  N   UNL     1      29.666 -17.145  -1.794 -0.23 -0.00    +0.000 N 
DOCKED: ATOM      2  H   UNL     1      29.083 -16.856  -2.580 -0.01 -0.00    +0.000 HD
DOCKED: ATOM      3  H   UNL     1      29.723 -18.161  -1.727 -0.03 -0.00    +0.000 HD
DOCKED: ENDROOT
DOCKED: BRANCH   1   4
DOCKED: ATOM      4  C   UNL     1      29.061 -16.646  -0.552 -0.25 -0.00    +0.000 C 
DOCKED: BRANCH   4   8
DOCKED: ATOM      5  C   UNL     1      24.781 -17.218  -0.796 -0.60 -0.00    +0.000 A 
DOCKED: ATOM      6  C   UNL     1      25.356 -15.968  -1.101 -0.44 -0.00    +0.000 A 
DOCKED: ATOM      7  C   UNL     1      26.739 -15.782  -1.010 -0.35 -0.00    +0.000 A 
DOCKED: ATOM      8  C   UNL     1      27.571 -16.838  -0.610 -0.38 -0.00    +0.000 A 
DOCKED: ATOM      9  C   UNL     1      27.007 -18.092  -0.336 -0.44 -0.00    +0.000 A 
DOCKED: ATOM     10  C   UNL     1      25.625 -18.279  -0.429 -0.60 -0.00    +0.000 A 
DOCKED: BRANCH   5  12
DOCKED: ATOM     11  C   UNL     1      22.722 -18.560  -0.382 -0.83 -0.00    +0.000 C 
DOCKED: ATOM     12  C   UNL     1      23.322 -17.473  -0.891 -0.75 -0.00    +0.000 C 
DOCKED: BRANCH  11  14
DOCKED: ATOM     13  O   UNL     1      20.537 -17.895  -0.950 -2.24 -0.00    +0.000 OA
DOCKED: ATOM     14  C   UNL     1      21.269 -18.806  -0.480 -0.84 -0.00    +0.000 C 
DOCKED: ATOM     15  N   UNL     1      20.665 -20.027  -0.033 -0.71 -0.00    +0.000 N 
DOCKED: ATOM     16  O   UNL     1      19.346 -20.247  -0.242 -1.24 -0.00    +0.000 OA
DOCKED: ATOM     17  H   UNL     1      21.211 -20.706   0.425 -0.54 -0.00    +0.000 HD
DOCKED: ENDBRANCH  11  14
DOCKED: ENDBRANCH   5  12
DOCKED: ENDBRANCH   4   8
DOCKED: ENDBRANCH   1   4
DOCKED: BRANCH   1  18
DOCKED: ATOM     18  C   UNL     1      31.028 -16.629  -2.000 -0.11 -0.00    +0.000 C 
DOCKED: BRANCH  18  19
DOCKED: ATOM     19  C   UNL     1      31.088 -15.545  -3.087 -0.07 -0.00    +0.000 C 
DOCKED: BRANCH  19  20
DOCKED: ATOM     20  C   UNL     1      29.751 -15.402  -3.758 -0.14 -0.00    +0.000 A 
DOCKED: ATOM     21  C   UNL     1      29.284 -16.095  -4.875 -0.28 -0.00    +0.000 A 
DOCKED: ATOM     22  N   UNL     1      28.056 -15.653  -5.234 -0.40 -0.00    +0.000 N 
DOCKED: ATOM     23  C   UNL     1      27.752 -14.672  -4.368 -0.30 -0.00    +0.000 A 
DOCKED: ATOM     24  C   UNL     1      28.762 -14.485  -3.458 -0.14 -0.00    +0.000 A 
DOCKED: ATOM     25  C   UNL     1      28.685 -13.503  -2.470 -0.08 -0.00    +0.000 A 
DOCKED: ATOM     26  C   UNL     1      27.527 -12.705  -2.423 -0.13 -0.00    +0.000 A 
DOCKED: ATOM     27  C   UNL     1      26.486 -12.901  -3.357 -0.18 -0.00    +0.000 A 
DOCKED: ATOM     28  C   UNL     1      26.594 -13.896  -4.347 -0.36 -0.00    +0.000 A 
DOCKED: ATOM     29  C   UNL     1      30.010 -17.193  -5.587 -0.35 -0.00    +0.000 C 
DOCKED: ATOM     30  H   UNL     1      27.501 -15.983  -5.978 -0.03 +0.00    +0.000 HD
DOCKED: ENDBRANCH  19  20
DOCKED: ENDBRANCH  18  19
DOCKED: ENDBRANCH   1  18
DOCKED: TORSDOF 7
DOCKED: TER
DOCKED: ENDMDL
________________________________________________________________________________


	BEGINNING GENETIC ALGORITHM DOCKING 62 of 100
Run: 62 Seed: 1712266343 40056029 [ Run 62 of 100 GA/GALS ]
Beginning LAMARCKIAN GENETIC ALGORITHM (LGA), with a maximum of 2500000 energy evaluations.

Final-Value: -14.818


	FINAL GENETIC ALGORITHM DOCKED STATE
	_______________________________________________


Detailed state:  trans 28.958 -16.182 -0.215 quatxyzw -0.470592 0.320714 -0.021667 -0.821716 center 0.578 -0.033 0.130 ntor 7 -148.5462 169.2295 167.7464 -138.1075 -177.9693 160.8618 -173.0987
State:	 28.958 -16.182  -0.215  -0.826  0.563 -0.038 -69.486   -148.55  169.23  167.75 -138.11 -177.97  160.86 -173.10

DOCKED: MODEL       62
DOCKED: USER    Run = 62
DOCKED: USER    DPF = ligand_dock.biased.dpf
DOCKED: USER  
DOCKED: USER    Estimated Free Energy of Binding    =  -11.08 kcal/mol  [=(1)+(2)+(3)-(4)]
DOCKED: USER    Estimated Inhibition Constant, Ki   =    7.51 nM (nanomolar)  [Temperature = 298.15 K]
DOCKED: USER    
DOCKED: USER    (1) Final Intermolecular Energy     =  -13.17 kcal/mol
DOCKED: USER        vdW + Hbond + desolv Energy     =  -13.17 kcal/mol
DOCKED: USER        Electrostatic Energy            =   +0.00 kcal/mol
DOCKED: USER    (2) Final Total Internal Energy     =   -1.65 kcal/mol
DOCKED: USER    (3) Torsional Free Energy           =   +2.09 kcal/mol
DOCKED: USER    (4) Unbound System's Energy  [=(2)] =   -1.65 kcal/mol
DOCKED: USER    
DOCKED: USER    
DOCKED: USER    NEWDPF move ligand.pdbqt
DOCKED: USER    NEWDPF about 0.578000 -0.033000 0.130000
DOCKED: USER    NEWDPF tran0 28.957574 -16.181552 -0.214647
DOCKED: USER    NEWDPF quaternion0 -0.470592 0.320714 -0.021667 -0.821716
DOCKED: USER    NEWDPF axisangle0 -0.825748 0.562757 -0.038020 -69.486203
DOCKED: USER    NEWDPF quat0 -0.825748 0.562757 -0.038020 -69.486203
DOCKED: USER    NEWDPF dihe0 -148.55 169.23 167.75 -138.11 -177.97 160.86 -173.10 
DOCKED: USER  keepresnum = 1 
DOCKED: USER  
DOCKED: REMARK  Name = 
DOCKED: REMARK  8 active torsions:
DOCKED: REMARK  status: ('A' for Active; 'I' for Inactive)
DOCKED: REMARK    1  A    between atoms: C_2  and  C_3
DOCKED: REMARK    2  A    between atoms: C_4  and  C_5
DOCKED: REMARK    3  A    between atoms: C_8  and  C_9
DOCKED: REMARK    4  A    between atoms: C_9  and  N_10
DOCKED: REMARK    5  A    between atoms: N_10  and  C_11
DOCKED: REMARK    6  A    between atoms: C_11  and  C_12
DOCKED: REMARK    7  A    between atoms: C_12  and  C_13
DOCKED: REMARK    8  A    between atoms: C_14  and  C_22
DOCKED: REMARK                            x       y       z     vdW  Elec       q    Type
DOCKED: REMARK                         _______ _______ _______ _____ _____    ______ ____
DOCKED: USER                              x       y       z     vdW  Elec       q    Type
DOCKED: USER                           _______ _______ _______ _____ _____    ______ ____
DOCKED: ROOT
DOCKED: ATOM      1  N   UNL     1      28.556 -15.644   0.179 -0.23 -0.00    +0.000 N 
DOCKED: ATOM      2  H   UNL     1      29.133 -14.986  -0.345 -0.00 -0.00    +0.000 HD
DOCKED: ATOM      3  H   UNL     1      29.001 -15.913   1.056 -0.79 -0.00    +0.000 HD
DOCKED: ENDROOT
DOCKED: BRANCH   1   4
DOCKED: ATOM      4  C   UNL     1      28.377 -16.859  -0.625 -0.33 -0.00    +0.000 C 
DOCKED: BRANCH   4   8
DOCKED: ATOM      5  C   UNL     1      24.177 -17.827  -0.989 -0.68 -0.00    +0.000 A 
DOCKED: ATOM      6  C   UNL     1      24.828 -17.071  -1.985 -0.54 -0.00    +0.000 A 
DOCKED: ATOM      7  C   UNL     1      26.183 -16.750  -1.860 -0.45 -0.00    +0.000 A 
DOCKED: ATOM      8  C   UNL     1      26.911 -17.172  -0.738 -0.46 -0.00    +0.000 A 
DOCKED: ATOM      9  C   UNL     1      26.276 -17.951   0.240 -0.48 -0.00    +0.000 A 
DOCKED: ATOM     10  C   UNL     1      24.921 -18.275   0.114 -0.52 -0.00    +0.000 A 
DOCKED: BRANCH   5  12
DOCKED: ATOM     11  C   UNL     1      22.252 -19.362  -0.608 -0.74 -0.00    +0.000 C 
DOCKED: ATOM     12  C   UNL     1      22.746 -18.208  -1.081 -0.80 -0.00    +0.000 C 
DOCKED: BRANCH  11  14
DOCKED: ATOM     13  O   UNL     1      20.245 -19.606  -1.813 -2.24 -0.00    +0.000 OA
DOCKED: ATOM     14  C   UNL     1      20.825 -19.735  -0.702 -0.82 -0.00    +0.000 C 
DOCKED: ATOM     15  N   UNL     1      20.078 -20.207   0.426 -0.71 -0.00    +0.000 N 
DOCKED: ATOM     16  O   UNL     1      18.805 -20.636   0.266 -0.92 -0.00    +0.000 OA
DOCKED: ATOM     17  H   UNL     1      20.493 -20.219   1.319 -0.34 -0.00    +0.000 HD
DOCKED: ENDBRANCH  11  14
DOCKED: ENDBRANCH   5  12
DOCKED: ENDBRANCH   4   8
DOCKED: ENDBRANCH   1   4
DOCKED: BRANCH   1  18
DOCKED: ATOM     18  C   UNL     1      27.276 -14.995   0.505 -0.28 -0.00    +0.000 C 
DOCKED: BRANCH  18  19
DOCKED: ATOM     19  C   UNL     1      27.247 -13.514   0.094 -0.25 -0.00    +0.000 C 
DOCKED: BRANCH  19  20
DOCKED: ATOM     20  C   UNL     1      27.970 -13.318  -1.208 -0.12 -0.00    +0.000 A 
DOCKED: ATOM     21  C   UNL     1      29.260 -12.822  -1.395 -0.04 -0.00    +0.000 A 
DOCKED: ATOM     22  N   UNL     1      29.551 -12.726  -2.714 -0.04 -0.00    +0.000 N 
DOCKED: ATOM     23  C   UNL     1      28.447 -13.136  -3.363 -0.10 -0.00    +0.000 A 
DOCKED: ATOM     24  C   UNL     1      27.461 -13.498  -2.480 -0.16 -0.00    +0.000 A 
DOCKED: ATOM     25  C   UNL     1      26.211 -13.938  -2.917 -0.29 -0.00    +0.000 A 
DOCKED: ATOM     26  C   UNL     1      25.987 -14.009  -4.304 -0.41 -0.00    +0.000 A 
DOCKED: ATOM     27  C   UNL     1      27.004 -13.641  -5.213 -0.24 -0.00    +0.000 A 
DOCKED: ATOM     28  C   UNL     1      28.253 -13.196  -4.742 -0.16 -0.00    +0.000 A 
DOCKED: ATOM     29  C   UNL     1      30.222 -12.456  -0.308 -0.02 -0.00    +0.000 C 
DOCKED: ATOM     30  H   UNL     1      30.396 -12.418  -3.115 +0.00 -0.00    +0.000 HD
DOCKED: ENDBRANCH  19  20
DOCKED: ENDBRANCH  18  19
DOCKED: ENDBRANCH   1  18
DOCKED: TORSDOF 7
DOCKED: TER
DOCKED: ENDMDL
________________________________________________________________________________


	BEGINNING GENETIC ALGORITHM DOCKING 63 of 100
Run: 63 Seed: 459039093 1014247753 [ Run 63 of 100 GA/GALS ]
Beginning LAMARCKIAN GENETIC ALGORITHM (LGA), with a maximum of 2500000 energy evaluations.

Final-Value: -15.759


	FINAL GENETIC ALGORITHM DOCKED STATE
	_______________________________________________


Detailed state:  trans 27.123 -14.813 -1.684 quatxyzw -0.536003 0.619239 0.573659 -0.012665 center 0.578 -0.033 0.130 ntor 7 25.4356 -152.6348 -3.6727 5.7646 -69.5361 -171.7812 -56.6136
State:	 27.123 -14.813  -1.684  -0.536  0.619  0.574 -178.549     25.44 -152.63   -3.67    5.76  -69.54 -171.78  -56.61

DOCKED: MODEL       63
DOCKED: USER    Run = 63
DOCKED: USER    DPF = ligand_dock.biased.dpf
DOCKED: USER  
DOCKED: USER    Estimated Free Energy of Binding    =  -12.61 kcal/mol  [=(1)+(2)+(3)-(4)]
DOCKED: USER    Estimated Inhibition Constant, Ki   =  570.78 pM (picomolar)  [Temperature = 298.15 K]
DOCKED: USER    
DOCKED: USER    (1) Final Intermolecular Energy     =  -14.70 kcal/mol
DOCKED: USER        vdW + Hbond + desolv Energy     =  -14.70 kcal/mol
DOCKED: USER        Electrostatic Energy            =   +0.00 kcal/mol
DOCKED: USER    (2) Final Total Internal Energy     =   -1.06 kcal/mol
DOCKED: USER    (3) Torsional Free Energy           =   +2.09 kcal/mol
DOCKED: USER    (4) Unbound System's Energy  [=(2)] =   -1.06 kcal/mol
DOCKED: USER    
DOCKED: USER    
DOCKED: USER    NEWDPF move ligand.pdbqt
DOCKED: USER    NEWDPF about 0.578000 -0.033000 0.130000
DOCKED: USER    NEWDPF tran0 27.123255 -14.813428 -1.683765
DOCKED: USER    NEWDPF quaternion0 -0.536003 0.619239 0.573659 -0.012665
DOCKED: USER    NEWDPF axisangle0 -0.536046 0.619288 0.573705 -178.548655
DOCKED: USER    NEWDPF quat0 -0.536046 0.619288 0.573705 -178.548655
DOCKED: USER    NEWDPF dihe0 25.44 -152.63 -3.67 5.76 -69.54 -171.78 -56.61 
DOCKED: USER  keepresnum = 1 
DOCKED: USER  
DOCKED: REMARK  Name = 
DOCKED: REMARK  8 active torsions:
DOCKED: REMARK  status: ('A' for Active; 'I' for Inactive)
DOCKED: REMARK    1  A    between atoms: C_2  and  C_3
DOCKED: REMARK    2  A    between atoms: C_4  and  C_5
DOCKED: REMARK    3  A    between atoms: C_8  and  C_9
DOCKED: REMARK    4  A    between atoms: C_9  and  N_10
DOCKED: REMARK    5  A    between atoms: N_10  and  C_11
DOCKED: REMARK    6  A    between atoms: C_11  and  C_12
DOCKED: REMARK    7  A    between atoms: C_12  and  C_13
DOCKED: REMARK    8  A    between atoms: C_14  and  C_22
DOCKED: REMARK                            x       y       z     vdW  Elec       q    Type
DOCKED: REMARK                         _______ _______ _______ _____ _____    ______ ____
DOCKED: USER                              x       y       z     vdW  Elec       q    Type
DOCKED: USER                           _______ _______ _______ _____ _____    ______ ____
DOCKED: ROOT
DOCKED: ATOM      1  N   UNL     1      27.160 -14.145  -1.287 -0.21 -0.00    +0.000 N 
DOCKED: ATOM      2  H   UNL     1      26.144 -14.159  -1.384 -0.01 -0.00    +0.000 HD
DOCKED: ATOM      3  H   UNL     1      27.602 -13.670  -2.074 +0.00 -0.00    +0.000 HD
DOCKED: ENDROOT
DOCKED: BRANCH   1   4
DOCKED: ATOM      4  C   UNL     1      27.650 -15.529  -1.265 -0.29 -0.00    +0.000 C 
DOCKED: BRANCH   4   8
DOCKED: ATOM      5  C   UNL     1      24.287 -18.207  -0.788 -0.70 -0.00    +0.000 A 
DOCKED: ATOM      6  C   UNL     1      25.584 -18.611  -0.413 -0.52 -0.00    +0.000 A 
DOCKED: ATOM      7  C   UNL     1      26.672 -17.747  -0.579 -0.51 -0.00    +0.000 A 
DOCKED: ATOM      8  C   UNL     1      26.486 -16.469  -1.125 -0.43 -0.00    +0.000 A 
DOCKED: ATOM      9  C   UNL     1      25.193 -16.051  -1.470 -0.47 -0.00    +0.000 A 
DOCKED: ATOM     10  C   UNL     1      24.105 -16.912  -1.302 -0.56 -0.00    +0.000 A 
DOCKED: BRANCH   5  12
DOCKED: ATOM     11  C   UNL     1      21.868 -18.747  -1.043 -0.82 -0.00    +0.000 C 
DOCKED: ATOM     12  C   UNL     1      23.098 -19.077  -0.619 -0.76 -0.00    +0.000 C 
DOCKED: BRANCH  11  14
DOCKED: ATOM     13  O   UNL     1      19.881 -19.729  -1.833 -2.40 -0.00    +0.000 OA
DOCKED: ATOM     14  C   UNL     1      20.688 -19.619  -0.872 -0.85 -0.00    +0.000 C 
DOCKED: ATOM     15  N   UNL     1      20.419 -20.317   0.350 -0.68 -0.00    +0.000 N 
DOCKED: ATOM     16  O   UNL     1      19.385 -21.187   0.422 -0.85 -0.00    +0.000 OA
DOCKED: ATOM     17  H   UNL     1      20.989 -20.163   1.139 -0.53 -0.00    +0.000 HD
DOCKED: ENDBRANCH  11  14
DOCKED: ENDBRANCH   5  12
DOCKED: ENDBRANCH   4   8
DOCKED: ENDBRANCH   1   4
DOCKED: BRANCH   1  18
DOCKED: ATOM     18  C   UNL     1      27.508 -13.407  -0.063 -0.21 -0.00    +0.000 C 
DOCKED: BRANCH  18  19
DOCKED: ATOM     19  C   UNL     1      26.347 -13.354   0.942 -0.31 -0.00    +0.000 C 
DOCKED: BRANCH  19  20
DOCKED: ATOM     20  C   UNL     1      26.741 -12.561   2.156 -0.30 +0.00    +0.000 A 
DOCKED: ATOM     21  C   UNL     1      26.641 -11.181   2.336 -0.31 +0.00    +0.000 A 
DOCKED: ATOM     22  N   UNL     1      27.155 -10.816   3.534 -0.31 +0.00    +0.000 N 
DOCKED: ATOM     23  C   UNL     1      27.600 -11.950   4.103 -0.22 +0.00    +0.000 A 
DOCKED: ATOM     24  C   UNL     1      27.372 -13.032   3.291 -0.33 -0.00    +0.000 A 
DOCKED: ATOM     25  C   UNL     1      27.767 -14.320   3.657 -0.44 -0.00    +0.000 A 
DOCKED: ATOM     26  C   UNL     1      28.406 -14.483   4.900 -0.50 -0.00    +0.000 A 
DOCKED: ATOM     27  C   UNL     1      28.637 -13.369   5.737 -0.40 -0.00    +0.000 A 
DOCKED: ATOM     28  C   UNL     1      28.232 -12.081   5.339 -0.35 +0.00    +0.000 A 
DOCKED: ATOM     29  C   UNL     1      26.037 -10.215   1.366 -0.37 +0.00    +0.000 C 
DOCKED: ATOM     30  H   UNL     1      27.196  -9.907   3.910 -0.03 +0.00    +0.000 HD
DOCKED: ENDBRANCH  19  20
DOCKED: ENDBRANCH  18  19
DOCKED: ENDBRANCH   1  18
DOCKED: TORSDOF 7
DOCKED: TER
DOCKED: ENDMDL
________________________________________________________________________________


	BEGINNING GENETIC ALGORITHM DOCKING 64 of 100
Run: 64 Seed: 38117790 816444968 [ Run 64 of 100 GA/GALS ]
Beginning LAMARCKIAN GENETIC ALGORITHM (LGA), with a maximum of 2500000 energy evaluations.

Final-Value: -15.328


	FINAL GENETIC ALGORITHM DOCKED STATE
	_______________________________________________


Detailed state:  trans 28.363 -17.139 -1.584 quatxyzw 0.297141 -0.774780 0.546210 -0.114360 center 0.578 -0.033 0.130 ntor 7 -52.9280 -61.1835 39.6445 -43.0089 158.0386 157.1846 -27.9288
State:	 28.363 -17.139  -1.584   0.299 -0.780  0.550 -166.867    -52.93  -61.18   39.64  -43.01  158.04  157.18  -27.93

DOCKED: MODEL       64
DOCKED: USER    Run = 64
DOCKED: USER    DPF = ligand_dock.biased.dpf
DOCKED: USER  
DOCKED: USER    Estimated Free Energy of Binding    =  -11.97 kcal/mol  [=(1)+(2)+(3)-(4)]
DOCKED: USER    Estimated Inhibition Constant, Ki   =    1.68 nM (nanomolar)  [Temperature = 298.15 K]
DOCKED: USER    
DOCKED: USER    (1) Final Intermolecular Energy     =  -14.06 kcal/mol
DOCKED: USER        vdW + Hbond + desolv Energy     =  -14.06 kcal/mol
DOCKED: USER        Electrostatic Energy            =   +0.00 kcal/mol
DOCKED: USER    (2) Final Total Internal Energy     =   -1.27 kcal/mol
DOCKED: USER    (3) Torsional Free Energy           =   +2.09 kcal/mol
DOCKED: USER    (4) Unbound System's Energy  [=(2)] =   -1.27 kcal/mol
DOCKED: USER    
DOCKED: USER    
DOCKED: USER    NEWDPF move ligand.pdbqt
DOCKED: USER    NEWDPF about 0.578000 -0.033000 0.130000
DOCKED: USER    NEWDPF tran0 28.363259 -17.138675 -1.583737
DOCKED: USER    NEWDPF quaternion0 0.297141 -0.774780 0.546210 -0.114360
DOCKED: USER    NEWDPF axisangle0 0.299103 -0.779897 0.549817 -166.866606
DOCKED: USER    NEWDPF quat0 0.299103 -0.779897 0.549817 -166.866606
DOCKED: USER    NEWDPF dihe0 -52.93 -61.18 39.64 -43.01 158.04 157.18 -27.93 
DOCKED: USER  keepresnum = 1 
DOCKED: USER  
DOCKED: REMARK  Name = 
DOCKED: REMARK  8 active torsions:
DOCKED: REMARK  status: ('A' for Active; 'I' for Inactive)
DOCKED: REMARK    1  A    between atoms: C_2  and  C_3
DOCKED: REMARK    2  A    between atoms: C_4  and  C_5
DOCKED: REMARK    3  A    between atoms: C_8  and  C_9
DOCKED: REMARK    4  A    between atoms: C_9  and  N_10
DOCKED: REMARK    5  A    between atoms: N_10  and  C_11
DOCKED: REMARK    6  A    between atoms: C_11  and  C_12
DOCKED: REMARK    7  A    between atoms: C_12  and  C_13
DOCKED: REMARK    8  A    between atoms: C_14  and  C_22
DOCKED: REMARK                            x       y       z     vdW  Elec       q    Type
DOCKED: REMARK                         _______ _______ _______ _____ _____    ______ ____
DOCKED: USER                              x       y       z     vdW  Elec       q    Type
DOCKED: USER                           _______ _______ _______ _____ _____    ______ ____
DOCKED: ROOT
DOCKED: ATOM      1  N   UNL     1      28.913 -17.181  -2.133 -0.25 -0.00    +0.000 N 
DOCKED: ATOM      2  H   UNL     1      28.240 -17.785  -2.606 +0.01 -0.00    +0.000 HD
DOCKED: ATOM      3  H   UNL     1      29.526 -17.716  -1.517 -0.03 -0.00    +0.000 HD
DOCKED: ENDROOT
DOCKED: BRANCH   1   4
DOCKED: ATOM      4  C   UNL     1      28.179 -16.214  -1.306 -0.32 -0.00    +0.000 C 
DOCKED: BRANCH   4   8
DOCKED: ATOM      5  C   UNL     1      24.132 -17.580  -0.625 -0.65 -0.00    +0.000 A 
DOCKED: ATOM      6  C   UNL     1      25.222 -18.233  -0.014 -0.59 -0.00    +0.000 A 
DOCKED: ATOM      7  C   UNL     1      26.530 -17.797  -0.245 -0.53 -0.00    +0.000 A 
DOCKED: ATOM      8  C   UNL     1      26.775 -16.706  -1.092 -0.43 -0.00    +0.000 A 
DOCKED: ATOM      9  C   UNL     1      25.692 -16.033  -1.676 -0.47 -0.00    +0.000 A 
DOCKED: ATOM     10  C   UNL     1      24.384 -16.467  -1.444 -0.46 -0.00    +0.000 A 
DOCKED: BRANCH   5  12
DOCKED: ATOM     11  C   UNL     1      22.120 -18.976  -1.086 -0.83 -0.00    +0.000 C 
DOCKED: ATOM     12  C   UNL     1      22.724 -17.992  -0.401 -0.81 -0.00    +0.000 C 
DOCKED: BRANCH  11  14
DOCKED: ATOM     13  O   UNL     1      20.027 -19.734  -1.850 -2.39 -0.00    +0.000 OA
DOCKED: ATOM     14  C   UNL     1      20.718 -19.382  -0.857 -0.89 -0.00    +0.000 C 
DOCKED: ATOM     15  N   UNL     1      20.115 -19.361   0.443 -0.70 -0.00    +0.000 N 
DOCKED: ATOM     16  O   UNL     1      18.862 -19.843   0.617 -0.82 -0.00    +0.000 OA
DOCKED: ATOM     17  H   UNL     1      20.613 -18.996   1.209 -0.19 -0.00    +0.000 HD
DOCKED: ENDBRANCH  11  14
DOCKED: ENDBRANCH   5  12
DOCKED: ENDBRANCH   4   8
DOCKED: ENDBRANCH   1   4
DOCKED: BRANCH   1  18
DOCKED: ATOM     18  C   UNL     1      29.755 -16.526  -3.146 -0.22 -0.00    +0.000 C 
DOCKED: BRANCH  18  19
DOCKED: ATOM     19  C   UNL     1      29.536 -17.103  -4.554 -0.19 -0.00    +0.000 C 
DOCKED: BRANCH  19  20
DOCKED: ATOM     20  C   UNL     1      29.363 -15.994  -5.553 -0.31 -0.00    +0.000 A 
DOCKED: ATOM     21  C   UNL     1      30.021 -15.842  -6.773 -0.29 -0.00    +0.000 A 
DOCKED: ATOM     22  N   UNL     1      29.655 -14.685  -7.374 -0.32 -0.00    +0.000 N 
DOCKED: ATOM     23  C   UNL     1      28.789 -14.094  -6.534 -0.31 -0.00    +0.000 A 
DOCKED: ATOM     24  C   UNL     1      28.591 -14.857  -5.411 -0.32 -0.00    +0.000 A 
DOCKED: ATOM     25  C   UNL     1      27.748 -14.439  -4.380 -0.28 -0.00    +0.000 A 
DOCKED: ATOM     26  C   UNL     1      27.091 -13.204  -4.528 -0.26 -0.00    +0.000 A 
DOCKED: ATOM     27  C   UNL     1      27.291 -12.421  -5.686 -0.18 -0.00    +0.000 A 
DOCKED: ATOM     28  C   UNL     1      28.152 -12.865  -6.707 -0.20 -0.00    +0.000 A 
DOCKED: ATOM     29  C   UNL     1      30.988 -16.814  -7.371 -0.32 -0.00    +0.000 C 
DOCKED: ATOM     30  H   UNL     1      29.962 -14.347  -8.247 -0.50 -0.00    +0.000 HD
DOCKED: ENDBRANCH  19  20
DOCKED: ENDBRANCH  18  19
DOCKED: ENDBRANCH   1  18
DOCKED: TORSDOF 7
DOCKED: TER
DOCKED: ENDMDL
________________________________________________________________________________


	BEGINNING GENETIC ALGORITHM DOCKING 65 of 100
Run: 65 Seed: 1364049558 682212045 [ Run 65 of 100 GA/GALS ]
Beginning LAMARCKIAN GENETIC ALGORITHM (LGA), with a maximum of 2500000 energy evaluations.

Final-Value: -15.723


	FINAL GENETIC ALGORITHM DOCKED STATE
	_______________________________________________


Detailed state:  trans 29.289 -14.850 0.927 quatxyzw 0.132681 -0.253681 -0.084136 0.954444 center 0.578 -0.033 0.130 ntor 7 57.5759 129.2337 -179.9151 -111.2742 5.8719 153.7799 160.4093
State:	 29.289 -14.850   0.927   0.445 -0.850 -0.282 34.722     57.58  129.23 -179.92 -111.27    5.87  153.78  160.41

DOCKED: MODEL       65
DOCKED: USER    Run = 65
DOCKED: USER    DPF = ligand_dock.biased.dpf
DOCKED: USER  
DOCKED: USER    Estimated Free Energy of Binding    =  -12.24 kcal/mol  [=(1)+(2)+(3)-(4)]
DOCKED: USER    Estimated Inhibition Constant, Ki   =    1.06 nM (nanomolar)  [Temperature = 298.15 K]
DOCKED: USER    
DOCKED: USER    (1) Final Intermolecular Energy     =  -14.33 kcal/mol
DOCKED: USER        vdW + Hbond + desolv Energy     =  -14.33 kcal/mol
DOCKED: USER        Electrostatic Energy            =   +0.00 kcal/mol
DOCKED: USER    (2) Final Total Internal Energy     =   -1.39 kcal/mol
DOCKED: USER    (3) Torsional Free Energy           =   +2.09 kcal/mol
DOCKED: USER    (4) Unbound System's Energy  [=(2)] =   -1.39 kcal/mol
DOCKED: USER    
DOCKED: USER    
DOCKED: USER    NEWDPF move ligand.pdbqt
DOCKED: USER    NEWDPF about 0.578000 -0.033000 0.130000
DOCKED: USER    NEWDPF tran0 29.289079 -14.850310 0.927430
DOCKED: USER    NEWDPF quaternion0 0.132681 -0.253681 -0.084136 0.954444
DOCKED: USER    NEWDPF axisangle0 0.444655 -0.850163 -0.281967 34.721949
DOCKED: USER    NEWDPF quat0 0.444655 -0.850163 -0.281967 34.721949
DOCKED: USER    NEWDPF dihe0 57.58 129.23 -179.92 -111.27 5.87 153.78 160.41 
DOCKED: USER  keepresnum = 1 
DOCKED: USER  
DOCKED: REMARK  Name = 
DOCKED: REMARK  8 active torsions:
DOCKED: REMARK  status: ('A' for Active; 'I' for Inactive)
DOCKED: REMARK    1  A    between atoms: C_2  and  C_3
DOCKED: REMARK    2  A    between atoms: C_4  and  C_5
DOCKED: REMARK    3  A    between atoms: C_8  and  C_9
DOCKED: REMARK    4  A    between atoms: C_9  and  N_10
DOCKED: REMARK    5  A    between atoms: N_10  and  C_11
DOCKED: REMARK    6  A    between atoms: C_11  and  C_12
DOCKED: REMARK    7  A    between atoms: C_12  and  C_13
DOCKED: REMARK    8  A    between atoms: C_14  and  C_22
DOCKED: REMARK                            x       y       z     vdW  Elec       q    Type
DOCKED: REMARK                         _______ _______ _______ _____ _____    ______ ____
DOCKED: USER                              x       y       z     vdW  Elec       q    Type
DOCKED: USER                           _______ _______ _______ _____ _____    ______ ____
DOCKED: ROOT
DOCKED: ATOM      1  N   UNL     1      28.818 -14.728   1.535 -0.16 -0.00    +0.000 N 
DOCKED: ATOM      2  H   UNL     1      29.398 -13.900   1.677 -0.22 -0.00    +0.000 HD
DOCKED: ATOM      3  H   UNL     1      29.197 -15.537   2.027 -1.66 -0.00    +0.000 HD
DOCKED: ENDROOT
DOCKED: BRANCH   1   4
DOCKED: ATOM      4  C   UNL     1      28.794 -15.046   0.101 -0.21 -0.00    +0.000 C 
DOCKED: BRANCH   4   8
DOCKED: ATOM      5  C   UNL     1      25.120 -17.157  -0.763 -0.57 -0.00    +0.000 A 
DOCKED: ATOM      6  C   UNL     1      26.230 -17.840  -0.227 -0.56 -0.00    +0.000 A 
DOCKED: ATOM      7  C   UNL     1      27.421 -17.157   0.041 -0.28 -0.00    +0.000 A 
DOCKED: ATOM      8  C   UNL     1      27.526 -15.784  -0.225 -0.30 -0.00    +0.000 A 
DOCKED: ATOM      9  C   UNL     1      26.414 -15.095  -0.728 -0.32 -0.00    +0.000 A 
DOCKED: ATOM     10  C   UNL     1      25.223 -15.776  -0.994 -0.34 -0.00    +0.000 A 
DOCKED: BRANCH   5  12
DOCKED: ATOM     11  C   UNL     1      22.725 -17.673  -0.303 -0.76 -0.00    +0.000 C 
DOCKED: ATOM     12  C   UNL     1      23.829 -17.830  -1.050 -0.77 -0.00    +0.000 C 
DOCKED: BRANCH  11  14
DOCKED: ATOM     13  O   UNL     1      20.505 -17.660  -1.083 -2.13 -0.00    +0.000 OA
DOCKED: ATOM     14  C   UNL     1      21.443 -18.345  -0.596 -0.81 -0.00    +0.000 C 
DOCKED: ATOM     15  N   UNL     1      21.224 -19.734  -0.320 -0.72 -0.00    +0.000 N 
DOCKED: ATOM     16  O   UNL     1      20.070 -20.328  -0.705 -1.53 -0.00    +0.000 OA
DOCKED: ATOM     17  H   UNL     1      21.914 -20.256   0.149 -0.55 -0.00    +0.000 HD
DOCKED: ENDBRANCH  11  14
DOCKED: ENDBRANCH   5  12
DOCKED: ENDBRANCH   4   8
DOCKED: ENDBRANCH   1   4
DOCKED: BRANCH   1  18
DOCKED: ATOM     18  C   UNL     1      27.475 -14.463   2.072 -0.14 -0.00    +0.000 C 
DOCKED: BRANCH  18  19
DOCKED: ATOM     19  C   UNL     1      27.429 -13.196   2.941 -0.37 -0.00    +0.000 C 
DOCKED: BRANCH  19  20
DOCKED: ATOM     20  C   UNL     1      27.732 -11.981   2.111 -0.20 -0.00    +0.000 A 
DOCKED: ATOM     21  C   UNL     1      28.983 -11.419   1.856 -0.07 -0.00    +0.000 A 
DOCKED: ATOM     22  N   UNL     1      28.861 -10.290   1.120 -0.05 +0.00    +0.000 N 
DOCKED: ATOM     23  C   UNL     1      27.541 -10.120   0.926 -0.15 +0.00    +0.000 A 
DOCKED: ATOM     24  C   UNL     1      26.821 -11.126   1.521 -0.27 +0.00    +0.000 A 
DOCKED: ATOM     25  C   UNL     1      25.427 -11.154   1.476 -0.35 +0.00    +0.000 A 
DOCKED: ATOM     26  C   UNL     1      24.770 -10.117   0.789 -0.28 +0.00    +0.000 A 
DOCKED: ATOM     27  C   UNL     1      25.511  -9.085   0.173 -0.29 +0.00    +0.000 A 
DOCKED: ATOM     28  C   UNL     1      26.917  -9.079   0.240 -0.18 +0.00    +0.000 A 
DOCKED: ATOM     29  C   UNL     1      30.298 -11.975   2.304 -0.05 -0.00    +0.000 C 
DOCKED: ATOM     30  H   UNL     1      29.588  -9.711   0.794 +0.00 +0.00    +0.000 HD
DOCKED: ENDBRANCH  19  20
DOCKED: ENDBRANCH  18  19
DOCKED: ENDBRANCH   1  18
DOCKED: TORSDOF 7
DOCKED: TER
DOCKED: ENDMDL
________________________________________________________________________________


	BEGINNING GENETIC ALGORITHM DOCKING 66 of 100
Run: 66 Seed: 1251510936 891929918 [ Run 66 of 100 GA/GALS ]
Beginning LAMARCKIAN GENETIC ALGORITHM (LGA), with a maximum of 2500000 energy evaluations.

Final-Value: -14.778


	FINAL GENETIC ALGORITHM DOCKED STATE
	_______________________________________________


Detailed state:  trans 28.006 -16.569 -2.589 quatxyzw 0.083779 0.958268 -0.255762 -0.096382 center 0.578 -0.033 0.130 ntor 7 7.7302 -150.7980 54.0711 122.8026 170.0920 178.3197 45.2046
State:	 28.006 -16.569  -2.589   0.084  0.963 -0.257 -168.938      7.73 -150.80   54.07  122.80  170.09  178.32   45.20

DOCKED: MODEL       66
DOCKED: USER    Run = 66
DOCKED: USER    DPF = ligand_dock.biased.dpf
DOCKED: USER  
DOCKED: USER    Estimated Free Energy of Binding    =  -11.62 kcal/mol  [=(1)+(2)+(3)-(4)]
DOCKED: USER    Estimated Inhibition Constant, Ki   =    3.05 nM (nanomolar)  [Temperature = 298.15 K]
DOCKED: USER    
DOCKED: USER    (1) Final Intermolecular Energy     =  -13.71 kcal/mol
DOCKED: USER        vdW + Hbond + desolv Energy     =  -13.71 kcal/mol
DOCKED: USER        Electrostatic Energy            =   +0.00 kcal/mol
DOCKED: USER    (2) Final Total Internal Energy     =   -1.07 kcal/mol
DOCKED: USER    (3) Torsional Free Energy           =   +2.09 kcal/mol
DOCKED: USER    (4) Unbound System's Energy  [=(2)] =   -1.07 kcal/mol
DOCKED: USER    
DOCKED: USER    
DOCKED: USER    NEWDPF move ligand.pdbqt
DOCKED: USER    NEWDPF about 0.578000 -0.033000 0.130000
DOCKED: USER    NEWDPF tran0 28.006283 -16.568689 -2.588659
DOCKED: USER    NEWDPF quaternion0 0.083779 0.958268 -0.255762 -0.096382
DOCKED: USER    NEWDPF axisangle0 0.084171 0.962750 -0.256958 -168.938217
DOCKED: USER    NEWDPF quat0 0.084171 0.962750 -0.256958 -168.938217
DOCKED: USER    NEWDPF dihe0 7.73 -150.80 54.07 122.80 170.09 178.32 45.20 
DOCKED: USER  keepresnum = 1 
DOCKED: USER  
DOCKED: REMARK  Name = 
DOCKED: REMARK  8 active torsions:
DOCKED: REMARK  status: ('A' for Active; 'I' for Inactive)
DOCKED: REMARK    1  A    between atoms: C_2  and  C_3
DOCKED: REMARK    2  A    between atoms: C_4  and  C_5
DOCKED: REMARK    3  A    between atoms: C_8  and  C_9
DOCKED: REMARK    4  A    between atoms: C_9  and  N_10
DOCKED: REMARK    5  A    between atoms: N_10  and  C_11
DOCKED: REMARK    6  A    between atoms: C_11  and  C_12
DOCKED: REMARK    7  A    between atoms: C_12  and  C_13
DOCKED: REMARK    8  A    between atoms: C_14  and  C_22
DOCKED: REMARK                            x       y       z     vdW  Elec       q    Type
DOCKED: REMARK                         _______ _______ _______ _____ _____    ______ ____
DOCKED: USER                              x       y       z     vdW  Elec       q    Type
DOCKED: USER                           _______ _______ _______ _____ _____    ______ ____
DOCKED: ROOT
DOCKED: ATOM      1  N   UNL     1      28.750 -16.730  -2.753 -0.27 -0.00    +0.000 N 
DOCKED: ATOM      2  H   UNL     1      28.485 -16.459  -3.700 -0.02 -0.00    +0.000 HD
DOCKED: ATOM      3  H   UNL     1      28.598 -17.726  -2.594 -0.01 -0.00    +0.000 HD
DOCKED: ENDROOT
DOCKED: BRANCH   1   4
DOCKED: ATOM      4  C   UNL     1      27.912 -15.990  -1.800 -0.31 -0.00    +0.000 C 
DOCKED: BRANCH   4   8
DOCKED: ATOM      5  C   UNL     1      24.353 -18.254  -0.843 -0.69 -0.00    +0.000 A 
DOCKED: ATOM      6  C   UNL     1      25.569 -18.516  -0.182 -0.52 -0.00    +0.000 A 
DOCKED: ATOM      7  C   UNL     1      26.721 -17.791  -0.501 -0.50 -0.00    +0.000 A 
DOCKED: ATOM      8  C   UNL     1      26.682 -16.795  -1.487 -0.43 -0.00    +0.000 A 
DOCKED: ATOM      9  C   UNL     1      25.467 -16.509  -2.126 -0.51 -0.00    +0.000 A 
DOCKED: ATOM     10  C   UNL     1      24.314 -17.232  -1.806 -0.54 -0.00    +0.000 A 
DOCKED: BRANCH   5  12
DOCKED: ATOM     11  C   UNL     1      21.960 -18.834  -1.226 -0.74 -0.00    +0.000 C 
DOCKED: ATOM     12  C   UNL     1      23.099 -18.983  -0.532 -0.78 -0.00    +0.000 C 
DOCKED: BRANCH  11  14
DOCKED: ATOM     13  O   UNL     1      19.871 -19.735  -1.830 -2.40 -0.00    +0.000 OA
DOCKED: ATOM     14  C   UNL     1      20.715 -19.564  -0.910 -0.86 -0.00    +0.000 C 
DOCKED: ATOM     15  N   UNL     1      20.424 -20.056   0.404 -0.70 -0.00    +0.000 N 
DOCKED: ATOM     16  O   UNL     1      19.322 -20.810   0.618 -0.87 -0.00    +0.000 OA
DOCKED: ATOM     17  H   UNL     1      21.029 -19.844   1.152 -0.50 -0.00    +0.000 HD
DOCKED: ENDBRANCH  11  14
DOCKED: ENDBRANCH   5  12
DOCKED: ENDBRANCH   4   8
DOCKED: ENDBRANCH   1   4
DOCKED: BRANCH   1  18
DOCKED: ATOM     18  C   UNL     1      30.184 -16.458  -2.566 -0.17 -0.00    +0.000 C 
DOCKED: BRANCH  18  19
DOCKED: ATOM     19  C   UNL     1      30.772 -15.605  -3.701 -0.10 -0.00    +0.000 C 
DOCKED: BRANCH  19  20
DOCKED: ATOM     20  C   UNL     1      30.647 -16.324  -5.015 -0.18 -0.00    +0.000 A 
DOCKED: ATOM     21  C   UNL     1      30.403 -15.763  -6.268 -0.26 -0.00    +0.000 A 
DOCKED: ATOM     22  N   UNL     1      30.290 -16.727  -7.212 -0.31 -0.00    +0.000 N 
DOCKED: ATOM     23  C   UNL     1      30.438 -17.894  -6.562 -0.32 -0.00    +0.000 A 
DOCKED: ATOM     24  C   UNL     1      30.650 -17.690  -5.222 -0.26 -0.00    +0.000 A 
DOCKED: ATOM     25  C   UNL     1      30.812 -18.755  -4.334 -0.19 -0.00    +0.000 A 
DOCKED: ATOM     26  C   UNL     1      30.758 -20.060  -4.857 -0.25 -0.00    +0.000 A 
DOCKED: ATOM     27  C   UNL     1      30.544 -20.270  -6.237 -0.40 -0.00    +0.000 A 
DOCKED: ATOM     28  C   UNL     1      30.380 -19.176  -7.107 -0.38 -0.00    +0.000 A 
DOCKED: ATOM     29  C   UNL     1      30.295 -14.300  -6.564 -0.22 -0.00    +0.000 C 
DOCKED: ATOM     30  H   UNL     1      30.131 -16.599  -8.175 -0.03 -0.00    +0.000 HD
DOCKED: ENDBRANCH  19  20
DOCKED: ENDBRANCH  18  19
DOCKED: ENDBRANCH   1  18
DOCKED: TORSDOF 7
DOCKED: TER
DOCKED: ENDMDL
________________________________________________________________________________


	BEGINNING GENETIC ALGORITHM DOCKING 67 of 100
Run: 67 Seed: 1118120531 996862690 [ Run 67 of 100 GA/GALS ]
Beginning LAMARCKIAN GENETIC ALGORITHM (LGA), with a maximum of 2500000 energy evaluations.

Final-Value: -15.259


	FINAL GENETIC ALGORITHM DOCKED STATE
	_______________________________________________


Detailed state:  trans 28.306 -17.154 -1.850 quatxyzw -0.333958 0.849339 -0.396066 0.101131 center 0.578 -0.033 0.130 ntor 7 -109.6011 -24.0013 140.9321 60.9217 -179.2806 -173.2607 -31.7871
State:	 28.306 -17.154  -1.850  -0.336  0.854 -0.398 168.391   -109.60  -24.00  140.93   60.92 -179.28 -173.26  -31.79

DOCKED: MODEL       67
DOCKED: USER    Run = 67
DOCKED: USER    DPF = ligand_dock.biased.dpf
DOCKED: USER  
DOCKED: USER    Estimated Free Energy of Binding    =  -12.12 kcal/mol  [=(1)+(2)+(3)-(4)]
DOCKED: USER    Estimated Inhibition Constant, Ki   =    1.32 nM (nanomolar)  [Temperature = 298.15 K]
DOCKED: USER    
DOCKED: USER    (1) Final Intermolecular Energy     =  -14.20 kcal/mol
DOCKED: USER        vdW + Hbond + desolv Energy     =  -14.20 kcal/mol
DOCKED: USER        Electrostatic Energy            =   +0.00 kcal/mol
DOCKED: USER    (2) Final Total Internal Energy     =   -1.06 kcal/mol
DOCKED: USER    (3) Torsional Free Energy           =   +2.09 kcal/mol
DOCKED: USER    (4) Unbound System's Energy  [=(2)] =   -1.06 kcal/mol
DOCKED: USER    
DOCKED: USER    
DOCKED: USER    NEWDPF move ligand.pdbqt
DOCKED: USER    NEWDPF about 0.578000 -0.033000 0.130000
DOCKED: USER    NEWDPF tran0 28.306021 -17.153774 -1.849712
DOCKED: USER    NEWDPF quaternion0 -0.333958 0.849339 -0.396066 0.101131
DOCKED: USER    NEWDPF axisangle0 -0.335679 0.853715 -0.398107 168.391347
DOCKED: USER    NEWDPF quat0 -0.335679 0.853715 -0.398107 168.391347
DOCKED: USER    NEWDPF dihe0 -109.60 -24.00 140.93 60.92 -179.28 -173.26 -31.79 
DOCKED: USER  keepresnum = 1 
DOCKED: USER  
DOCKED: REMARK  Name = 
DOCKED: REMARK  8 active torsions:
DOCKED: REMARK  status: ('A' for Active; 'I' for Inactive)
DOCKED: REMARK    1  A    between atoms: C_2  and  C_3
DOCKED: REMARK    2  A    between atoms: C_4  and  C_5
DOCKED: REMARK    3  A    between atoms: C_8  and  C_9
DOCKED: REMARK    4  A    between atoms: C_9  and  N_10
DOCKED: REMARK    5  A    between atoms: N_10  and  C_11
DOCKED: REMARK    6  A    between atoms: C_11  and  C_12
DOCKED: REMARK    7  A    between atoms: C_12  and  C_13
DOCKED: REMARK    8  A    between atoms: C_14  and  C_22
DOCKED: REMARK                            x       y       z     vdW  Elec       q    Type
DOCKED: REMARK                         _______ _______ _______ _____ _____    ______ ____
DOCKED: USER                              x       y       z     vdW  Elec       q    Type
DOCKED: USER                           _______ _______ _______ _____ _____    ______ ____
DOCKED: ROOT
DOCKED: ATOM      1  N   UNL     1      28.804 -17.010  -2.431 -0.26 -0.00    +0.000 N 
DOCKED: ATOM      2  H   UNL     1      28.078 -17.433  -3.010 -0.01 -0.00    +0.000 HD
DOCKED: ATOM      3  H   UNL     1      29.457 -17.711  -2.082 -0.02 -0.00    +0.000 HD
DOCKED: ENDROOT
DOCKED: BRANCH   1   4
DOCKED: ATOM      4  C   UNL     1      28.168 -16.372  -1.271 -0.33 -0.00    +0.000 C 
DOCKED: BRANCH   4   8
DOCKED: ATOM      5  C   UNL     1      24.068 -17.690  -0.878 -0.68 -0.00    +0.000 A 
DOCKED: ATOM      6  C   UNL     1      25.102 -18.349  -0.183 -0.57 -0.00    +0.000 A 
DOCKED: ATOM      7  C   UNL     1      26.429 -17.928  -0.321 -0.55 -0.00    +0.000 A 
DOCKED: ATOM      8  C   UNL     1      26.747 -16.847  -1.156 -0.44 -0.00    +0.000 A 
DOCKED: ATOM      9  C   UNL     1      25.717 -16.169  -1.824 -0.48 -0.00    +0.000 A 
DOCKED: ATOM     10  C   UNL     1      24.390 -16.588  -1.685 -0.48 -0.00    +0.000 A 
DOCKED: BRANCH   5  12
DOCKED: ATOM     11  C   UNL     1      22.214 -19.356  -0.835 -0.75 -0.00    +0.000 C 
DOCKED: ATOM     12  C   UNL     1      22.643 -18.086  -0.755 -0.82 -0.00    +0.000 C 
DOCKED: BRANCH  11  14
DOCKED: ATOM     13  O   UNL     1      20.078 -19.733  -1.747 -2.36 -0.00    +0.000 OA
DOCKED: ATOM     14  C   UNL     1      20.794 -19.743  -0.710 -0.82 -0.00    +0.000 C 
DOCKED: ATOM     15  N   UNL     1      20.202 -20.099   0.545 -0.71 -0.00    +0.000 N 
DOCKED: ATOM     16  O   UNL     1      18.926 -20.548   0.591 -0.87 -0.00    +0.000 OA
DOCKED: ATOM     17  H   UNL     1      20.725 -20.016   1.376 -0.43 -0.00    +0.000 HD
DOCKED: ENDBRANCH  11  14
DOCKED: ENDBRANCH   5  12
DOCKED: ENDBRANCH   4   8
DOCKED: ENDBRANCH   1   4
DOCKED: BRANCH   1  18
DOCKED: ATOM     18  C   UNL     1      29.565 -16.054  -3.249 -0.21 -0.00    +0.000 C 
DOCKED: BRANCH  18  19
DOCKED: ATOM     19  C   UNL     1      28.792 -15.603  -4.498 -0.32 -0.00    +0.000 C 
DOCKED: BRANCH  19  20
DOCKED: ATOM     20  C   UNL     1      29.590 -15.890  -5.739 -0.30 -0.00    +0.000 A 
DOCKED: ATOM     21  C   UNL     1      29.903 -15.003  -6.769 -0.29 -0.00    +0.000 A 
DOCKED: ATOM     22  N   UNL     1      30.582 -15.635  -7.755 -0.28 -0.00    +0.000 N 
DOCKED: ATOM     23  C   UNL     1      30.680 -16.918  -7.368 -0.27 -0.00    +0.000 A 
DOCKED: ATOM     24  C   UNL     1      30.082 -17.114  -6.149 -0.30 -0.00    +0.000 A 
DOCKED: ATOM     25  C   UNL     1      30.036 -18.373  -5.548 -0.26 -0.00    +0.000 A 
DOCKED: ATOM     26  C   UNL     1      30.634 -19.449  -6.229 -0.37 -0.00    +0.000 A 
DOCKED: ATOM     27  C   UNL     1      31.254 -19.247  -7.481 -0.30 -0.00    +0.000 A 
DOCKED: ATOM     28  C   UNL     1      31.280 -17.966  -8.066 -0.30 -0.00    +0.000 A 
DOCKED: ATOM     29  C   UNL     1      29.567 -13.545  -6.800 -0.25 -0.00    +0.000 C 
DOCKED: ATOM     30  H   UNL     1      30.931 -15.237  -8.586 -0.20 -0.00    +0.000 HD
DOCKED: ENDBRANCH  19  20
DOCKED: ENDBRANCH  18  19
DOCKED: ENDBRANCH   1  18
DOCKED: TORSDOF 7
DOCKED: TER
DOCKED: ENDMDL
________________________________________________________________________________


	BEGINNING GENETIC ALGORITHM DOCKING 68 of 100
Run: 68 Seed: 687557153 562253078 [ Run 68 of 100 GA/GALS ]
Beginning LAMARCKIAN GENETIC ALGORITHM (LGA), with a maximum of 2500000 energy evaluations.

Final-Value: -15.904


	FINAL GENETIC ALGORITHM DOCKED STATE
	_______________________________________________


Detailed state:  trans 28.409 -16.426 0.154 quatxyzw -0.176411 -0.117407 -0.753924 -0.621847 center 0.578 -0.033 0.130 ntor 7 -117.3514 160.1727 -163.2074 171.6364 175.8000 99.3150 72.3018
State:	 28.409 -16.426   0.154  -0.225 -0.150 -0.963 -103.098   -117.35  160.17 -163.21  171.64  175.80   99.31   72.30

DOCKED: MODEL       68
DOCKED: USER    Run = 68
DOCKED: USER    DPF = ligand_dock.biased.dpf
DOCKED: USER  
DOCKED: USER    Estimated Free Energy of Binding    =  -12.31 kcal/mol  [=(1)+(2)+(3)-(4)]
DOCKED: USER    Estimated Inhibition Constant, Ki   =  950.93 pM (picomolar)  [Temperature = 298.15 K]
DOCKED: USER    
DOCKED: USER    (1) Final Intermolecular Energy     =  -14.40 kcal/mol
DOCKED: USER        vdW + Hbond + desolv Energy     =  -14.40 kcal/mol
DOCKED: USER        Electrostatic Energy            =   +0.00 kcal/mol
DOCKED: USER    (2) Final Total Internal Energy     =   -1.51 kcal/mol
DOCKED: USER    (3) Torsional Free Energy           =   +2.09 kcal/mol
DOCKED: USER    (4) Unbound System's Energy  [=(2)] =   -1.51 kcal/mol
DOCKED: USER    
DOCKED: USER    
DOCKED: USER    NEWDPF move ligand.pdbqt
DOCKED: USER    NEWDPF about 0.578000 -0.033000 0.130000
DOCKED: USER    NEWDPF tran0 28.408863 -16.425746 0.154101
DOCKED: USER    NEWDPF quaternion0 -0.176411 -0.117407 -0.753924 -0.621847
DOCKED: USER    NEWDPF axisangle0 -0.225261 -0.149919 -0.962695 -103.097702
DOCKED: USER    NEWDPF quat0 -0.225261 -0.149919 -0.962695 -103.097702
DOCKED: USER    NEWDPF dihe0 -117.35 160.17 -163.21 171.64 175.80 99.31 72.30 
DOCKED: USER  keepresnum = 1 
DOCKED: USER  
DOCKED: REMARK  Name = 
DOCKED: REMARK  8 active torsions:
DOCKED: REMARK  status: ('A' for Active; 'I' for Inactive)
DOCKED: REMARK    1  A    between atoms: C_2  and  C_3
DOCKED: REMARK    2  A    between atoms: C_4  and  C_5
DOCKED: REMARK    3  A    between atoms: C_8  and  C_9
DOCKED: REMARK    4  A    between atoms: C_9  and  N_10
DOCKED: REMARK    5  A    between atoms: N_10  and  C_11
DOCKED: REMARK    6  A    between atoms: C_11  and  C_12
DOCKED: REMARK    7  A    between atoms: C_12  and  C_13
DOCKED: REMARK    8  A    between atoms: C_14  and  C_22
DOCKED: REMARK                            x       y       z     vdW  Elec       q    Type
DOCKED: REMARK                         _______ _______ _______ _____ _____    ______ ____
DOCKED: USER                              x       y       z     vdW  Elec       q    Type
DOCKED: USER                           _______ _______ _______ _____ _____    ______ ____
DOCKED: ROOT
DOCKED: ATOM      1  N   UNL     1      28.657 -15.688   0.159 -0.22 -0.00    +0.000 N 
DOCKED: ATOM      2  H   UNL     1      29.262 -16.012   0.914 -0.74 -0.00    +0.000 HD
DOCKED: ATOM      3  H   UNL     1      27.760 -15.359   0.516 -0.08 -0.00    +0.000 HD
DOCKED: ENDROOT
DOCKED: BRANCH   1   4
DOCKED: ATOM      4  C   UNL     1      28.394 -16.812  -0.749 -0.34 -0.00    +0.000 C 
DOCKED: BRANCH   4   8
DOCKED: ATOM      5  C   UNL     1      24.166 -17.715  -0.853 -0.67 -0.00    +0.000 A 
DOCKED: ATOM      6  C   UNL     1      24.717 -16.763  -1.733 -0.56 -0.00    +0.000 A 
DOCKED: ATOM      7  C   UNL     1      26.083 -16.464  -1.690 -0.46 -0.00    +0.000 A 
DOCKED: ATOM      8  C   UNL     1      26.921 -17.106  -0.766 -0.46 -0.00    +0.000 A 
DOCKED: ATOM      9  C   UNL     1      26.382 -18.078   0.089 -0.53 -0.00    +0.000 A 
DOCKED: ATOM     10  C   UNL     1      25.018 -18.379   0.045 -0.50 -0.00    +0.000 A 
DOCKED: BRANCH   5  12
DOCKED: ATOM     11  C   UNL     1      22.280 -19.342  -0.770 -0.76 -0.00    +0.000 C 
DOCKED: ATOM     12  C   UNL     1      22.728 -18.081  -0.868 -0.81 -0.00    +0.000 C 
DOCKED: BRANCH  11  14
DOCKED: ATOM     13  O   UNL     1      20.251 -19.740  -1.894 -2.36 -0.00    +0.000 OA
DOCKED: ATOM     14  C   UNL     1      20.846 -19.698  -0.785 -0.81 -0.00    +0.000 C 
DOCKED: ATOM     15  N   UNL     1      20.109 -19.967   0.415 -0.72 -0.00    +0.000 N 
DOCKED: ATOM     16  O   UNL     1      18.826 -20.392   0.342 -0.93 -0.00    +0.000 OA
DOCKED: ATOM     17  H   UNL     1      20.537 -19.842   1.292 -0.26 -0.00    +0.000 HD
DOCKED: ENDBRANCH  11  14
DOCKED: ENDBRANCH   5  12
DOCKED: ENDBRANCH   4   8
DOCKED: ENDBRANCH   1   4
DOCKED: BRANCH   1  18
DOCKED: ATOM     18  C   UNL     1      29.312 -14.559  -0.521 -0.13 -0.00    +0.000 C 
DOCKED: BRANCH  18  19
DOCKED: ATOM     19  C   UNL     1      29.419 -13.316   0.375 -0.08 -0.00    +0.000 C 
DOCKED: BRANCH  19  20
DOCKED: ATOM     20  C   UNL     1      28.560 -13.476   1.597 -0.17 -0.00    +0.000 A 
DOCKED: ATOM     21  C   UNL     1      27.167 -13.426   1.667 -0.27 -0.00    +0.000 A 
DOCKED: ATOM     22  N   UNL     1      26.746 -13.547   2.948 -0.35 -0.00    +0.000 N 
DOCKED: ATOM     23  C   UNL     1      27.861 -13.650   3.691 -0.40 -0.00    +0.000 A 
DOCKED: ATOM     24  C   UNL     1      28.985 -13.603   2.906 -0.22 -0.00    +0.000 A 
DOCKED: ATOM     25  C   UNL     1      30.267 -13.669   3.454 -0.18 -0.00    +0.000 A 
DOCKED: ATOM     26  C   UNL     1      30.378 -13.794   4.851 -0.26 -0.00    +0.000 A 
DOCKED: ATOM     27  C   UNL     1      29.222 -13.847   5.659 -0.34 -0.00    +0.000 A 
DOCKED: ATOM     28  C   UNL     1      27.942 -13.772   5.078 -0.47 -0.00    +0.000 A 
DOCKED: ATOM     29  C   UNL     1      26.239 -13.280   0.502 -0.33 -0.00    +0.000 C 
DOCKED: ATOM     30  H   UNL     1      25.815 -13.557   3.269 +0.01 +0.00    +0.000 HD
DOCKED: ENDBRANCH  19  20
DOCKED: ENDBRANCH  18  19
DOCKED: ENDBRANCH   1  18
DOCKED: TORSDOF 7
DOCKED: TER
DOCKED: ENDMDL
________________________________________________________________________________


	BEGINNING GENETIC ALGORITHM DOCKING 69 of 100
Run: 69 Seed: 1608694296 1976115576 [ Run 69 of 100 GA/GALS ]
Beginning LAMARCKIAN GENETIC ALGORITHM (LGA), with a maximum of 2500000 energy evaluations.

Final-Value: -15.381


	FINAL GENETIC ALGORITHM DOCKED STATE
	_______________________________________________


Detailed state:  trans 28.447 -14.919 -0.937 quatxyzw 0.474006 -0.400102 -0.286549 0.730155 center 0.578 -0.033 0.130 ntor 7 -38.5028 -92.1380 62.7359 82.5233 -13.5737 152.7715 -156.9169
State:	 28.447 -14.919  -0.937   0.694 -0.586 -0.419 86.201    -38.50  -92.14   62.74   82.52  -13.57  152.77 -156.92

DOCKED: MODEL       69
DOCKED: USER    Run = 69
DOCKED: USER    DPF = ligand_dock.biased.dpf
DOCKED: USER  
DOCKED: USER    Estimated Free Energy of Binding    =  -12.40 kcal/mol  [=(1)+(2)+(3)-(4)]
DOCKED: USER    Estimated Inhibition Constant, Ki   =  810.74 pM (picomolar)  [Temperature = 298.15 K]
DOCKED: USER    
DOCKED: USER    (1) Final Intermolecular Energy     =  -14.49 kcal/mol
DOCKED: USER        vdW + Hbond + desolv Energy     =  -14.49 kcal/mol
DOCKED: USER        Electrostatic Energy            =   +0.00 kcal/mol
DOCKED: USER    (2) Final Total Internal Energy     =   -0.89 kcal/mol
DOCKED: USER    (3) Torsional Free Energy           =   +2.09 kcal/mol
DOCKED: USER    (4) Unbound System's Energy  [=(2)] =   -0.89 kcal/mol
DOCKED: USER    
DOCKED: USER    
DOCKED: USER    NEWDPF move ligand.pdbqt
DOCKED: USER    NEWDPF about 0.578000 -0.033000 0.130000
DOCKED: USER    NEWDPF tran0 28.446846 -14.918702 -0.937256
DOCKED: USER    NEWDPF quaternion0 0.474006 -0.400102 -0.286549 0.730155
DOCKED: USER    NEWDPF axisangle0 0.693720 -0.585560 -0.419371 86.201201
DOCKED: USER    NEWDPF quat0 0.693720 -0.585560 -0.419371 86.201201
DOCKED: USER    NEWDPF dihe0 -38.50 -92.14 62.74 82.52 -13.57 152.77 -156.92 
DOCKED: USER  keepresnum = 1 
DOCKED: USER  
DOCKED: REMARK  Name = 
DOCKED: REMARK  8 active torsions:
DOCKED: REMARK  status: ('A' for Active; 'I' for Inactive)
DOCKED: REMARK    1  A    between atoms: C_2  and  C_3
DOCKED: REMARK    2  A    between atoms: C_4  and  C_5
DOCKED: REMARK    3  A    between atoms: C_8  and  C_9
DOCKED: REMARK    4  A    between atoms: C_9  and  N_10
DOCKED: REMARK    5  A    between atoms: N_10  and  C_11
DOCKED: REMARK    6  A    between atoms: C_11  and  C_12
DOCKED: REMARK    7  A    between atoms: C_12  and  C_13
DOCKED: REMARK    8  A    between atoms: C_14  and  C_22
DOCKED: REMARK                            x       y       z     vdW  Elec       q    Type
DOCKED: REMARK                         _______ _______ _______ _____ _____    ______ ____
DOCKED: USER                              x       y       z     vdW  Elec       q    Type
DOCKED: USER                           _______ _______ _______ _____ _____    ______ ____
DOCKED: ROOT
DOCKED: ATOM      1  N   UNL     1      28.112 -14.608  -0.307 -0.18 -0.00    +0.000 N 
DOCKED: ATOM      2  H   UNL     1      28.069 -13.765  -0.881 +0.00 -0.00    +0.000 HD
DOCKED: ATOM      3  H   UNL     1      28.985 -14.658   0.217 -0.03 -0.00    +0.000 HD
DOCKED: ENDROOT
DOCKED: BRANCH   1   4
DOCKED: ATOM      4  C   UNL     1      28.048 -15.781  -1.189 -0.29 -0.00    +0.000 C 
DOCKED: BRANCH   4   8
DOCKED: ATOM      5  C   UNL     1      24.263 -17.770  -0.540 -0.66 -0.00    +0.000 A 
DOCKED: ATOM      6  C   UNL     1      25.443 -18.266   0.048 -0.57 -0.00    +0.000 A 
DOCKED: ATOM      7  C   UNL     1      26.668 -17.628  -0.172 -0.50 -0.00    +0.000 A 
DOCKED: ATOM      8  C   UNL     1      26.737 -16.488  -0.986 -0.42 -0.00    +0.000 A 
DOCKED: ATOM      9  C   UNL     1      25.560 -15.972  -1.547 -0.47 -0.00    +0.000 A 
DOCKED: ATOM     10  C   UNL     1      24.335 -16.608  -1.325 -0.50 -0.00    +0.000 A 
DOCKED: BRANCH   5  12
DOCKED: ATOM     11  C   UNL     1      22.221 -18.978  -1.303 -0.76 -0.00    +0.000 C 
DOCKED: ATOM     12  C   UNL     1      22.936 -18.399  -0.326 -0.82 -0.00    +0.000 C 
DOCKED: BRANCH  11  14
DOCKED: ATOM     13  O   UNL     1      20.131 -19.742  -2.069 -2.34 -0.00    +0.000 OA
DOCKED: ATOM     14  C   UNL     1      20.902 -19.604  -1.082 -0.80 -0.00    +0.000 C 
DOCKED: ATOM     15  N   UNL     1      20.461 -20.031   0.213 -0.71 -0.00    +0.000 N 
DOCKED: ATOM     16  O   UNL     1      19.289 -20.695   0.347 -0.95 -0.00    +0.000 OA
DOCKED: ATOM     17  H   UNL     1      21.012 -19.841   1.007 -0.47 -0.00    +0.000 HD
DOCKED: ENDBRANCH  11  14
DOCKED: ENDBRANCH   5  12
DOCKED: ENDBRANCH   4   8
DOCKED: ENDBRANCH   1   4
DOCKED: BRANCH   1  18
DOCKED: ATOM     18  C   UNL     1      27.006 -14.576   0.663 -0.24 -0.00    +0.000 C 
DOCKED: BRANCH  18  19
DOCKED: ATOM     19  C   UNL     1      26.350 -13.190   0.762 -0.34 -0.00    +0.000 C 
DOCKED: BRANCH  19  20
DOCKED: ATOM     20  C   UNL     1      26.830 -12.471   1.991 -0.30 -0.00    +0.000 A 
DOCKED: ATOM     21  C   UNL     1      26.906 -11.092   2.190 -0.28 +0.00    +0.000 A 
DOCKED: ATOM     22  N   UNL     1      27.450 -10.812   3.398 -0.29 +0.00    +0.000 N 
DOCKED: ATOM     23  C   UNL     1      27.740 -12.001   3.954 -0.28 +0.00    +0.000 A 
DOCKED: ATOM     24  C   UNL     1      27.383 -13.034   3.124 -0.32 -0.00    +0.000 A 
DOCKED: ATOM     25  C   UNL     1      27.606 -14.367   3.475 -0.34 -0.00    +0.000 A 
DOCKED: ATOM     26  C   UNL     1      28.206 -14.627   4.721 -0.52 -0.00    +0.000 A 
DOCKED: ATOM     27  C   UNL     1      28.568 -13.564   5.576 -0.42 -0.00    +0.000 A 
DOCKED: ATOM     28  C   UNL     1      28.336 -12.229   5.193 -0.34 -0.00    +0.000 A 
DOCKED: ATOM     29  C   UNL     1      26.441 -10.043   1.230 -0.32 +0.00    +0.000 C 
DOCKED: ATOM     30  H   UNL     1      27.603  -9.921   3.788 -0.02 +0.00    +0.000 HD
DOCKED: ENDBRANCH  19  20
DOCKED: ENDBRANCH  18  19
DOCKED: ENDBRANCH   1  18
DOCKED: TORSDOF 7
DOCKED: TER
DOCKED: ENDMDL
________________________________________________________________________________


	BEGINNING GENETIC ALGORITHM DOCKING 70 of 100
Run: 70 Seed: 2069617918 246649361 [ Run 70 of 100 GA/GALS ]
Beginning LAMARCKIAN GENETIC ALGORITHM (LGA), with a maximum of 2500000 energy evaluations.

Final-Value: -15.505


	FINAL GENETIC ALGORITHM DOCKED STATE
	_______________________________________________


Detailed state:  trans 28.441 -15.890 0.107 quatxyzw 0.095428 -0.427703 -0.877258 -0.195915 center 0.578 -0.033 0.130 ntor 7 126.9597 -131.2870 20.1387 174.5140 158.6621 128.4123 9.5102
State:	 28.441 -15.890   0.107   0.097 -0.436 -0.895 -157.404    126.96 -131.29   20.14  174.51  158.66  128.41    9.51

DOCKED: MODEL       70
DOCKED: USER    Run = 70
DOCKED: USER    DPF = ligand_dock.biased.dpf
DOCKED: USER  
DOCKED: USER    Estimated Free Energy of Binding    =  -11.90 kcal/mol  [=(1)+(2)+(3)-(4)]
DOCKED: USER    Estimated Inhibition Constant, Ki   =    1.90 nM (nanomolar)  [Temperature = 298.15 K]
DOCKED: USER    
DOCKED: USER    (1) Final Intermolecular Energy     =  -13.99 kcal/mol
DOCKED: USER        vdW + Hbond + desolv Energy     =  -13.99 kcal/mol
DOCKED: USER        Electrostatic Energy            =   +0.00 kcal/mol
DOCKED: USER    (2) Final Total Internal Energy     =   -1.52 kcal/mol
DOCKED: USER    (3) Torsional Free Energy           =   +2.09 kcal/mol
DOCKED: USER    (4) Unbound System's Energy  [=(2)] =   -1.52 kcal/mol
DOCKED: USER    
DOCKED: USER    
DOCKED: USER    NEWDPF move ligand.pdbqt
DOCKED: USER    NEWDPF about 0.578000 -0.033000 0.130000
DOCKED: USER    NEWDPF tran0 28.441323 -15.890051 0.107462
DOCKED: USER    NEWDPF quaternion0 0.095428 -0.427703 -0.877258 -0.195915
DOCKED: USER    NEWDPF axisangle0 0.097314 -0.436155 -0.894594 -157.403621
DOCKED: USER    NEWDPF quat0 0.097314 -0.436155 -0.894594 -157.403621
DOCKED: USER    NEWDPF dihe0 126.96 -131.29 20.14 174.51 158.66 128.41 9.51 
DOCKED: USER  keepresnum = 1 
DOCKED: USER  
DOCKED: REMARK  Name = 
DOCKED: REMARK  8 active torsions:
DOCKED: REMARK  status: ('A' for Active; 'I' for Inactive)
DOCKED: REMARK    1  A    between atoms: C_2  and  C_3
DOCKED: REMARK    2  A    between atoms: C_4  and  C_5
DOCKED: REMARK    3  A    between atoms: C_8  and  C_9
DOCKED: REMARK    4  A    between atoms: C_9  and  N_10
DOCKED: REMARK    5  A    between atoms: N_10  and  C_11
DOCKED: REMARK    6  A    between atoms: C_11  and  C_12
DOCKED: REMARK    7  A    between atoms: C_12  and  C_13
DOCKED: REMARK    8  A    between atoms: C_14  and  C_22
DOCKED: REMARK                            x       y       z     vdW  Elec       q    Type
DOCKED: REMARK                         _______ _______ _______ _____ _____    ______ ____
DOCKED: USER                              x       y       z     vdW  Elec       q    Type
DOCKED: USER                           _______ _______ _______ _____ _____    ______ ____
DOCKED: ROOT
DOCKED: ATOM      1  N   UNL     1      28.990 -15.413   0.384 -0.19 -0.00    +0.000 N 
DOCKED: ATOM      2  H   UNL     1      28.489 -15.525   1.265 -0.82 -0.00    +0.000 HD
DOCKED: ATOM      3  H   UNL     1      28.623 -14.631  -0.157 -0.00 -0.00    +0.000 HD
DOCKED: ENDROOT
DOCKED: BRANCH   1   4
DOCKED: ATOM      4  C   UNL     1      28.817 -16.633  -0.415 -0.26 -0.00    +0.000 C 
DOCKED: BRANCH   4   8
DOCKED: ATOM      5  C   UNL     1      24.613 -17.484  -0.973 -0.64 -0.00    +0.000 A 
DOCKED: ATOM      6  C   UNL     1      25.218 -16.394  -1.632 -0.52 -0.00    +0.000 A 
DOCKED: ATOM      7  C   UNL     1      26.575 -16.114  -1.440 -0.39 -0.00    +0.000 A 
DOCKED: ATOM      8  C   UNL     1      27.350 -16.912  -0.587 -0.40 -0.00    +0.000 A 
DOCKED: ATOM      9  C   UNL     1      26.760 -18.016   0.045 -0.43 -0.00    +0.000 A 
DOCKED: ATOM     10  C   UNL     1      25.405 -18.298  -0.147 -0.58 -0.00    +0.000 A 
DOCKED: BRANCH   5  12
DOCKED: ATOM     11  C   UNL     1      22.457 -18.494  -0.237 -0.82 -0.00    +0.000 C 
DOCKED: ATOM     12  C   UNL     1      23.182 -17.834  -1.153 -0.75 -0.00    +0.000 C 
DOCKED: BRANCH  11  14
DOCKED: ATOM     13  O   UNL     1      20.292 -18.017  -1.027 -2.15 -0.00    +0.000 OA
DOCKED: ATOM     14  C   UNL     1      21.033 -18.838  -0.423 -0.82 -0.00    +0.000 C 
DOCKED: ATOM     15  N   UNL     1      20.464 -20.053   0.081 -0.72 -0.00    +0.000 N 
DOCKED: ATOM     16  O   UNL     1      19.180 -20.372  -0.207 -1.14 -0.00    +0.000 OA
DOCKED: ATOM     17  H   UNL     1      21.008 -20.656   0.638 -0.53 -0.00    +0.000 HD
DOCKED: ENDBRANCH  11  14
DOCKED: ENDBRANCH   5  12
DOCKED: ENDBRANCH   4   8
DOCKED: ENDBRANCH   1   4
DOCKED: BRANCH   1  18
DOCKED: ATOM     18  C   UNL     1      30.404 -15.132   0.677 -0.13 -0.00    +0.000 C 
DOCKED: BRANCH  18  19
DOCKED: ATOM     19  C   UNL     1      30.581 -14.218   1.900 -0.14 -0.00    +0.000 C 
DOCKED: BRANCH  19  20
DOCKED: ATOM     20  C   UNL     1      29.254 -13.659   2.331 -0.17 -0.00    +0.000 A 
DOCKED: ATOM     21  C   UNL     1      28.546 -13.961   3.495 -0.34 -0.00    +0.000 A 
DOCKED: ATOM     22  N   UNL     1      27.357 -13.314   3.513 -0.40 -0.00    +0.000 N 
DOCKED: ATOM     23  C   UNL     1      27.297 -12.624   2.362 -0.27 -0.00    +0.000 A 
DOCKED: ATOM     24  C   UNL     1      28.431 -12.814   1.612 -0.15 -0.00    +0.000 A 
DOCKED: ATOM     25  C   UNL     1      28.593 -12.216   0.362 -0.08 -0.00    +0.000 A 
DOCKED: ATOM     26  C   UNL     1      27.554 -11.395  -0.113 -0.12 -0.00    +0.000 A 
DOCKED: ATOM     27  C   UNL     1      26.389 -11.196   0.660 -0.26 +0.00    +0.000 A 
DOCKED: ATOM     28  C   UNL     1      26.252 -11.817   1.915 -0.30 +0.00    +0.000 A 
DOCKED: ATOM     29  C   UNL     1      29.017 -14.857   4.597 -0.43 -0.00    +0.000 C 
DOCKED: ATOM     30  H   UNL     1      26.676 -13.344   4.224 -0.03 +0.00    +0.000 HD
DOCKED: ENDBRANCH  19  20
DOCKED: ENDBRANCH  18  19
DOCKED: ENDBRANCH   1  18
DOCKED: TORSDOF 7
DOCKED: TER
DOCKED: ENDMDL
________________________________________________________________________________


	BEGINNING GENETIC ALGORITHM DOCKING 71 of 100
Run: 71 Seed: 203477949 557944335 [ Run 71 of 100 GA/GALS ]
Beginning LAMARCKIAN GENETIC ALGORITHM (LGA), with a maximum of 2500000 energy evaluations.

Final-Value: -14.513


	FINAL GENETIC ALGORITHM DOCKED STATE
	_______________________________________________


Detailed state:  trans 29.775 -14.458 -1.741 quatxyzw 0.893334 0.234188 0.381015 -0.044017 center 0.578 -0.033 0.130 ntor 7 -153.9996 -73.7438 -161.9846 105.2784 165.2957 56.6784 -178.0484
State:	 29.775 -14.458  -1.741   0.894  0.234  0.381 -174.954   -154.00  -73.74 -161.98  105.28  165.30   56.68 -178.05

DOCKED: MODEL       71
DOCKED: USER    Run = 71
DOCKED: USER    DPF = ligand_dock.biased.dpf
DOCKED: USER  
DOCKED: USER    Estimated Free Energy of Binding    =  -10.59 kcal/mol  [=(1)+(2)+(3)-(4)]
DOCKED: USER    Estimated Inhibition Constant, Ki   =   17.38 nM (nanomolar)  [Temperature = 298.15 K]
DOCKED: USER    
DOCKED: USER    (1) Final Intermolecular Energy     =  -12.67 kcal/mol
DOCKED: USER        vdW + Hbond + desolv Energy     =  -12.67 kcal/mol
DOCKED: USER        Electrostatic Energy            =   +0.00 kcal/mol
DOCKED: USER    (2) Final Total Internal Energy     =   -1.84 kcal/mol
DOCKED: USER    (3) Torsional Free Energy           =   +2.09 kcal/mol
DOCKED: USER    (4) Unbound System's Energy  [=(2)] =   -1.84 kcal/mol
DOCKED: USER    
DOCKED: USER    
DOCKED: USER    NEWDPF move ligand.pdbqt
DOCKED: USER    NEWDPF about 0.578000 -0.033000 0.130000
DOCKED: USER    NEWDPF tran0 29.774913 -14.458443 -1.741000
DOCKED: USER    NEWDPF quaternion0 0.893334 0.234188 0.381015 -0.044017
DOCKED: USER    NEWDPF axisangle0 0.894201 0.234415 0.381384 -174.954338
DOCKED: USER    NEWDPF quat0 0.894201 0.234415 0.381384 -174.954338
DOCKED: USER    NEWDPF dihe0 -154.00 -73.74 -161.98 105.28 165.30 56.68 -178.05 
DOCKED: USER  keepresnum = 1 
DOCKED: USER  
DOCKED: REMARK  Name = 
DOCKED: REMARK  8 active torsions:
DOCKED: REMARK  status: ('A' for Active; 'I' for Inactive)
DOCKED: REMARK    1  A    between atoms: C_2  and  C_3
DOCKED: REMARK    2  A    between atoms: C_4  and  C_5
DOCKED: REMARK    3  A    between atoms: C_8  and  C_9
DOCKED: REMARK    4  A    between atoms: C_9  and  N_10
DOCKED: REMARK    5  A    between atoms: N_10  and  C_11
DOCKED: REMARK    6  A    between atoms: C_11  and  C_12
DOCKED: REMARK    7  A    between atoms: C_12  and  C_13
DOCKED: REMARK    8  A    between atoms: C_14  and  C_22
DOCKED: REMARK                            x       y       z     vdW  Elec       q    Type
DOCKED: REMARK                         _______ _______ _______ _____ _____    ______ ____
DOCKED: USER                              x       y       z     vdW  Elec       q    Type
DOCKED: USER                           _______ _______ _______ _____ _____    ______ ____
DOCKED: ROOT
DOCKED: ATOM      1  N   UNL     1      29.621 -14.827  -2.409 -0.09 -0.00    +0.000 N 
DOCKED: ATOM      2  H   UNL     1      30.606 -15.091  -2.362 +0.00 -0.00    +0.000 HD
DOCKED: ATOM      3  H   UNL     1      29.496 -13.943  -2.901 +0.01 -0.00    +0.000 HD
DOCKED: ENDROOT
DOCKED: BRANCH   1   4
DOCKED: ATOM      4  C   UNL     1      29.114 -14.656  -1.041 -0.13 -0.00    +0.000 C 
DOCKED: BRANCH   4   8
DOCKED: ATOM      5  C   UNL     1      25.365 -16.756  -0.547 -0.42 -0.00    +0.000 A 
DOCKED: ATOM      6  C   UNL     1      26.587 -17.458  -0.534 -0.51 -0.00    +0.000 A 
DOCKED: ATOM      7  C   UNL     1      27.797 -16.778  -0.705 -0.36 -0.00    +0.000 A 
DOCKED: ATOM      8  C   UNL     1      27.810 -15.389  -0.897 -0.24 -0.00    +0.000 A 
DOCKED: ATOM      9  C   UNL     1      26.598 -14.682  -0.879 -0.29 -0.00    +0.000 A 
DOCKED: ATOM     10  C   UNL     1      25.388 -15.361  -0.706 -0.19 -0.00    +0.000 A 
DOCKED: BRANCH   5  12
DOCKED: ATOM     11  C   UNL     1      23.257 -17.803  -1.365 -0.69 -0.00    +0.000 C 
DOCKED: ATOM     12  C   UNL     1      24.055 -17.426  -0.354 -0.64 -0.00    +0.000 C 
DOCKED: BRANCH  11  14
DOCKED: ATOM     13  O   UNL     1      21.194 -18.041  -0.258 -1.66 -0.00    +0.000 OA
DOCKED: ATOM     14  C   UNL     1      21.955 -18.471  -1.166 -0.69 -0.00    +0.000 C 
DOCKED: ATOM     15  N   UNL     1      21.543 -19.601  -1.945 -0.25 -0.00    +0.000 N 
DOCKED: ATOM     16  O   UNL     1      20.298 -20.110  -1.797 -2.26 -0.00    +0.000 OA
DOCKED: ATOM     17  H   UNL     1      22.168 -20.007  -2.589 -0.61 -0.00    +0.000 HD
DOCKED: ENDBRANCH  11  14
DOCKED: ENDBRANCH   5  12
DOCKED: ENDBRANCH   4   8
DOCKED: ENDBRANCH   1   4
DOCKED: BRANCH   1  18
DOCKED: ATOM     18  C   UNL     1      28.888 -15.863  -3.153 -0.24 -0.00    +0.000 C 
DOCKED: BRANCH  18  19
DOCKED: ATOM     19  C   UNL     1      28.415 -15.374  -4.530 -0.34 -0.00    +0.000 C 
DOCKED: BRANCH  19  20
DOCKED: ATOM     20  C   UNL     1      27.179 -14.531  -4.391 -0.36 -0.00    +0.000 A 
DOCKED: ATOM     21  C   UNL     1      25.894 -14.960  -4.060 -0.53 -0.00    +0.000 A 
DOCKED: ATOM     22  N   UNL     1      25.020 -13.926  -4.092 -0.53 -0.00    +0.000 N 
DOCKED: ATOM     23  C   UNL     1      25.738 -12.852  -4.463 -0.32 -0.00    +0.000 A 
DOCKED: ATOM     24  C   UNL     1      27.055 -13.182  -4.661 -0.26 -0.00    +0.000 A 
DOCKED: ATOM     25  C   UNL     1      27.995 -12.236  -5.073 -0.14 -0.00    +0.000 A 
DOCKED: ATOM     26  C   UNL     1      27.553 -10.915  -5.275 -0.11 -0.00    +0.000 A 
DOCKED: ATOM     27  C   UNL     1      26.198 -10.575  -5.067 -0.21 -0.00    +0.000 A 
DOCKED: ATOM     28  C   UNL     1      25.272 -11.552  -4.657 -0.31 -0.00    +0.000 A 
DOCKED: ATOM     29  C   UNL     1      25.506 -16.359  -3.695 -0.09 -0.00    +0.000 C 
DOCKED: ATOM     30  H   UNL     1      24.058 -13.955  -3.887 -0.21 -0.00    +0.000 HD
DOCKED: ENDBRANCH  19  20
DOCKED: ENDBRANCH  18  19
DOCKED: ENDBRANCH   1  18
DOCKED: TORSDOF 7
DOCKED: TER
DOCKED: ENDMDL
________________________________________________________________________________


	BEGINNING GENETIC ALGORITHM DOCKING 72 of 100
Run: 72 Seed: 175214554 1744664337 [ Run 72 of 100 GA/GALS ]
Beginning LAMARCKIAN GENETIC ALGORITHM (LGA), with a maximum of 2500000 energy evaluations.

Final-Value: -15.260


	FINAL GENETIC ALGORITHM DOCKED STATE
	_______________________________________________


Detailed state:  trans 28.883 -14.966 1.180 quatxyzw -0.186771 -0.016063 0.944966 0.268137 center 0.578 -0.033 0.130 ntor 7 114.0658 62.6775 13.0194 -172.9290 -15.4579 52.5070 8.6048
State:	 28.883 -14.966   1.180  -0.194 -0.017  0.981 148.893    114.07   62.68   13.02 -172.93  -15.46   52.51    8.60

DOCKED: MODEL       72
DOCKED: USER    Run = 72
DOCKED: USER    DPF = ligand_dock.biased.dpf
DOCKED: USER  
DOCKED: USER    Estimated Free Energy of Binding    =  -11.78 kcal/mol  [=(1)+(2)+(3)-(4)]
DOCKED: USER    Estimated Inhibition Constant, Ki   =    2.33 nM (nanomolar)  [Temperature = 298.15 K]
DOCKED: USER    
DOCKED: USER    (1) Final Intermolecular Energy     =  -13.86 kcal/mol
DOCKED: USER        vdW + Hbond + desolv Energy     =  -13.86 kcal/mol
DOCKED: USER        Electrostatic Energy            =   +0.00 kcal/mol
DOCKED: USER    (2) Final Total Internal Energy     =   -1.40 kcal/mol
DOCKED: USER    (3) Torsional Free Energy           =   +2.09 kcal/mol
DOCKED: USER    (4) Unbound System's Energy  [=(2)] =   -1.40 kcal/mol
DOCKED: USER    
DOCKED: USER    
DOCKED: USER    NEWDPF move ligand.pdbqt
DOCKED: USER    NEWDPF about 0.578000 -0.033000 0.130000
DOCKED: USER    NEWDPF tran0 28.883329 -14.965857 1.180081
DOCKED: USER    NEWDPF quaternion0 -0.186771 -0.016063 0.944966 0.268137
DOCKED: USER    NEWDPF axisangle0 -0.193870 -0.016673 0.980885 148.893117
DOCKED: USER    NEWDPF quat0 -0.193870 -0.016673 0.980885 148.893117
DOCKED: USER    NEWDPF dihe0 114.07 62.68 13.02 -172.93 -15.46 52.51 8.60 
DOCKED: USER  keepresnum = 1 
DOCKED: USER  
DOCKED: REMARK  Name = 
DOCKED: REMARK  8 active torsions:
DOCKED: REMARK  status: ('A' for Active; 'I' for Inactive)
DOCKED: REMARK    1  A    between atoms: C_2  and  C_3
DOCKED: REMARK    2  A    between atoms: C_4  and  C_5
DOCKED: REMARK    3  A    between atoms: C_8  and  C_9
DOCKED: REMARK    4  A    between atoms: C_9  and  N_10
DOCKED: REMARK    5  A    between atoms: N_10  and  C_11
DOCKED: REMARK    6  A    between atoms: C_11  and  C_12
DOCKED: REMARK    7  A    between atoms: C_12  and  C_13
DOCKED: REMARK    8  A    between atoms: C_14  and  C_22
DOCKED: REMARK                            x       y       z     vdW  Elec       q    Type
DOCKED: REMARK                         _______ _______ _______ _____ _____    ______ ____
DOCKED: USER                              x       y       z     vdW  Elec       q    Type
DOCKED: USER                           _______ _______ _______ _____ _____    ______ ____
DOCKED: ROOT
DOCKED: ATOM      1  N   UNL     1      29.370 -14.740   1.744 -0.10 -0.00    +0.000 N 
DOCKED: ATOM      2  H   UNL     1      29.079 -15.609   2.193 -1.74 -0.00    +0.000 HD
DOCKED: ATOM      3  H   UNL     1      28.759 -13.965   2.000 -0.34 -0.00    +0.000 HD
DOCKED: ENDROOT
DOCKED: BRANCH   1   4
DOCKED: ATOM      4  C   UNL     1      29.290 -14.913   0.287 -0.17 -0.00    +0.000 C 
DOCKED: BRANCH   4   8
DOCKED: ATOM      5  C   UNL     1      25.299 -16.248  -0.709 -0.41 -0.00    +0.000 A 
DOCKED: ATOM      6  C   UNL     1      26.375 -17.157  -0.690 -0.51 -0.00    +0.000 A 
DOCKED: ATOM      7  C   UNL     1      27.667 -16.721  -0.379 -0.36 -0.00    +0.000 A 
DOCKED: ATOM      8  C   UNL     1      27.908 -15.371  -0.086 -0.25 -0.00    +0.000 A 
DOCKED: ATOM      9  C   UNL     1      26.835 -14.469  -0.072 -0.27 -0.00    +0.000 A 
DOCKED: ATOM     10  C   UNL     1      25.543 -14.904  -0.381 -0.04 -0.00    +0.000 A 
DOCKED: BRANCH   5  12
DOCKED: ATOM     11  C   UNL     1      23.358 -17.805  -0.582 -0.79 -0.00    +0.000 C 
DOCKED: ATOM     12  C   UNL     1      23.908 -16.661  -1.017 -0.50 -0.00    +0.000 C 
DOCKED: BRANCH  11  14
DOCKED: ATOM     13  O   UNL     1      21.048 -17.373  -0.706 -1.96 +0.00    +0.000 OA
DOCKED: ATOM     14  C   UNL     1      21.971 -18.210  -0.892 -0.79 -0.00    +0.000 C 
DOCKED: ATOM     15  N   UNL     1      21.642 -19.521  -1.366 -0.65 -0.00    +0.000 N 
DOCKED: ATOM     16  O   UNL     1      20.372 -19.809  -1.738 -2.24 -0.00    +0.000 OA
DOCKED: ATOM     17  H   UNL     1      22.340 -20.213  -1.423 -0.32 -0.00    +0.000 HD
DOCKED: ENDBRANCH  11  14
DOCKED: ENDBRANCH   5  12
DOCKED: ENDBRANCH   4   8
DOCKED: ENDBRANCH   1   4
DOCKED: BRANCH   1  18
DOCKED: ATOM     18  C   UNL     1      30.731 -14.408   2.194 -0.16 -0.00    +0.000 C 
DOCKED: BRANCH  18  19
DOCKED: ATOM     19  C   UNL     1      30.774 -13.123   3.036 -0.12 -0.00    +0.000 C 
DOCKED: BRANCH  19  20
DOCKED: ATOM     20  C   UNL     1      29.387 -12.579   3.232 -0.13 -0.00    +0.000 A 
DOCKED: ATOM     21  C   UNL     1      28.600 -12.658   4.381 -0.27 -0.00    +0.000 A 
DOCKED: ATOM     22  N   UNL     1      27.381 -12.112   4.165 -0.30 +0.00    +0.000 N 
DOCKED: ATOM     23  C   UNL     1      27.381 -11.709   2.883 -0.26 +0.00    +0.000 A 
DOCKED: ATOM     24  C   UNL     1      28.583 -11.983   2.279 -0.13 -0.00    +0.000 A 
DOCKED: ATOM     25  C   UNL     1      28.817 -11.676   0.938 -0.06 -0.00    +0.000 A 
DOCKED: ATOM     26  C   UNL     1      27.779 -11.063   0.213 -0.11 -0.00    +0.000 A 
DOCKED: ATOM     27  C   UNL     1      26.544 -10.778   0.835 -0.27 +0.00    +0.000 A 
DOCKED: ATOM     28  C   UNL     1      26.335 -11.104   2.189 -0.31 +0.00    +0.000 A 
DOCKED: ATOM     29  C   UNL     1      29.025 -13.242   5.692 -0.42 -0.00    +0.000 C 
DOCKED: ATOM     30  H   UNL     1      26.644 -12.028   4.814 +0.08 +0.00    +0.000 HD
DOCKED: ENDBRANCH  19  20
DOCKED: ENDBRANCH  18  19
DOCKED: ENDBRANCH   1  18
DOCKED: TORSDOF 7
DOCKED: TER
DOCKED: ENDMDL
________________________________________________________________________________


	BEGINNING GENETIC ALGORITHM DOCKING 73 of 100
Run: 73 Seed: 1359752529 1073113016 [ Run 73 of 100 GA/GALS ]
Beginning LAMARCKIAN GENETIC ALGORITHM (LGA), with a maximum of 2500000 energy evaluations.

Final-Value: -15.834


	FINAL GENETIC ALGORITHM DOCKED STATE
	_______________________________________________


Detailed state:  trans 28.692 -16.604 -0.155 quatxyzw 0.031273 0.018165 0.896800 0.440956 center 0.578 -0.033 0.130 ntor 7 167.6974 -177.3325 -177.2229 -161.4145 -163.8565 55.6899 42.8153
State:	 28.692 -16.604  -0.155   0.035  0.020  0.999 127.670    167.70 -177.33 -177.22 -161.41 -163.86   55.69   42.82

DOCKED: MODEL       73
DOCKED: USER    Run = 73
DOCKED: USER    DPF = ligand_dock.biased.dpf
DOCKED: USER  
DOCKED: USER    Estimated Free Energy of Binding    =  -12.32 kcal/mol  [=(1)+(2)+(3)-(4)]
DOCKED: USER    Estimated Inhibition Constant, Ki   =  933.56 pM (picomolar)  [Temperature = 298.15 K]
DOCKED: USER    
DOCKED: USER    (1) Final Intermolecular Energy     =  -14.41 kcal/mol
DOCKED: USER        vdW + Hbond + desolv Energy     =  -14.41 kcal/mol
DOCKED: USER        Electrostatic Energy            =   +0.00 kcal/mol
DOCKED: USER    (2) Final Total Internal Energy     =   -1.43 kcal/mol
DOCKED: USER    (3) Torsional Free Energy           =   +2.09 kcal/mol
DOCKED: USER    (4) Unbound System's Energy  [=(2)] =   -1.43 kcal/mol
DOCKED: USER    
DOCKED: USER    
DOCKED: USER    NEWDPF move ligand.pdbqt
DOCKED: USER    NEWDPF about 0.578000 -0.033000 0.130000
DOCKED: USER    NEWDPF tran0 28.692410 -16.604397 -0.154957
DOCKED: USER    NEWDPF quaternion0 0.031273 0.018165 0.896800 0.440956
DOCKED: USER    NEWDPF axisangle0 0.034843 0.020239 0.999188 127.670212
DOCKED: USER    NEWDPF quat0 0.034843 0.020239 0.999188 127.670212
DOCKED: USER    NEWDPF dihe0 167.70 -177.33 -177.22 -161.41 -163.86 55.69 42.82 
DOCKED: USER  keepresnum = 1 
DOCKED: USER  
DOCKED: REMARK  Name = 
DOCKED: REMARK  8 active torsions:
DOCKED: REMARK  status: ('A' for Active; 'I' for Inactive)
DOCKED: REMARK    1  A    between atoms: C_2  and  C_3
DOCKED: REMARK    2  A    between atoms: C_4  and  C_5
DOCKED: REMARK    3  A    between atoms: C_8  and  C_9
DOCKED: REMARK    4  A    between atoms: C_9  and  N_10
DOCKED: REMARK    5  A    between atoms: N_10  and  C_11
DOCKED: REMARK    6  A    between atoms: C_11  and  C_12
DOCKED: REMARK    7  A    between atoms: C_12  and  C_13
DOCKED: REMARK    8  A    between atoms: C_14  and  C_22
DOCKED: REMARK                            x       y       z     vdW  Elec       q    Type
DOCKED: REMARK                         _______ _______ _______ _____ _____    ______ ____
DOCKED: USER                              x       y       z     vdW  Elec       q    Type
DOCKED: USER                           _______ _______ _______ _____ _____    ______ ____
DOCKED: ROOT
DOCKED: ATOM      1  N   UNL     1      29.208 -16.090   0.121 -0.15 -0.00    +0.000 N 
DOCKED: ATOM      2  H   UNL     1      29.422 -16.831   0.790 -0.58 -0.00    +0.000 HD
DOCKED: ATOM      3  H   UNL     1      28.462 -15.484   0.462 -0.16 -0.00    +0.000 HD
DOCKED: ENDROOT
DOCKED: BRANCH   1   4
DOCKED: ATOM      4  C   UNL     1      28.748 -16.706  -1.131 -0.31 -0.00    +0.000 C 
DOCKED: BRANCH   4   8
DOCKED: ATOM      5  C   UNL     1      24.470 -17.335  -1.019 -0.63 -0.00    +0.000 A 
DOCKED: ATOM      6  C   UNL     1      25.027 -16.342  -1.849 -0.52 -0.00    +0.000 A 
DOCKED: ATOM      7  C   UNL     1      26.410 -16.133  -1.875 -0.41 -0.00    +0.000 A 
DOCKED: ATOM      8  C   UNL     1      27.259 -16.906  -1.071 -0.41 -0.00    +0.000 A 
DOCKED: ATOM      9  C   UNL     1      26.712 -17.917  -0.267 -0.51 -0.00    +0.000 A 
DOCKED: ATOM     10  C   UNL     1      25.331 -18.128  -0.243 -0.61 -0.00    +0.000 A 
DOCKED: BRANCH   5  12
DOCKED: ATOM     11  C   UNL     1      22.488 -18.760  -0.518 -0.83 -0.00    +0.000 C 
DOCKED: ATOM     12  C   UNL     1      23.013 -17.608  -0.966 -0.75 -0.00    +0.000 C 
DOCKED: BRANCH  11  14
DOCKED: ATOM     13  O   UNL     1      20.252 -18.158  -0.940 -2.13 -0.00    +0.000 OA
DOCKED: ATOM     14  C   UNL     1      21.035 -19.024  -0.467 -0.87 -0.00    +0.000 C 
DOCKED: ATOM     15  N   UNL     1      20.491 -20.211   0.123 -0.70 -0.00    +0.000 N 
DOCKED: ATOM     16  O   UNL     1      19.162 -20.458   0.050 -1.09 -0.00    +0.000 OA
DOCKED: ATOM     17  H   UNL     1      21.085 -20.848   0.582 -0.54 -0.00    +0.000 HD
DOCKED: ENDBRANCH  11  14
DOCKED: ENDBRANCH   5  12
DOCKED: ENDBRANCH   4   8
DOCKED: ENDBRANCH   1   4
DOCKED: BRANCH   1  18
DOCKED: ATOM     18  C   UNL     1      30.409 -15.263  -0.070 -0.12 -0.00    +0.000 C 
DOCKED: BRANCH  18  19
DOCKED: ATOM     19  C   UNL     1      30.252 -13.854   0.522 -0.08 -0.00    +0.000 C 
DOCKED: BRANCH  19  20
DOCKED: ATOM     20  C   UNL     1      29.061 -13.800   1.437 -0.15 -0.00    +0.000 A 
DOCKED: ATOM     21  C   UNL     1      27.734 -13.548   1.087 -0.22 -0.00    +0.000 A 
DOCKED: ATOM     22  N   UNL     1      26.947 -13.514   2.188 -0.33 -0.00    +0.000 N 
DOCKED: ATOM     23  C   UNL     1      27.768 -13.720   3.232 -0.36 -0.00    +0.000 A 
DOCKED: ATOM     24  C   UNL     1      29.064 -13.892   2.815 -0.23 -0.00    +0.000 A 
DOCKED: ATOM     25  C   UNL     1      30.105 -14.099   3.722 -0.25 -0.00    +0.000 A 
DOCKED: ATOM     26  C   UNL     1      29.786 -14.137   5.091 -0.31 -0.00    +0.000 A 
DOCKED: ATOM     27  C   UNL     1      28.451 -13.965   5.520 -0.40 -0.00    +0.000 A 
DOCKED: ATOM     28  C   UNL     1      27.423 -13.752   4.583 -0.49 -0.00    +0.000 A 
DOCKED: ATOM     29  C   UNL     1      27.218 -13.357  -0.304 -0.23 -0.00    +0.000 C 
DOCKED: ATOM     30  H   UNL     1      25.973 -13.368   2.218 -0.03 -0.00    +0.000 HD
DOCKED: ENDBRANCH  19  20
DOCKED: ENDBRANCH  18  19
DOCKED: ENDBRANCH   1  18
DOCKED: TORSDOF 7
DOCKED: TER
DOCKED: ENDMDL
________________________________________________________________________________


	BEGINNING GENETIC ALGORITHM DOCKING 74 of 100
Run: 74 Seed: 10968543 379129541 [ Run 74 of 100 GA/GALS ]
Beginning LAMARCKIAN GENETIC ALGORITHM (LGA), with a maximum of 2500000 energy evaluations.

Final-Value: -15.962


	FINAL GENETIC ALGORITHM DOCKED STATE
	_______________________________________________


Detailed state:  trans 28.449 -15.539 0.859 quatxyzw -0.007173 0.250589 0.830923 0.496710 center 0.578 -0.033 0.130 ntor 7 112.4309 -89.2871 -168.6249 -148.3109 143.0833 100.8354 45.2257
State:	 28.449 -15.539   0.859  -0.008  0.289  0.957 120.435    112.43  -89.29 -168.62 -148.31  143.08  100.84   45.23

DOCKED: MODEL       74
DOCKED: USER    Run = 74
DOCKED: USER    DPF = ligand_dock.biased.dpf
DOCKED: USER  
DOCKED: USER    Estimated Free Energy of Binding    =  -12.69 kcal/mol  [=(1)+(2)+(3)-(4)]
DOCKED: USER    Estimated Inhibition Constant, Ki   =  501.18 pM (picomolar)  [Temperature = 298.15 K]
DOCKED: USER    
DOCKED: USER    (1) Final Intermolecular Energy     =  -14.78 kcal/mol
DOCKED: USER        vdW + Hbond + desolv Energy     =  -14.78 kcal/mol
DOCKED: USER        Electrostatic Energy            =   +0.00 kcal/mol
DOCKED: USER    (2) Final Total Internal Energy     =   -1.19 kcal/mol
DOCKED: USER    (3) Torsional Free Energy           =   +2.09 kcal/mol
DOCKED: USER    (4) Unbound System's Energy  [=(2)] =   -1.19 kcal/mol
DOCKED: USER    
DOCKED: USER    
DOCKED: USER    NEWDPF move ligand.pdbqt
DOCKED: USER    NEWDPF about 0.578000 -0.033000 0.130000
DOCKED: USER    NEWDPF tran0 28.448560 -15.539111 0.858635
DOCKED: USER    NEWDPF quaternion0 -0.007173 0.250589 0.830923 0.496710
DOCKED: USER    NEWDPF axisangle0 -0.008265 0.288724 0.957377 120.434814
DOCKED: USER    NEWDPF quat0 -0.008265 0.288724 0.957377 120.434814
DOCKED: USER    NEWDPF dihe0 112.43 -89.29 -168.62 -148.31 143.08 100.84 45.23 
DOCKED: USER  keepresnum = 1 
DOCKED: USER  
DOCKED: REMARK  Name = 
DOCKED: REMARK  8 active torsions:
DOCKED: REMARK  status: ('A' for Active; 'I' for Inactive)
DOCKED: REMARK    1  A    between atoms: C_2  and  C_3
DOCKED: REMARK    2  A    between atoms: C_4  and  C_5
DOCKED: REMARK    3  A    between atoms: C_8  and  C_9
DOCKED: REMARK    4  A    between atoms: C_9  and  N_10
DOCKED: REMARK    5  A    between atoms: N_10  and  C_11
DOCKED: REMARK    6  A    between atoms: C_11  and  C_12
DOCKED: REMARK    7  A    between atoms: C_12  and  C_13
DOCKED: REMARK    8  A    between atoms: C_14  and  C_22
DOCKED: REMARK                            x       y       z     vdW  Elec       q    Type
DOCKED: REMARK                         _______ _______ _______ _____ _____    ______ ____
DOCKED: USER                              x       y       z     vdW  Elec       q    Type
DOCKED: USER                           _______ _______ _______ _____ _____    ______ ____
DOCKED: ROOT
DOCKED: ATOM      1  N   UNL     1      28.797 -14.862   1.019 -0.20 -0.00    +0.000 N 
DOCKED: ATOM      2  H   UNL     1      28.891 -15.258   1.955 -1.62 -0.00    +0.000 HD
DOCKED: ATOM      3  H   UNL     1      27.918 -14.354   0.916 -0.06 -0.00    +0.000 HD
DOCKED: ENDROOT
DOCKED: BRANCH   1   4
DOCKED: ATOM      4  C   UNL     1      28.799 -15.958   0.042 -0.19 -0.00    +0.000 C 
DOCKED: BRANCH   4   8
DOCKED: ATOM      5  C   UNL     1      24.753 -17.265  -0.751 -0.60 -0.00    +0.000 A 
DOCKED: ATOM      6  C   UNL     1      25.116 -15.914  -0.922 -0.35 -0.00    +0.000 A 
DOCKED: ATOM      7  C   UNL     1      26.422 -15.492  -0.654 -0.34 -0.00    +0.000 A 
DOCKED: ATOM      8  C   UNL     1      27.386 -16.407  -0.207 -0.35 -0.00    +0.000 A 
DOCKED: ATOM      9  C   UNL     1      27.037 -17.758  -0.067 -0.37 -0.00    +0.000 A 
DOCKED: ATOM     10  C   UNL     1      25.733 -18.182  -0.337 -0.61 -0.00    +0.000 A 
DOCKED: BRANCH   5  12
DOCKED: ATOM     11  C   UNL     1      22.546 -18.216  -0.090 -0.80 -0.00    +0.000 C 
DOCKED: ATOM     12  C   UNL     1      23.386 -17.768  -1.036 -0.77 -0.00    +0.000 C 
DOCKED: BRANCH  11  14
DOCKED: ATOM     13  O   UNL     1      20.422 -17.997  -1.081 -2.17 -0.00    +0.000 OA
DOCKED: ATOM     14  C   UNL     1      21.186 -18.715  -0.381 -0.79 -0.00    +0.000 C 
DOCKED: ATOM     15  N   UNL     1      20.701 -19.964   0.126 -0.70 -0.00    +0.000 N 
DOCKED: ATOM     16  O   UNL     1      19.488 -20.426  -0.256 -1.22 -0.00    +0.000 OA
DOCKED: ATOM     17  H   UNL     1      21.253 -20.487   0.752 -0.58 -0.00    +0.000 HD
DOCKED: ENDBRANCH  11  14
DOCKED: ENDBRANCH   5  12
DOCKED: ENDBRANCH   4   8
DOCKED: ENDBRANCH   1   4
DOCKED: BRANCH   1  18
DOCKED: ATOM     18  C   UNL     1      29.895 -13.909   0.795 -0.11 -0.00    +0.000 C 
DOCKED: BRANCH  18  19
DOCKED: ATOM     19  C   UNL     1      29.809 -12.685   1.719 -0.08 -0.00    +0.000 C 
DOCKED: BRANCH  19  20
DOCKED: ATOM     20  C   UNL     1      29.099 -13.041   2.995 -0.17 -0.00    +0.000 A 
DOCKED: ATOM     21  C   UNL     1      27.725 -13.185   3.188 -0.32 -0.00    +0.000 A 
DOCKED: ATOM     22  N   UNL     1      27.449 -13.447   4.487 -0.50 -0.00    +0.000 N 
DOCKED: ATOM     23  C   UNL     1      28.634 -13.447   5.121 -0.41 -0.00    +0.000 A 
DOCKED: ATOM     24  C   UNL     1      29.662 -13.196   4.247 -0.22 -0.00    +0.000 A 
DOCKED: ATOM     25  C   UNL     1      30.988 -13.125   4.676 -0.16 -0.00    +0.000 A 
DOCKED: ATOM     26  C   UNL     1      31.249 -13.327   6.043 -0.17 -0.00    +0.000 A 
DOCKED: ATOM     27  C   UNL     1      30.192 -13.589   6.942 -0.25 -0.00    +0.000 A 
DOCKED: ATOM     28  C   UNL     1      28.863 -13.650   6.481 -0.28 -0.00    +0.000 A 
DOCKED: ATOM     29  C   UNL     1      26.678 -13.089   2.123 -0.33 -0.00    +0.000 C 
DOCKED: ATOM     30  H   UNL     1      26.562 -13.604   4.886 -0.05 -0.00    +0.000 HD
DOCKED: ENDBRANCH  19  20
DOCKED: ENDBRANCH  18  19
DOCKED: ENDBRANCH   1  18
DOCKED: TORSDOF 7
DOCKED: TER
DOCKED: ENDMDL
________________________________________________________________________________


	BEGINNING GENETIC ALGORITHM DOCKING 75 of 100
Run: 75 Seed: 2017540333 505139592 [ Run 75 of 100 GA/GALS ]
Beginning LAMARCKIAN GENETIC ALGORITHM (LGA), with a maximum of 2500000 energy evaluations.

Final-Value: -15.103


	FINAL GENETIC ALGORITHM DOCKED STATE
	_______________________________________________


Detailed state:  trans 28.220 -14.852 -1.007 quatxyzw 0.849272 0.304312 0.421128 0.093709 center 0.578 -0.033 0.130 ntor 7 65.6365 -174.3303 137.3280 -98.5889 -178.0370 35.3132 178.2766
State:	 28.220 -14.852  -1.007   0.853  0.306  0.423 169.246     65.64 -174.33  137.33  -98.59 -178.04   35.31  178.28

DOCKED: MODEL       75
DOCKED: USER    Run = 75
DOCKED: USER    DPF = ligand_dock.biased.dpf
DOCKED: USER  
DOCKED: USER    Estimated Free Energy of Binding    =  -11.79 kcal/mol  [=(1)+(2)+(3)-(4)]
DOCKED: USER    Estimated Inhibition Constant, Ki   =    2.28 nM (nanomolar)  [Temperature = 298.15 K]
DOCKED: USER    
DOCKED: USER    (1) Final Intermolecular Energy     =  -13.88 kcal/mol
DOCKED: USER        vdW + Hbond + desolv Energy     =  -13.88 kcal/mol
DOCKED: USER        Electrostatic Energy            =   +0.00 kcal/mol
DOCKED: USER    (2) Final Total Internal Energy     =   -1.22 kcal/mol
DOCKED: USER    (3) Torsional Free Energy           =   +2.09 kcal/mol
DOCKED: USER    (4) Unbound System's Energy  [=(2)] =   -1.22 kcal/mol
DOCKED: USER    
DOCKED: USER    
DOCKED: USER    NEWDPF move ligand.pdbqt
DOCKED: USER    NEWDPF about 0.578000 -0.033000 0.130000
DOCKED: USER    NEWDPF tran0 28.220376 -14.852388 -1.007338
DOCKED: USER    NEWDPF quaternion0 0.849272 0.304312 0.421128 0.093709
DOCKED: USER    NEWDPF axisangle0 0.853026 0.305658 0.422989 169.245948
DOCKED: USER    NEWDPF quat0 0.853026 0.305658 0.422989 169.245948
DOCKED: USER    NEWDPF dihe0 65.64 -174.33 137.33 -98.59 -178.04 35.31 178.28 
DOCKED: USER  keepresnum = 1 
DOCKED: USER  
DOCKED: REMARK  Name = 
DOCKED: REMARK  8 active torsions:
DOCKED: REMARK  status: ('A' for Active; 'I' for Inactive)
DOCKED: REMARK    1  A    between atoms: C_2  and  C_3
DOCKED: REMARK    2  A    between atoms: C_4  and  C_5
DOCKED: REMARK    3  A    between atoms: C_8  and  C_9
DOCKED: REMARK    4  A    between atoms: C_9  and  N_10
DOCKED: REMARK    5  A    between atoms: N_10  and  C_11
DOCKED: REMARK    6  A    between atoms: C_11  and  C_12
DOCKED: REMARK    7  A    between atoms: C_12  and  C_13
DOCKED: REMARK    8  A    between atoms: C_14  and  C_22
DOCKED: REMARK                            x       y       z     vdW  Elec       q    Type
DOCKED: REMARK                         _______ _______ _______ _____ _____    ______ ____
DOCKED: USER                              x       y       z     vdW  Elec       q    Type
DOCKED: USER                           _______ _______ _______ _____ _____    ______ ____
DOCKED: ROOT
DOCKED: ATOM      1  N   UNL     1      28.171 -15.100  -1.744 -0.17 -0.00    +0.000 N 
DOCKED: ATOM      2  H   UNL     1      29.189 -15.116  -1.692 +0.00 -0.00    +0.000 HD
DOCKED: ATOM      3  H   UNL     1      27.828 -14.191  -2.055 +0.01 -0.00    +0.000 HD
DOCKED: ENDROOT
DOCKED: BRANCH   1   4
DOCKED: ATOM      4  C   UNL     1      27.626 -15.349  -0.403 -0.30 -0.00    +0.000 C 
DOCKED: BRANCH   4   8
DOCKED: ATOM      5  C   UNL     1      24.343 -18.158  -0.603 -0.69 -0.00    +0.000 A 
DOCKED: ATOM      6  C   UNL     1      25.652 -18.603  -0.330 -0.54 -0.00    +0.000 A 
DOCKED: ATOM      7  C   UNL     1      26.714 -17.695  -0.277 -0.51 -0.00    +0.000 A 
DOCKED: ATOM      8  C   UNL     1      26.490 -16.328  -0.500 -0.40 -0.00    +0.000 A 
DOCKED: ATOM      9  C   UNL     1      25.184 -15.877  -0.740 -0.31 -0.00    +0.000 A 
DOCKED: ATOM     10  C   UNL     1      24.122 -16.784  -0.790 -0.52 -0.00    +0.000 A 
DOCKED: BRANCH   5  12
DOCKED: ATOM     11  C   UNL     1      21.904 -18.668  -0.573 -0.85 -0.00    +0.000 C 
DOCKED: ATOM     12  C   UNL     1      23.180 -19.077  -0.654 -0.77 -0.00    +0.000 C 
DOCKED: BRANCH  11  14
DOCKED: ATOM     13  O   UNL     1      20.155 -19.740  -1.727 -2.34 -0.00    +0.000 OA
DOCKED: ATOM     14  C   UNL     1      20.750 -19.589  -0.627 -0.86 -0.00    +0.000 C 
DOCKED: ATOM     15  N   UNL     1      20.272 -20.289   0.529 -0.70 -0.00    +0.000 N 
DOCKED: ATOM     16  O   UNL     1      19.281 -21.202   0.407 -0.83 -0.00    +0.000 OA
DOCKED: ATOM     17  H   UNL     1      20.667 -20.105   1.412 -0.45 -0.00    +0.000 HD
DOCKED: ENDBRANCH  11  14
DOCKED: ENDBRANCH   5  12
DOCKED: ENDBRANCH   4   8
DOCKED: ENDBRANCH   1   4
DOCKED: BRANCH   1  18
DOCKED: ATOM     18  C   UNL     1      27.731 -16.106  -2.723 -0.30 -0.00    +0.000 C 
DOCKED: BRANCH  18  19
DOCKED: ATOM     19  C   UNL     1      26.715 -15.542  -3.729 -0.46 -0.00    +0.000 C 
DOCKED: BRANCH  19  20
DOCKED: ATOM     20  C   UNL     1      27.413 -14.708  -4.765 -0.38 -0.00    +0.000 A 
DOCKED: ATOM     21  C   UNL     1      27.059 -13.432  -5.205 -0.24 -0.00    +0.000 A 
DOCKED: ATOM     22  N   UNL     1      27.884 -13.021  -6.197 -0.24 -0.00    +0.000 N 
DOCKED: ATOM     23  C   UNL     1      28.742 -14.035  -6.403 -0.30 -0.00    +0.000 A 
DOCKED: ATOM     24  C   UNL     1      28.483 -15.082  -5.555 -0.36 -0.00    +0.000 A 
DOCKED: ATOM     25  C   UNL     1      29.230 -16.260  -5.596 -0.28 -0.00    +0.000 A 
DOCKED: ATOM     26  C   UNL     1      30.274 -16.345  -6.534 -0.30 -0.00    +0.000 A 
DOCKED: ATOM     27  C   UNL     1      30.544 -15.265  -7.404 -0.25 -0.00    +0.000 A 
DOCKED: ATOM     28  C   UNL     1      29.770 -14.091  -7.344 -0.25 -0.00    +0.000 A 
DOCKED: ATOM     29  C   UNL     1      25.940 -12.600  -4.663 -0.31 -0.00    +0.000 C 
DOCKED: ATOM     30  H   UNL     1      27.859 -12.158  -6.670 -0.01 -0.00    +0.000 HD
DOCKED: ENDBRANCH  19  20
DOCKED: ENDBRANCH  18  19
DOCKED: ENDBRANCH   1  18
DOCKED: TORSDOF 7
DOCKED: TER
DOCKED: ENDMDL
________________________________________________________________________________


	BEGINNING GENETIC ALGORITHM DOCKING 76 of 100
Run: 76 Seed: 356583761 1496520834 [ Run 76 of 100 GA/GALS ]
Beginning LAMARCKIAN GENETIC ALGORITHM (LGA), with a maximum of 2500000 energy evaluations.

Final-Value: -14.896


	FINAL GENETIC ALGORITHM DOCKED STATE
	_______________________________________________


Detailed state:  trans 29.361 -17.150 -2.114 quatxyzw 0.031410 -0.986299 0.139659 -0.081996 center 0.578 -0.033 0.130 ntor 7 151.1107 -20.7727 175.3708 -180.0000 177.9489 175.9437 -1.6525
State:	 29.361 -17.150  -2.114   0.032 -0.990  0.140 -170.593    151.11  -20.77  175.37 -180.00  177.95  175.94   -1.65

DOCKED: MODEL       76
DOCKED: USER    Run = 76
DOCKED: USER    DPF = ligand_dock.biased.dpf
DOCKED: USER  
DOCKED: USER    Estimated Free Energy of Binding    =  -10.99 kcal/mol  [=(1)+(2)+(3)-(4)]
DOCKED: USER    Estimated Inhibition Constant, Ki   =    8.76 nM (nanomolar)  [Temperature = 298.15 K]
DOCKED: USER    
DOCKED: USER    (1) Final Intermolecular Energy     =  -13.08 kcal/mol
DOCKED: USER        vdW + Hbond + desolv Energy     =  -13.08 kcal/mol
DOCKED: USER        Electrostatic Energy            =   +0.00 kcal/mol
DOCKED: USER    (2) Final Total Internal Energy     =   -1.82 kcal/mol
DOCKED: USER    (3) Torsional Free Energy           =   +2.09 kcal/mol
DOCKED: USER    (4) Unbound System's Energy  [=(2)] =   -1.82 kcal/mol
DOCKED: USER    
DOCKED: USER    
DOCKED: USER    NEWDPF move ligand.pdbqt
DOCKED: USER    NEWDPF about 0.578000 -0.033000 0.130000
DOCKED: USER    NEWDPF tran0 29.360664 -17.149882 -2.113818
DOCKED: USER    NEWDPF quaternion0 0.031410 -0.986299 0.139659 -0.081996
DOCKED: USER    NEWDPF axisangle0 0.031517 -0.989631 0.140131 -170.593354
DOCKED: USER    NEWDPF quat0 0.031517 -0.989631 0.140131 -170.593354
DOCKED: USER    NEWDPF dihe0 151.11 -20.77 175.37 -180.00 177.95 175.94 -1.65 
DOCKED: USER  keepresnum = 1 
DOCKED: USER  
DOCKED: REMARK  Name = 
DOCKED: REMARK  8 active torsions:
DOCKED: REMARK  status: ('A' for Active; 'I' for Inactive)
DOCKED: REMARK    1  A    between atoms: C_2  and  C_3
DOCKED: REMARK    2  A    between atoms: C_4  and  C_5
DOCKED: REMARK    3  A    between atoms: C_8  and  C_9
DOCKED: REMARK    4  A    between atoms: C_9  and  N_10
DOCKED: REMARK    5  A    between atoms: N_10  and  C_11
DOCKED: REMARK    6  A    between atoms: C_11  and  C_12
DOCKED: REMARK    7  A    between atoms: C_12  and  C_13
DOCKED: REMARK    8  A    between atoms: C_14  and  C_22
DOCKED: REMARK                            x       y       z     vdW  Elec       q    Type
DOCKED: REMARK                         _______ _______ _______ _____ _____    ______ ____
DOCKED: USER                              x       y       z     vdW  Elec       q    Type
DOCKED: USER                           _______ _______ _______ _____ _____    ______ ____
DOCKED: ROOT
DOCKED: ATOM      1  N   UNL     1      29.992 -17.122  -2.569 -0.20 -0.00    +0.000 N 
DOCKED: ATOM      2  H   UNL     1      29.348 -16.720  -3.250 -0.01 -0.00    +0.000 HD
DOCKED: ATOM      3  H   UNL     1      30.020 -18.139  -2.639 -0.02 -0.00    +0.000 HD
DOCKED: ENDROOT
DOCKED: BRANCH   1   4
DOCKED: ATOM      4  C   UNL     1      29.525 -16.778  -1.219 -0.25 -0.00    +0.000 C 
DOCKED: BRANCH   4   8
DOCKED: ATOM      5  C   UNL     1      25.248 -17.343  -0.908 -0.59 -0.00    +0.000 A 
DOCKED: ATOM      6  C   UNL     1      26.135 -18.393  -0.595 -0.50 -0.00    +0.000 A 
DOCKED: ATOM      7  C   UNL     1      27.517 -18.212  -0.708 -0.15 -0.00    +0.000 A 
DOCKED: ATOM      8  C   UNL     1      28.038 -16.983  -1.138 -0.34 -0.00    +0.000 A 
DOCKED: ATOM      9  C   UNL     1      27.161 -15.925  -1.419 -0.33 -0.00    +0.000 A 
DOCKED: ATOM     10  C   UNL     1      25.780 -16.105  -1.305 -0.46 -0.00    +0.000 A 
DOCKED: BRANCH   5  12
DOCKED: ATOM     11  C   UNL     1      23.091 -18.553  -1.212 -0.79 -0.00    +0.000 C 
DOCKED: ATOM     12  C   UNL     1      23.775 -17.479  -0.791 -0.75 -0.00    +0.000 C 
DOCKED: BRANCH  11  14
DOCKED: ATOM     13  O   UNL     1      21.009 -17.856  -0.365 -1.95 +0.00    +0.000 OA
DOCKED: ATOM     14  C   UNL     1      21.625 -18.682  -1.091 -0.80 -0.00    +0.000 C 
DOCKED: ATOM     15  N   UNL     1      20.888 -19.723  -1.744 -0.73 -0.00    +0.000 N 
DOCKED: ATOM     16  O   UNL     1      19.536 -19.734  -1.689 -2.14 -0.00    +0.000 OA
DOCKED: ATOM     17  H   UNL     1      21.367 -20.430  -2.234 -0.52 -0.00    +0.000 HD
DOCKED: ENDBRANCH  11  14
DOCKED: ENDBRANCH   5  12
DOCKED: ENDBRANCH   4   8
DOCKED: ENDBRANCH   1   4
DOCKED: BRANCH   1  18
DOCKED: ATOM     18  C   UNL     1      31.346 -16.615  -2.840 -0.09 -0.00    +0.000 C 
DOCKED: BRANCH  18  19
DOCKED: ATOM     19  C   UNL     1      31.352 -15.485  -3.881 -0.07 -0.00    +0.000 C 
DOCKED: BRANCH  19  20
DOCKED: ATOM     20  C   UNL     1      29.969 -15.268  -4.426 -0.15 -0.00    +0.000 A 
DOCKED: ATOM     21  C   UNL     1      29.414 -15.827  -5.578 -0.31 -0.00    +0.000 A 
DOCKED: ATOM     22  N   UNL     1      28.165 -15.350  -5.789 -0.41 +0.00    +0.000 N 
DOCKED: ATOM     23  C   UNL     1      27.934 -14.477  -4.794 -0.30 -0.00    +0.000 A 
DOCKED: ATOM     24  C   UNL     1      29.011 -14.394  -3.948 -0.13 -0.00    +0.000 A 
DOCKED: ATOM     25  C   UNL     1      29.017 -13.535  -2.848 -0.07 -0.00    +0.000 A 
DOCKED: ATOM     26  C   UNL     1      27.871 -12.751  -2.621 -0.11 -0.00    +0.000 A 
DOCKED: ATOM     27  C   UNL     1      26.760 -12.839  -3.489 -0.21 -0.00    +0.000 A 
DOCKED: ATOM     28  C   UNL     1      26.786 -13.711  -4.594 -0.32 -0.00    +0.000 A 
DOCKED: ATOM     29  C   UNL     1      30.077 -16.833  -6.467 -0.32 -0.00    +0.000 C 
DOCKED: ATOM     30  H   UNL     1      27.553 -15.592  -6.521 -0.07 +0.00    +0.000 HD
DOCKED: ENDBRANCH  19  20
DOCKED: ENDBRANCH  18  19
DOCKED: ENDBRANCH   1  18
DOCKED: TORSDOF 7
DOCKED: TER
DOCKED: ENDMDL
________________________________________________________________________________


	BEGINNING GENETIC ALGORITHM DOCKING 77 of 100
Run: 77 Seed: 2002339193 956119103 [ Run 77 of 100 GA/GALS ]
Beginning LAMARCKIAN GENETIC ALGORITHM (LGA), with a maximum of 2500000 energy evaluations.

Final-Value: -14.929


	FINAL GENETIC ALGORITHM DOCKED STATE
	_______________________________________________


Detailed state:  trans 28.934 -17.700 -1.101 quatxyzw 0.040474 0.512361 -0.841025 -0.168894 center 0.578 -0.033 0.130 ntor 7 -167.2596 -33.6165 -50.5371 -103.1379 98.1702 -172.8556 18.2610
State:	 28.934 -17.700  -1.101   0.041  0.520 -0.853 -160.553   -167.26  -33.62  -50.54 -103.14   98.17 -172.86   18.26

DOCKED: MODEL       77
DOCKED: USER    Run = 77
DOCKED: USER    DPF = ligand_dock.biased.dpf
DOCKED: USER  
DOCKED: USER    Estimated Free Energy of Binding    =  -11.65 kcal/mol  [=(1)+(2)+(3)-(4)]
DOCKED: USER    Estimated Inhibition Constant, Ki   =    2.89 nM (nanomolar)  [Temperature = 298.15 K]
DOCKED: USER    
DOCKED: USER    (1) Final Intermolecular Energy     =  -13.74 kcal/mol
DOCKED: USER        vdW + Hbond + desolv Energy     =  -13.74 kcal/mol
DOCKED: USER        Electrostatic Energy            =   +0.00 kcal/mol
DOCKED: USER    (2) Final Total Internal Energy     =   -1.19 kcal/mol
DOCKED: USER    (3) Torsional Free Energy           =   +2.09 kcal/mol
DOCKED: USER    (4) Unbound System's Energy  [=(2)] =   -1.19 kcal/mol
DOCKED: USER    
DOCKED: USER    
DOCKED: USER    NEWDPF move ligand.pdbqt
DOCKED: USER    NEWDPF about 0.578000 -0.033000 0.130000
DOCKED: USER    NEWDPF tran0 28.933695 -17.700139 -1.100523
DOCKED: USER    NEWDPF quaternion0 0.040474 0.512361 -0.841025 -0.168894
DOCKED: USER    NEWDPF axisangle0 0.041064 0.519829 -0.853283 -160.552965
DOCKED: USER    NEWDPF quat0 0.041064 0.519829 -0.853283 -160.552965
DOCKED: USER    NEWDPF dihe0 -167.26 -33.62 -50.54 -103.14 98.17 -172.86 18.26 
DOCKED: USER  keepresnum = 1 
DOCKED: USER  
DOCKED: REMARK  Name = 
DOCKED: REMARK  8 active torsions:
DOCKED: REMARK  status: ('A' for Active; 'I' for Inactive)
DOCKED: REMARK    1  A    between atoms: C_2  and  C_3
DOCKED: REMARK    2  A    between atoms: C_4  and  C_5
DOCKED: REMARK    3  A    between atoms: C_8  and  C_9
DOCKED: REMARK    4  A    between atoms: C_9  and  N_10
DOCKED: REMARK    5  A    between atoms: N_10  and  C_11
DOCKED: REMARK    6  A    between atoms: C_11  and  C_12
DOCKED: REMARK    7  A    between atoms: C_12  and  C_13
DOCKED: REMARK    8  A    between atoms: C_14  and  C_22
DOCKED: REMARK                            x       y       z     vdW  Elec       q    Type
DOCKED: REMARK                         _______ _______ _______ _____ _____    ______ ____
DOCKED: USER                              x       y       z     vdW  Elec       q    Type
DOCKED: USER                           _______ _______ _______ _____ _____    ______ ____
DOCKED: ROOT
DOCKED: ATOM      1  N   UNL     1      29.657 -17.857  -0.859 -0.25 -0.00    +0.000 N 
DOCKED: ATOM      2  H   UNL     1      29.455 -18.792  -1.212 -0.11 -0.00    +0.000 HD
DOCKED: ATOM      3  H   UNL     1      29.381 -17.760   0.118 -0.55 -0.00    +0.000 HD
DOCKED: ENDROOT
DOCKED: BRANCH   1   4
DOCKED: ATOM      4  C   UNL     1      28.887 -16.881  -1.641 -0.29 -0.00    +0.000 C 
DOCKED: BRANCH   4   8
DOCKED: ATOM      5  C   UNL     1      24.659 -17.487  -0.954 -0.63 -0.00    +0.000 A 
DOCKED: ATOM      6  C   UNL     1      25.617 -18.147  -0.158 -0.60 -0.00    +0.000 A 
DOCKED: ATOM      7  C   UNL     1      26.983 -17.959  -0.390 -0.45 -0.00    +0.000 A 
DOCKED: ATOM      8  C   UNL     1      27.418 -17.113  -1.421 -0.37 -0.00    +0.000 A 
DOCKED: ATOM      9  C   UNL     1      26.469 -16.429  -2.194 -0.40 -0.00    +0.000 A 
DOCKED: ATOM     10  C   UNL     1      25.103 -16.615  -1.962 -0.54 -0.00    +0.000 A 
DOCKED: BRANCH   5  12
DOCKED: ATOM     11  C   UNL     1      22.565 -18.822  -0.756 -0.83 -0.00    +0.000 C 
DOCKED: ATOM     12  C   UNL     1      23.199 -17.639  -0.740 -0.78 -0.00    +0.000 C 
DOCKED: BRANCH  11  14
DOCKED: ATOM     13  O   UNL     1      20.357 -18.016  -0.884 -2.19 -0.00    +0.000 OA
DOCKED: ATOM     14  C   UNL     1      21.110 -18.967  -0.541 -0.87 -0.00    +0.000 C 
DOCKED: ATOM     15  N   UNL     1      20.535 -20.131   0.065 -0.71 -0.00    +0.000 N 
DOCKED: ATOM     16  O   UNL     1      19.190 -20.261   0.142 -1.06 -0.00    +0.000 OA
DOCKED: ATOM     17  H   UNL     1      21.120 -20.836   0.425 -0.51 -0.00    +0.000 HD
DOCKED: ENDBRANCH  11  14
DOCKED: ENDBRANCH   5  12
DOCKED: ENDBRANCH   4   8
DOCKED: ENDBRANCH   1   4
DOCKED: BRANCH   1  18
DOCKED: ATOM     18  C   UNL     1      31.107 -17.622  -0.943 -0.18 -0.00    +0.000 C 
DOCKED: BRANCH  18  19
DOCKED: ATOM     19  C   UNL     1      31.796 -18.557  -1.949 -0.13 -0.00    +0.000 C 
DOCKED: BRANCH  19  20
DOCKED: ATOM     20  C   UNL     1      31.457 -18.153  -3.356 -0.13 -0.00    +0.000 A 
DOCKED: ATOM     21  C   UNL     1      31.358 -16.858  -3.865 -0.10 -0.00    +0.000 A 
DOCKED: ATOM     22  N   UNL     1      30.969 -16.881  -5.162 -0.18 -0.00    +0.000 N 
DOCKED: ATOM     23  C   UNL     1      30.799 -18.178  -5.470 -0.27 -0.00    +0.000 A 
DOCKED: ATOM     24  C   UNL     1      31.080 -18.983  -4.394 -0.20 -0.00    +0.000 A 
DOCKED: ATOM     25  C   UNL     1      30.955 -20.371  -4.463 -0.18 -0.00    +0.000 A 
DOCKED: ATOM     26  C   UNL     1      30.536 -20.933  -5.683 -0.38 -0.00    +0.000 A 
DOCKED: ATOM     27  C   UNL     1      30.251 -20.106  -6.791 -0.42 -0.00    +0.000 A 
DOCKED: ATOM     28  C   UNL     1      30.381 -18.708  -6.690 -0.36 -0.00    +0.000 A 
DOCKED: ATOM     29  C   UNL     1      31.653 -15.598  -3.113 -0.04 -0.00    +0.000 C 
DOCKED: ATOM     30  H   UNL     1      30.836 -16.107  -5.756 +0.00 -0.00    +0.000 HD
DOCKED: ENDBRANCH  19  20
DOCKED: ENDBRANCH  18  19
DOCKED: ENDBRANCH   1  18
DOCKED: TORSDOF 7
DOCKED: TER
DOCKED: ENDMDL
________________________________________________________________________________


	BEGINNING GENETIC ALGORITHM DOCKING 78 of 100
Run: 78 Seed: 475665216 190234324 [ Run 78 of 100 GA/GALS ]
Beginning LAMARCKIAN GENETIC ALGORITHM (LGA), with a maximum of 2500000 energy evaluations.

Final-Value: -15.725


	FINAL GENETIC ALGORITHM DOCKED STATE
	_______________________________________________


Detailed state:  trans 28.876 -15.545 0.478 quatxyzw 0.130710 -0.210281 -0.901728 -0.354377 center 0.578 -0.033 0.130 ntor 7 40.0417 -127.9453 171.3862 -135.4972 -145.7457 65.8511 23.5150
State:	 28.876 -15.545   0.478   0.140 -0.225 -0.964 -138.489     40.04 -127.95  171.39 -135.50 -145.75   65.85   23.51

DOCKED: MODEL       78
DOCKED: USER    Run = 78
DOCKED: USER    DPF = ligand_dock.biased.dpf
DOCKED: USER  
DOCKED: USER    Estimated Free Energy of Binding    =  -12.28 kcal/mol  [=(1)+(2)+(3)-(4)]
DOCKED: USER    Estimated Inhibition Constant, Ki   =  997.24 pM (picomolar)  [Temperature = 298.15 K]
DOCKED: USER    
DOCKED: USER    (1) Final Intermolecular Energy     =  -14.37 kcal/mol
DOCKED: USER        vdW + Hbond + desolv Energy     =  -14.37 kcal/mol
DOCKED: USER        Electrostatic Energy            =   +0.00 kcal/mol
DOCKED: USER    (2) Final Total Internal Energy     =   -1.36 kcal/mol
DOCKED: USER    (3) Torsional Free Energy           =   +2.09 kcal/mol
DOCKED: USER    (4) Unbound System's Energy  [=(2)] =   -1.36 kcal/mol
DOCKED: USER    
DOCKED: USER    
DOCKED: USER    NEWDPF move ligand.pdbqt
DOCKED: USER    NEWDPF about 0.578000 -0.033000 0.130000
DOCKED: USER    NEWDPF tran0 28.876178 -15.544544 0.477844
DOCKED: USER    NEWDPF quaternion0 0.130710 -0.210281 -0.901728 -0.354377
DOCKED: USER    NEWDPF axisangle0 0.139782 -0.224875 -0.964309 -138.489417
DOCKED: USER    NEWDPF quat0 0.139782 -0.224875 -0.964309 -138.489417
DOCKED: USER    NEWDPF dihe0 40.04 -127.95 171.39 -135.50 -145.75 65.85 23.51 
DOCKED: USER  keepresnum = 1 
DOCKED: USER  
DOCKED: REMARK  Name = 
DOCKED: REMARK  8 active torsions:
DOCKED: REMARK  status: ('A' for Active; 'I' for Inactive)
DOCKED: REMARK    1  A    between atoms: C_2  and  C_3
DOCKED: REMARK    2  A    between atoms: C_4  and  C_5
DOCKED: REMARK    3  A    between atoms: C_8  and  C_9
DOCKED: REMARK    4  A    between atoms: C_9  and  N_10
DOCKED: REMARK    5  A    between atoms: N_10  and  C_11
DOCKED: REMARK    6  A    between atoms: C_11  and  C_12
DOCKED: REMARK    7  A    between atoms: C_12  and  C_13
DOCKED: REMARK    8  A    between atoms: C_14  and  C_22
DOCKED: REMARK                            x       y       z     vdW  Elec       q    Type
DOCKED: REMARK                         _______ _______ _______ _____ _____    ______ ____
DOCKED: USER                              x       y       z     vdW  Elec       q    Type
DOCKED: USER                           _______ _______ _______ _____ _____    ______ ____
DOCKED: ROOT
DOCKED: ATOM      1  N   UNL     1      29.307 -15.028   0.871 -0.15 -0.00    +0.000 N 
DOCKED: ATOM      2  H   UNL     1      29.070 -15.609   1.676 -1.33 -0.00    +0.000 HD
DOCKED: ATOM      3  H   UNL     1      28.613 -14.296   0.723 -0.07 -0.00    +0.000 HD
DOCKED: ENDROOT
DOCKED: BRANCH   1   4
DOCKED: ATOM      4  C   UNL     1      29.328 -15.875  -0.330 -0.21 -0.00    +0.000 C 
DOCKED: BRANCH   4   8
DOCKED: ATOM      5  C   UNL     1      25.327 -17.201  -1.299 -0.57 -0.00    +0.000 A 
DOCKED: ATOM      6  C   UNL     1      26.126 -16.564  -2.269 -0.41 -0.00    +0.000 A 
DOCKED: ATOM      7  C   UNL     1      27.415 -16.125  -1.950 -0.31 -0.00    +0.000 A 
DOCKED: ATOM      8  C   UNL     1      27.928 -16.311  -0.658 -0.31 -0.00    +0.000 A 
DOCKED: ATOM      9  C   UNL     1      27.149 -16.973   0.301 -0.19 -0.00    +0.000 A 
DOCKED: ATOM     10  C   UNL     1      25.861 -17.414  -0.017 -0.41 -0.00    +0.000 A 
DOCKED: BRANCH   5  12
DOCKED: ATOM     11  C   UNL     1      22.988 -17.785  -0.667 -0.80 -0.00    +0.000 C 
DOCKED: ATOM     12  C   UNL     1      23.960 -17.699  -1.589 -0.69 -0.00    +0.000 C 
DOCKED: BRANCH  11  14
DOCKED: ATOM     13  O   UNL     1      20.649 -17.532  -0.706 -2.12 +0.00    +0.000 OA
DOCKED: ATOM     14  C   UNL     1      21.629 -18.281  -0.964 -0.76 -0.00    +0.000 C 
DOCKED: ATOM     15  N   UNL     1      21.388 -19.586  -1.504 -0.65 -0.00    +0.000 N 
DOCKED: ATOM     16  O   UNL     1      20.134 -19.953  -1.858 -2.28 -0.00    +0.000 OA
DOCKED: ATOM     17  H   UNL     1      22.136 -20.216  -1.618 -0.39 -0.00    +0.000 HD
DOCKED: ENDBRANCH  11  14
DOCKED: ENDBRANCH   5  12
DOCKED: ENDBRANCH   4   8
DOCKED: ENDBRANCH   1   4
DOCKED: BRANCH   1  18
DOCKED: ATOM     18  C   UNL     1      30.602 -14.378   1.120 -0.11 -0.00    +0.000 C 
DOCKED: BRANCH  18  19
DOCKED: ATOM     19  C   UNL     1      30.449 -12.918   1.573 -0.06 -0.00    +0.000 C 
DOCKED: BRANCH  19  20
DOCKED: ATOM     20  C   UNL     1      29.297 -12.784   2.528 -0.12 -0.00    +0.000 A 
DOCKED: ATOM     21  C   UNL     1      27.997 -12.368   2.236 -0.19 -0.00    +0.000 A 
DOCKED: ATOM     22  N   UNL     1      27.248 -12.309   3.362 -0.29 +0.00    +0.000 N 
DOCKED: ATOM     23  C   UNL     1      28.069 -12.661   4.366 -0.34 -0.00    +0.000 A 
DOCKED: ATOM     24  C   UNL     1      29.326 -12.951   3.899 -0.19 -0.00    +0.000 A 
DOCKED: ATOM     25  C   UNL     1      30.361 -13.321   4.759 -0.22 -0.00    +0.000 A 
DOCKED: ATOM     26  C   UNL     1      30.076 -13.399   6.135 -0.28 -0.00    +0.000 A 
DOCKED: ATOM     27  C   UNL     1      28.782 -13.105   6.615 -0.36 -0.00    +0.000 A 
DOCKED: ATOM     28  C   UNL     1      27.759 -12.728   5.724 -0.38 +0.00    +0.000 A 
DOCKED: ATOM     29  C   UNL     1      27.469 -12.045   0.873 -0.21 -0.00    +0.000 C 
DOCKED: ATOM     30  H   UNL     1      26.299 -12.058   3.431 +0.02 +0.00    +0.000 HD
DOCKED: ENDBRANCH  19  20
DOCKED: ENDBRANCH  18  19
DOCKED: ENDBRANCH   1  18
DOCKED: TORSDOF 7
DOCKED: TER
DOCKED: ENDMDL
________________________________________________________________________________


	BEGINNING GENETIC ALGORITHM DOCKING 79 of 100
Run: 79 Seed: 1288088644 1876805453 [ Run 79 of 100 GA/GALS ]
Beginning LAMARCKIAN GENETIC ALGORITHM (LGA), with a maximum of 2500000 energy evaluations.

Final-Value: -15.293


	FINAL GENETIC ALGORITHM DOCKED STATE
	_______________________________________________


Detailed state:  trans 28.931 -15.892 -1.418 quatxyzw -0.244192 0.791518 0.559269 -0.032988 center 0.578 -0.033 0.130 ntor 7 132.3930 -169.8538 179.3552 -110.6506 137.1626 156.0110 -27.6977
State:	 28.931 -15.892  -1.418  -0.244  0.792  0.560 -176.219    132.39 -169.85  179.36 -110.65  137.16  156.01  -27.70

DOCKED: MODEL       79
DOCKED: USER    Run = 79
DOCKED: USER    DPF = ligand_dock.biased.dpf
DOCKED: USER  
DOCKED: USER    Estimated Free Energy of Binding    =  -11.45 kcal/mol  [=(1)+(2)+(3)-(4)]
DOCKED: USER    Estimated Inhibition Constant, Ki   =    4.05 nM (nanomolar)  [Temperature = 298.15 K]
DOCKED: USER    
DOCKED: USER    (1) Final Intermolecular Energy     =  -13.54 kcal/mol
DOCKED: USER        vdW + Hbond + desolv Energy     =  -13.54 kcal/mol
DOCKED: USER        Electrostatic Energy            =   +0.00 kcal/mol
DOCKED: USER    (2) Final Total Internal Energy     =   -1.76 kcal/mol
DOCKED: USER    (3) Torsional Free Energy           =   +2.09 kcal/mol
DOCKED: USER    (4) Unbound System's Energy  [=(2)] =   -1.76 kcal/mol
DOCKED: USER    
DOCKED: USER    
DOCKED: USER    NEWDPF move ligand.pdbqt
DOCKED: USER    NEWDPF about 0.578000 -0.033000 0.130000
DOCKED: USER    NEWDPF tran0 28.930654 -15.891682 -1.418057
DOCKED: USER    NEWDPF quaternion0 -0.244192 0.791518 0.559269 -0.032988
DOCKED: USER    NEWDPF axisangle0 -0.244325 0.791949 0.559574 -176.219113
DOCKED: USER    NEWDPF quat0 -0.244325 0.791949 0.559574 -176.219113
DOCKED: USER    NEWDPF dihe0 132.39 -169.85 179.36 -110.65 137.16 156.01 -27.70 
DOCKED: USER  keepresnum = 1 
DOCKED: USER  
DOCKED: REMARK  Name = 
DOCKED: REMARK  8 active torsions:
DOCKED: REMARK  status: ('A' for Active; 'I' for Inactive)
DOCKED: REMARK    1  A    between atoms: C_2  and  C_3
DOCKED: REMARK    2  A    between atoms: C_4  and  C_5
DOCKED: REMARK    3  A    between atoms: C_8  and  C_9
DOCKED: REMARK    4  A    between atoms: C_9  and  N_10
DOCKED: REMARK    5  A    between atoms: N_10  and  C_11
DOCKED: REMARK    6  A    between atoms: C_11  and  C_12
DOCKED: REMARK    7  A    between atoms: C_12  and  C_13
DOCKED: REMARK    8  A    between atoms: C_14  and  C_22
DOCKED: REMARK                            x       y       z     vdW  Elec       q    Type
DOCKED: REMARK                         _______ _______ _______ _____ _____    ______ ____
DOCKED: USER                              x       y       z     vdW  Elec       q    Type
DOCKED: USER                           _______ _______ _______ _____ _____    ______ ____
DOCKED: ROOT
DOCKED: ATOM      1  N   UNL     1      29.433 -15.328  -1.229 -0.12 -0.00    +0.000 N 
DOCKED: ATOM      2  H   UNL     1      28.588 -14.775  -1.084 +0.00 -0.00    +0.000 HD
DOCKED: ATOM      3  H   UNL     1      29.762 -15.260  -2.191 +0.00 -0.00    +0.000 HD
DOCKED: ENDROOT
DOCKED: BRANCH   1   4
DOCKED: ATOM      4  C   UNL     1      29.125 -16.738  -0.959 -0.27 -0.00    +0.000 C 
DOCKED: BRANCH   4   8
DOCKED: ATOM      5  C   UNL     1      24.853 -17.393  -1.130 -0.62 -0.00    +0.000 A 
DOCKED: ATOM      6  C   UNL     1      25.516 -16.709  -2.168 -0.51 -0.00    +0.000 A 
DOCKED: ATOM      7  C   UNL     1      26.895 -16.488  -2.105 -0.35 -0.00    +0.000 A 
DOCKED: ATOM      8  C   UNL     1      27.636 -16.942  -1.005 -0.38 -0.00    +0.000 A 
DOCKED: ATOM      9  C   UNL     1      26.986 -17.652   0.015 -0.40 -0.00    +0.000 A 
DOCKED: ATOM     10  C   UNL     1      25.608 -17.875  -0.048 -0.56 -0.00    +0.000 A 
DOCKED: BRANCH   5  12
DOCKED: ATOM     11  C   UNL     1      22.784 -18.523  -0.320 -0.83 -0.00    +0.000 C 
DOCKED: ATOM     12  C   UNL     1      23.395 -17.667  -1.155 -0.74 -0.00    +0.000 C 
DOCKED: BRANCH  11  14
DOCKED: ATOM     13  O   UNL     1      20.560 -17.862  -0.712 -2.32 -0.00    +0.000 OA
DOCKED: ATOM     14  C   UNL     1      21.332 -18.790  -0.351 -0.83 -0.00    +0.000 C 
DOCKED: ATOM     15  N   UNL     1      20.774 -20.050   0.042 -0.69 -0.00    +0.000 N 
DOCKED: ATOM     16  O   UNL     1      19.449 -20.281  -0.105 -1.21 -0.00    +0.000 OA
DOCKED: ATOM     17  H   UNL     1      21.357 -20.749   0.418 -0.60 -0.00    +0.000 HD
DOCKED: ENDBRANCH  11  14
DOCKED: ENDBRANCH   5  12
DOCKED: ENDBRANCH   4   8
DOCKED: ENDBRANCH   1   4
DOCKED: BRANCH   1  18
DOCKED: ATOM     18  C   UNL     1      30.494 -14.809  -0.352 -0.09 -0.00    +0.000 C 
DOCKED: BRANCH  18  19
DOCKED: ATOM     19  C   UNL     1      30.114 -13.472   0.303 -0.07 -0.00    +0.000 C 
DOCKED: BRANCH  19  20
DOCKED: ATOM     20  C   UNL     1      28.951 -13.659   1.237 -0.14 -0.00    +0.000 A 
DOCKED: ATOM     21  C   UNL     1      27.593 -13.557   0.931 -0.23 -0.00    +0.000 A 
DOCKED: ATOM     22  N   UNL     1      26.838 -13.726   2.042 -0.28 -0.00    +0.000 N 
DOCKED: ATOM     23  C   UNL     1      27.707 -13.911   3.051 -0.35 -0.00    +0.000 A 
DOCKED: ATOM     24  C   UNL     1      29.003 -13.870   2.601 -0.21 -0.00    +0.000 A 
DOCKED: ATOM     25  C   UNL     1      30.085 -14.015   3.470 -0.23 -0.00    +0.000 A 
DOCKED: ATOM     26  C   UNL     1      29.810 -14.216   4.835 -0.32 -0.00    +0.000 A 
DOCKED: ATOM     27  C   UNL     1      28.477 -14.263   5.297 -0.43 -0.00    +0.000 A 
DOCKED: ATOM     28  C   UNL     1      27.405 -14.107   4.398 -0.53 -0.00    +0.000 A 
DOCKED: ATOM     29  C   UNL     1      27.020 -13.315  -0.430 -0.24 -0.00    +0.000 C 
DOCKED: ATOM     30  H   UNL     1      25.855 -13.714   2.099 -0.01 -0.00    +0.000 HD
DOCKED: ENDBRANCH  19  20
DOCKED: ENDBRANCH  18  19
DOCKED: ENDBRANCH   1  18
DOCKED: TORSDOF 7
DOCKED: TER
DOCKED: ENDMDL
________________________________________________________________________________


	BEGINNING GENETIC ALGORITHM DOCKING 80 of 100
Run: 80 Seed: 535630859 1287994672 [ Run 80 of 100 GA/GALS ]
Beginning LAMARCKIAN GENETIC ALGORITHM (LGA), with a maximum of 2500000 energy evaluations.

Final-Value: -15.719


	FINAL GENETIC ALGORITHM DOCKED STATE
	_______________________________________________


Detailed state:  trans 27.927 -16.271 -1.970 quatxyzw -0.380455 0.871477 -0.302083 0.067289 center 0.578 -0.033 0.130 ntor 7 7.1631 -138.8128 177.2950 -99.5488 -178.4213 163.9463 -17.3331
State:	 27.927 -16.271  -1.970  -0.381  0.873 -0.303 172.283      7.16 -138.81  177.30  -99.55 -178.42  163.95  -17.33

DOCKED: MODEL       80
DOCKED: USER    Run = 80
DOCKED: USER    DPF = ligand_dock.biased.dpf
DOCKED: USER  
DOCKED: USER    Estimated Free Energy of Binding    =  -12.12 kcal/mol  [=(1)+(2)+(3)-(4)]
DOCKED: USER    Estimated Inhibition Constant, Ki   =    1.31 nM (nanomolar)  [Temperature = 298.15 K]
DOCKED: USER    
DOCKED: USER    (1) Final Intermolecular Energy     =  -14.21 kcal/mol
DOCKED: USER        vdW + Hbond + desolv Energy     =  -14.21 kcal/mol
DOCKED: USER        Electrostatic Energy            =   +0.00 kcal/mol
DOCKED: USER    (2) Final Total Internal Energy     =   -1.51 kcal/mol
DOCKED: USER    (3) Torsional Free Energy           =   +2.09 kcal/mol
DOCKED: USER    (4) Unbound System's Energy  [=(2)] =   -1.51 kcal/mol
DOCKED: USER    
DOCKED: USER    
DOCKED: USER    NEWDPF move ligand.pdbqt
DOCKED: USER    NEWDPF about 0.578000 -0.033000 0.130000
DOCKED: USER    NEWDPF tran0 27.926749 -16.271253 -1.970386
DOCKED: USER    NEWDPF quaternion0 -0.380455 0.871477 -0.302083 0.067289
DOCKED: USER    NEWDPF axisangle0 -0.381320 0.873456 -0.302769 172.283380
DOCKED: USER    NEWDPF quat0 -0.381320 0.873456 -0.302769 172.283380
DOCKED: USER    NEWDPF dihe0 7.16 -138.81 177.30 -99.55 -178.42 163.95 -17.33 
DOCKED: USER  keepresnum = 1 
DOCKED: USER  
DOCKED: REMARK  Name = 
DOCKED: REMARK  8 active torsions:
DOCKED: REMARK  status: ('A' for Active; 'I' for Inactive)
DOCKED: REMARK    1  A    between atoms: C_2  and  C_3
DOCKED: REMARK    2  A    between atoms: C_4  and  C_5
DOCKED: REMARK    3  A    between atoms: C_8  and  C_9
DOCKED: REMARK    4  A    between atoms: C_9  and  N_10
DOCKED: REMARK    5  A    between atoms: N_10  and  C_11
DOCKED: REMARK    6  A    between atoms: C_11  and  C_12
DOCKED: REMARK    7  A    between atoms: C_12  and  C_13
DOCKED: REMARK    8  A    between atoms: C_14  and  C_22
DOCKED: REMARK                            x       y       z     vdW  Elec       q    Type
DOCKED: REMARK                         _______ _______ _______ _____ _____    ______ ____
DOCKED: USER                              x       y       z     vdW  Elec       q    Type
DOCKED: USER                           _______ _______ _______ _____ _____    ______ ____
DOCKED: ROOT
DOCKED: ATOM      1  N   UNL     1      28.387 -15.974  -2.523 -0.24 -0.00    +0.000 N 
DOCKED: ATOM      2  H   UNL     1      27.666 -16.321  -3.156 -0.02 -0.00    +0.000 HD
DOCKED: ATOM      3  H   UNL     1      29.101 -16.681  -2.348 -0.01 -0.00    +0.000 HD
DOCKED: ENDROOT
DOCKED: BRANCH   1   4
DOCKED: ATOM      4  C   UNL     1      27.763 -15.639  -1.237 -0.29 -0.00    +0.000 C 
DOCKED: BRANCH   4   8
DOCKED: ATOM      5  C   UNL     1      24.267 -18.096  -0.567 -0.68 -0.00    +0.000 A 
DOCKED: ATOM      6  C   UNL     1      25.521 -18.478  -0.051 -0.50 -0.00    +0.000 A 
DOCKED: ATOM      7  C   UNL     1      26.653 -17.688  -0.278 -0.52 -0.00    +0.000 A 
DOCKED: ATOM      8  C   UNL     1      26.553 -16.506  -1.028 -0.43 -0.00    +0.000 A 
DOCKED: ATOM      9  C   UNL     1      25.301 -16.106  -1.516 -0.49 -0.00    +0.000 A 
DOCKED: ATOM     10  C   UNL     1      24.170 -16.895  -1.288 -0.57 -0.00    +0.000 A 
DOCKED: BRANCH   5  12
DOCKED: ATOM     11  C   UNL     1      21.922 -18.763  -1.082 -0.82 -0.00    +0.000 C 
DOCKED: ATOM     12  C   UNL     1      23.034 -18.890  -0.342 -0.76 -0.00    +0.000 C 
DOCKED: BRANCH  11  14
DOCKED: ATOM     13  O   UNL     1      19.900 -19.720  -1.814 -2.38 -0.00    +0.000 OA
DOCKED: ATOM     14  C   UNL     1      20.698 -19.558  -0.853 -0.86 -0.00    +0.000 C 
DOCKED: ATOM     15  N   UNL     1      20.376 -20.121   0.425 -0.70 -0.00    +0.000 N 
DOCKED: ATOM     16  O   UNL     1      19.299 -20.930   0.558 -0.87 -0.00    +0.000 OA
DOCKED: ATOM     17  H   UNL     1      20.941 -19.920   1.206 -0.48 -0.00    +0.000 HD
DOCKED: ENDBRANCH  11  14
DOCKED: ENDBRANCH   5  12
DOCKED: ENDBRANCH   4   8
DOCKED: ENDBRANCH   1   4
DOCKED: BRANCH   1  18
DOCKED: ATOM     18  C   UNL     1      29.045 -14.814  -3.145 -0.15 -0.00    +0.000 C 
DOCKED: BRANCH  18  19
DOCKED: ATOM     19  C   UNL     1      28.507 -14.520  -4.554 -0.26 -0.00    +0.000 C 
DOCKED: BRANCH  19  20
DOCKED: ATOM     20  C   UNL     1      27.163 -13.854  -4.473 -0.30 -0.00    +0.000 A 
DOCKED: ATOM     21  C   UNL     1      25.910 -14.469  -4.485 -0.43 -0.00    +0.000 A 
DOCKED: ATOM     22  N   UNL     1      24.922 -13.544  -4.461 -0.40 -0.00    +0.000 N 
DOCKED: ATOM     23  C   UNL     1      25.538 -12.349  -4.456 -0.31 -0.00    +0.000 A 
DOCKED: ATOM     24  C   UNL     1      26.903 -12.497  -4.470 -0.23 -0.00    +0.000 A 
DOCKED: ATOM     25  C   UNL     1      27.759 -11.396  -4.491 -0.11 -0.00    +0.000 A 
DOCKED: ATOM     26  C   UNL     1      27.181 -10.113  -4.488 -0.10 -0.00    +0.000 A 
DOCKED: ATOM     27  C   UNL     1      25.778  -9.961  -4.469 -0.22 -0.00    +0.000 A 
DOCKED: ATOM     28  C   UNL     1      24.938 -11.091  -4.455 -0.22 -0.00    +0.000 A 
DOCKED: ATOM     29  C   UNL     1      25.661 -15.944  -4.503 -0.29 -0.00    +0.000 C 
DOCKED: ATOM     30  H   UNL     1      23.952 -13.712  -4.450 -0.55 -0.00    +0.000 HD
DOCKED: ENDBRANCH  19  20
DOCKED: ENDBRANCH  18  19
DOCKED: ENDBRANCH   1  18
DOCKED: TORSDOF 7
DOCKED: TER
DOCKED: ENDMDL
________________________________________________________________________________


	BEGINNING GENETIC ALGORITHM DOCKING 81 of 100
Run: 81 Seed: 1059591192 929422389 [ Run 81 of 100 GA/GALS ]
Beginning LAMARCKIAN GENETIC ALGORITHM (LGA), with a maximum of 2500000 energy evaluations.

Final-Value: -14.652


	FINAL GENETIC ALGORITHM DOCKED STATE
	_______________________________________________


Detailed state:  trans 28.639 -17.262 -1.860 quatxyzw 0.008722 0.995590 -0.055717 0.074972 center 0.578 -0.033 0.130 ntor 7 175.7435 167.3588 -0.8535 -140.0383 39.4865 175.0927 0.6186
State:	 28.639 -17.262  -1.860   0.009  0.998 -0.056 171.401    175.74  167.36   -0.85 -140.04   39.49  175.09    0.62

DOCKED: MODEL       81
DOCKED: USER    Run = 81
DOCKED: USER    DPF = ligand_dock.biased.dpf
DOCKED: USER  
DOCKED: USER    Estimated Free Energy of Binding    =  -10.62 kcal/mol  [=(1)+(2)+(3)-(4)]
DOCKED: USER    Estimated Inhibition Constant, Ki   =   16.36 nM (nanomolar)  [Temperature = 298.15 K]
DOCKED: USER    
DOCKED: USER    (1) Final Intermolecular Energy     =  -12.71 kcal/mol
DOCKED: USER        vdW + Hbond + desolv Energy     =  -12.71 kcal/mol
DOCKED: USER        Electrostatic Energy            =   +0.00 kcal/mol
DOCKED: USER    (2) Final Total Internal Energy     =   -1.94 kcal/mol
DOCKED: USER    (3) Torsional Free Energy           =   +2.09 kcal/mol
DOCKED: USER    (4) Unbound System's Energy  [=(2)] =   -1.94 kcal/mol
DOCKED: USER    
DOCKED: USER    
DOCKED: USER    NEWDPF move ligand.pdbqt
DOCKED: USER    NEWDPF about 0.578000 -0.033000 0.130000
DOCKED: USER    NEWDPF tran0 28.638816 -17.261933 -1.860289
DOCKED: USER    NEWDPF quaternion0 0.008722 0.995590 -0.055717 0.074972
DOCKED: USER    NEWDPF axisangle0 0.008746 0.998400 -0.055874 171.400830
DOCKED: USER    NEWDPF quat0 0.008746 0.998400 -0.055874 171.400830
DOCKED: USER    NEWDPF dihe0 175.74 167.36 -0.85 -140.04 39.49 175.09 0.62 
DOCKED: USER  keepresnum = 1 
DOCKED: USER  
DOCKED: REMARK  Name = 
DOCKED: REMARK  8 active torsions:
DOCKED: REMARK  status: ('A' for Active; 'I' for Inactive)
DOCKED: REMARK    1  A    between atoms: C_2  and  C_3
DOCKED: REMARK    2  A    between atoms: C_4  and  C_5
DOCKED: REMARK    3  A    between atoms: C_8  and  C_9
DOCKED: REMARK    4  A    between atoms: C_9  and  N_10
DOCKED: REMARK    5  A    between atoms: N_10  and  C_11
DOCKED: REMARK    6  A    between atoms: C_11  and  C_12
DOCKED: REMARK    7  A    between atoms: C_12  and  C_13
DOCKED: REMARK    8  A    between atoms: C_14  and  C_22
DOCKED: REMARK                            x       y       z     vdW  Elec       q    Type
DOCKED: REMARK                         _______ _______ _______ _____ _____    ______ ____
DOCKED: USER                              x       y       z     vdW  Elec       q    Type
DOCKED: USER                           _______ _______ _______ _____ _____    ______ ____
DOCKED: ROOT
DOCKED: ATOM      1  N   UNL     1      29.283 -17.220  -2.296 -0.23 -0.00    +0.000 N 
DOCKED: ATOM      2  H   UNL     1      28.697 -16.656  -2.912 -0.02 -0.00    +0.000 HD
DOCKED: ATOM      3  H   UNL     1      29.222 -18.211  -2.529 +0.04 -0.00    +0.000 HD
DOCKED: ENDROOT
DOCKED: BRANCH   1   4
DOCKED: ATOM      4  C   UNL     1      28.810 -17.055  -0.915 -0.31 -0.00    +0.000 C 
DOCKED: BRANCH   4   8
DOCKED: ATOM      5  C   UNL     1      24.508 -17.495  -0.867 -0.64 -0.00    +0.000 A 
DOCKED: ATOM      6  C   UNL     1      25.132 -16.657  -1.812 -0.55 -0.00    +0.000 A 
DOCKED: ATOM      7  C   UNL     1      26.523 -16.507  -1.819 -0.41 -0.00    +0.000 A 
DOCKED: ATOM      8  C   UNL     1      27.313 -17.187  -0.881 -0.42 -0.00    +0.000 A 
DOCKED: ATOM      9  C   UNL     1      26.699 -18.047   0.041 -0.46 -0.00    +0.000 A 
DOCKED: ATOM     10  C   UNL     1      25.309 -18.199   0.047 -0.58 -0.00    +0.000 A 
DOCKED: BRANCH   5  12
DOCKED: ATOM     11  C   UNL     1      22.460 -18.870  -0.510 -0.82 -0.00    +0.000 C 
DOCKED: ATOM     12  C   UNL     1      23.039 -17.701  -0.827 -0.78 -0.00    +0.000 C 
DOCKED: BRANCH  11  14
DOCKED: ATOM     13  O   UNL     1      20.259 -18.177  -0.973 -2.13 -0.00    +0.000 OA
DOCKED: ATOM     14  C   UNL     1      20.997 -19.067  -0.471 -0.87 -0.00    +0.000 C 
DOCKED: ATOM     15  N   UNL     1      20.392 -20.215   0.138 -0.71 -0.00    +0.000 N 
DOCKED: ATOM     16  O   UNL     1      19.054 -20.402   0.054 -1.08 -0.00    +0.000 OA
DOCKED: ATOM     17  H   UNL     1      20.951 -20.867   0.618 -0.50 -0.00    +0.000 HD
DOCKED: ENDBRANCH  11  14
DOCKED: ENDBRANCH   5  12
DOCKED: ENDBRANCH   4   8
DOCKED: ENDBRANCH   1   4
DOCKED: BRANCH   1  18
DOCKED: ATOM     18  C   UNL     1      30.684 -16.804  -2.462 -0.15 -0.00    +0.000 C 
DOCKED: BRANCH  18  19
DOCKED: ATOM     19  C   UNL     1      30.823 -15.539  -3.323 -0.08 -0.00    +0.000 C 
DOCKED: BRANCH  19  20
DOCKED: ATOM     20  C   UNL     1      29.675 -14.603  -3.068 -0.08 -0.00    +0.000 A 
DOCKED: ATOM     21  C   UNL     1      29.604 -13.590  -2.112 -0.04 -0.00    +0.000 A 
DOCKED: ATOM     22  N   UNL     1      28.388 -12.996  -2.131 -0.09 -0.00    +0.000 N 
DOCKED: ATOM     23  C   UNL     1      27.681 -13.641  -3.075 -0.17 -0.00    +0.000 A 
DOCKED: ATOM     24  C   UNL     1      28.428 -14.630  -3.663 -0.18 -0.00    +0.000 A 
DOCKED: ATOM     25  C   UNL     1      27.902 -15.453  -4.660 -0.34 -0.00    +0.000 A 
DOCKED: ATOM     26  C   UNL     1      26.571 -15.234  -5.058 -0.44 -0.00    +0.000 A 
DOCKED: ATOM     27  C   UNL     1      25.803 -14.213  -4.456 -0.40 -0.00    +0.000 A 
DOCKED: ATOM     28  C   UNL     1      26.359 -13.402  -3.449 -0.28 -0.00    +0.000 A 
DOCKED: ATOM     29  C   UNL     1      30.710 -13.179  -1.191 -0.02 -0.00    +0.000 C 
DOCKED: ATOM     30  H   UNL     1      28.083 -12.248  -1.568 +0.00 -0.00    +0.000 HD
DOCKED: ENDBRANCH  19  20
DOCKED: ENDBRANCH  18  19
DOCKED: ENDBRANCH   1  18
DOCKED: TORSDOF 7
DOCKED: TER
DOCKED: ENDMDL
________________________________________________________________________________


	BEGINNING GENETIC ALGORITHM DOCKING 82 of 100
Run: 82 Seed: 951758860 1885108796 [ Run 82 of 100 GA/GALS ]
Beginning LAMARCKIAN GENETIC ALGORITHM (LGA), with a maximum of 2500000 energy evaluations.

Final-Value: -15.173


	FINAL GENETIC ALGORITHM DOCKED STATE
	_______________________________________________


Detailed state:  trans 28.582 -16.427 -1.477 quatxyzw -0.636334 0.407642 -0.623268 0.201105 center 0.578 -0.033 0.130 ntor 7 -25.6821 -108.8491 139.3380 36.6901 156.5994 47.0259 -78.9104
State:	 28.582 -16.427  -1.477  -0.650  0.416 -0.636 156.797    -25.68 -108.85  139.34   36.69  156.60   47.03  -78.91

DOCKED: MODEL       82
DOCKED: USER    Run = 82
DOCKED: USER    DPF = ligand_dock.biased.dpf
DOCKED: USER  
DOCKED: USER    Estimated Free Energy of Binding    =  -11.93 kcal/mol  [=(1)+(2)+(3)-(4)]
DOCKED: USER    Estimated Inhibition Constant, Ki   =    1.81 nM (nanomolar)  [Temperature = 298.15 K]
DOCKED: USER    
DOCKED: USER    (1) Final Intermolecular Energy     =  -14.01 kcal/mol
DOCKED: USER        vdW + Hbond + desolv Energy     =  -14.01 kcal/mol
DOCKED: USER        Electrostatic Energy            =   +0.00 kcal/mol
DOCKED: USER    (2) Final Total Internal Energy     =   -1.16 kcal/mol
DOCKED: USER    (3) Torsional Free Energy           =   +2.09 kcal/mol
DOCKED: USER    (4) Unbound System's Energy  [=(2)] =   -1.16 kcal/mol
DOCKED: USER    
DOCKED: USER    
DOCKED: USER    NEWDPF move ligand.pdbqt
DOCKED: USER    NEWDPF about 0.578000 -0.033000 0.130000
DOCKED: USER    NEWDPF tran0 28.582355 -16.427314 -1.477462
DOCKED: USER    NEWDPF quaternion0 -0.636334 0.407642 -0.623268 0.201105
DOCKED: USER    NEWDPF axisangle0 -0.649606 0.416144 -0.636268 156.796850
DOCKED: USER    NEWDPF quat0 -0.649606 0.416144 -0.636268 156.796850
DOCKED: USER    NEWDPF dihe0 -25.68 -108.85 139.34 36.69 156.60 47.03 -78.91 
DOCKED: USER  keepresnum = 1 
DOCKED: USER  
DOCKED: REMARK  Name = 
DOCKED: REMARK  8 active torsions:
DOCKED: REMARK  status: ('A' for Active; 'I' for Inactive)
DOCKED: REMARK    1  A    between atoms: C_2  and  C_3
DOCKED: REMARK    2  A    between atoms: C_4  and  C_5
DOCKED: REMARK    3  A    between atoms: C_8  and  C_9
DOCKED: REMARK    4  A    between atoms: C_9  and  N_10
DOCKED: REMARK    5  A    between atoms: N_10  and  C_11
DOCKED: REMARK    6  A    between atoms: C_11  and  C_12
DOCKED: REMARK    7  A    between atoms: C_12  and  C_13
DOCKED: REMARK    8  A    between atoms: C_14  and  C_22
DOCKED: REMARK                            x       y       z     vdW  Elec       q    Type
DOCKED: REMARK                         _______ _______ _______ _____ _____    ______ ____
DOCKED: USER                              x       y       z     vdW  Elec       q    Type
DOCKED: USER                           _______ _______ _______ _____ _____    ______ ____
DOCKED: ROOT
DOCKED: ATOM      1  N   UNL     1      28.791 -16.546  -2.218 -0.25 -0.00    +0.000 N 
DOCKED: ATOM      2  H   UNL     1      28.652 -17.529  -1.985 -0.03 -0.00    +0.000 HD
DOCKED: ATOM      3  H   UNL     1      29.747 -16.248  -2.026 +0.00 -0.00    +0.000 HD
DOCKED: ENDROOT
DOCKED: BRANCH   1   4
DOCKED: ATOM      4  C   UNL     1      27.892 -15.734  -1.387 -0.29 -0.00    +0.000 C 
DOCKED: BRANCH   4   8
DOCKED: ATOM      5  C   UNL     1      24.223 -17.881  -0.592 -0.68 -0.00    +0.000 A 
DOCKED: ATOM      6  C   UNL     1      25.440 -18.305  -0.023 -0.57 -0.00    +0.000 A 
DOCKED: ATOM      7  C   UNL     1      26.627 -17.617  -0.290 -0.52 -0.00    +0.000 A 
DOCKED: ATOM      8  C   UNL     1      26.622 -16.496  -1.133 -0.42 -0.00    +0.000 A 
DOCKED: ATOM      9  C   UNL     1      25.408 -16.050  -1.676 -0.49 -0.00    +0.000 A 
DOCKED: ATOM     10  C   UNL     1      24.221 -16.737  -1.408 -0.54 -0.00    +0.000 A 
DOCKED: BRANCH   5  12
DOCKED: ATOM     11  C   UNL     1      22.068 -18.919  -1.292 -0.74 -0.00    +0.000 C 
DOCKED: ATOM     12  C   UNL     1      22.934 -18.566  -0.329 -0.82 -0.00    +0.000 C 
DOCKED: BRANCH  11  14
DOCKED: ATOM     13  O   UNL     1      19.967 -19.735  -1.970 -2.37 -0.00    +0.000 OA
DOCKED: ATOM     14  C   UNL     1      20.786 -19.602  -1.022 -0.83 -0.00    +0.000 C 
DOCKED: ATOM     15  N   UNL     1      20.434 -20.089   0.279 -0.71 -0.00    +0.000 N 
DOCKED: ATOM     16  O   UNL     1      19.297 -20.801   0.453 -0.92 -0.00    +0.000 OA
DOCKED: ATOM     17  H   UNL     1      21.022 -19.904   1.048 -0.49 -0.00    +0.000 HD
DOCKED: ENDBRANCH  11  14
DOCKED: ENDBRANCH   5  12
DOCKED: ENDBRANCH   4   8
DOCKED: ENDBRANCH   1   4
DOCKED: BRANCH   1  18
DOCKED: ATOM     18  C   UNL     1      28.543 -16.361  -3.656 -0.18 -0.00    +0.000 C 
DOCKED: BRANCH  18  19
DOCKED: ATOM     19  C   UNL     1      29.776 -15.829  -4.402 -0.23 -0.00    +0.000 C 
DOCKED: BRANCH  19  20
DOCKED: ATOM     20  C   UNL     1      29.357 -14.948  -5.545 -0.26 -0.00    +0.000 A 
DOCKED: ATOM     21  C   UNL     1      29.785 -15.018  -6.871 -0.29 -0.00    +0.000 A 
DOCKED: ATOM     22  N   UNL     1      29.242 -14.019  -7.604 -0.30 -0.00    +0.000 N 
DOCKED: ATOM     23  C   UNL     1      28.492 -13.303  -6.748 -0.25 -0.00    +0.000 A 
DOCKED: ATOM     24  C   UNL     1      28.543 -13.833  -5.484 -0.24 -0.00    +0.000 A 
DOCKED: ATOM     25  C   UNL     1      27.860 -13.249  -4.416 -0.18 -0.00    +0.000 A 
DOCKED: ATOM     26  C   UNL     1      27.102 -12.093  -4.673 -0.19 -0.00    +0.000 A 
DOCKED: ATOM     27  C   UNL     1      27.047 -11.549  -5.975 -0.17 -0.00    +0.000 A 
DOCKED: ATOM     28  C   UNL     1      27.750 -12.157  -7.032 -0.15 -0.00    +0.000 A 
DOCKED: ATOM     29  C   UNL     1      30.703 -16.056  -7.438 -0.30 -0.00    +0.000 C 
DOCKED: ATOM     30  H   UNL     1      29.371 -13.850  -8.565 -0.61 -0.00    +0.000 HD
DOCKED: ENDBRANCH  19  20
DOCKED: ENDBRANCH  18  19
DOCKED: ENDBRANCH   1  18
DOCKED: TORSDOF 7
DOCKED: TER
DOCKED: ENDMDL
________________________________________________________________________________


	BEGINNING GENETIC ALGORITHM DOCKING 83 of 100
Run: 83 Seed: 1611063363 1069169280 [ Run 83 of 100 GA/GALS ]
Beginning LAMARCKIAN GENETIC ALGORITHM (LGA), with a maximum of 2500000 energy evaluations.

Final-Value: -15.592


	FINAL GENETIC ALGORITHM DOCKED STATE
	_______________________________________________


Detailed state:  trans 29.141 -17.349 -1.434 quatxyzw 0.417390 -0.720775 0.539109 -0.125022 center 0.578 -0.033 0.130 ntor 7 136.2512 32.7244 30.1984 -30.1695 179.4804 164.7312 -54.3340
State:	 29.141 -17.349  -1.434   0.421 -0.726  0.543 -165.636    136.25   32.72   30.20  -30.17  179.48  164.73  -54.33

DOCKED: MODEL       83
DOCKED: USER    Run = 83
DOCKED: USER    DPF = ligand_dock.biased.dpf
DOCKED: USER  
DOCKED: USER    Estimated Free Energy of Binding    =  -12.14 kcal/mol  [=(1)+(2)+(3)-(4)]
DOCKED: USER    Estimated Inhibition Constant, Ki   =    1.27 nM (nanomolar)  [Temperature = 298.15 K]
DOCKED: USER    
DOCKED: USER    (1) Final Intermolecular Energy     =  -14.22 kcal/mol
DOCKED: USER        vdW + Hbond + desolv Energy     =  -14.22 kcal/mol
DOCKED: USER        Electrostatic Energy            =   +0.00 kcal/mol
DOCKED: USER    (2) Final Total Internal Energy     =   -1.37 kcal/mol
DOCKED: USER    (3) Torsional Free Energy           =   +2.09 kcal/mol
DOCKED: USER    (4) Unbound System's Energy  [=(2)] =   -1.37 kcal/mol
DOCKED: USER    
DOCKED: USER    
DOCKED: USER    NEWDPF move ligand.pdbqt
DOCKED: USER    NEWDPF about 0.578000 -0.033000 0.130000
DOCKED: USER    NEWDPF tran0 29.140738 -17.348882 -1.433776
DOCKED: USER    NEWDPF quaternion0 0.417390 -0.720775 0.539109 -0.125022
DOCKED: USER    NEWDPF axisangle0 0.420691 -0.726475 0.543372 -165.635984
DOCKED: USER    NEWDPF quat0 0.420691 -0.726475 0.543372 -165.635984
DOCKED: USER    NEWDPF dihe0 136.25 32.72 30.20 -30.17 179.48 164.73 -54.33 
DOCKED: USER  keepresnum = 1 
DOCKED: USER  
DOCKED: REMARK  Name = 
DOCKED: REMARK  8 active torsions:
DOCKED: REMARK  status: ('A' for Active; 'I' for Inactive)
DOCKED: REMARK    1  A    between atoms: C_2  and  C_3
DOCKED: REMARK    2  A    between atoms: C_4  and  C_5
DOCKED: REMARK    3  A    between atoms: C_8  and  C_9
DOCKED: REMARK    4  A    between atoms: C_9  and  N_10
DOCKED: REMARK    5  A    between atoms: N_10  and  C_11
DOCKED: REMARK    6  A    between atoms: C_11  and  C_12
DOCKED: REMARK    7  A    between atoms: C_12  and  C_13
DOCKED: REMARK    8  A    between atoms: C_14  and  C_22
DOCKED: REMARK                            x       y       z     vdW  Elec       q    Type
DOCKED: REMARK                         _______ _______ _______ _____ _____    ______ ____
DOCKED: USER                              x       y       z     vdW  Elec       q    Type
DOCKED: USER                           _______ _______ _______ _____ _____    ______ ____
DOCKED: ROOT
DOCKED: ATOM      1  N   UNL     1      29.592 -17.304  -2.066 -0.23 -0.00    +0.000 N 
DOCKED: ATOM      2  H   UNL     1      28.991 -18.050  -2.415 +0.04 -0.00    +0.000 HD
DOCKED: ATOM      3  H   UNL     1      30.392 -17.677  -1.555 -0.01 -0.00    +0.000 HD
DOCKED: ENDROOT
DOCKED: BRANCH   1   4
DOCKED: ATOM      4  C   UNL     1      28.818 -16.469  -1.138 -0.28 -0.00    +0.000 C 
DOCKED: BRANCH   4   8
DOCKED: ATOM      5  C   UNL     1      24.640 -17.586  -1.229 -0.64 -0.00    +0.000 A 
DOCKED: ATOM      6  C   UNL     1      25.520 -18.175  -0.298 -0.62 -0.00    +0.000 A 
DOCKED: ATOM      7  C   UNL     1      26.872 -17.820  -0.278 -0.48 -0.00    +0.000 A 
DOCKED: ATOM      8  C   UNL     1      27.372 -16.878  -1.188 -0.39 -0.00    +0.000 A 
DOCKED: ATOM      9  C   UNL     1      26.494 -16.266  -2.095 -0.40 -0.00    +0.000 A 
DOCKED: ATOM     10  C   UNL     1      25.141 -16.618  -2.114 -0.53 -0.00    +0.000 A 
DOCKED: BRANCH   5  12
DOCKED: ATOM     11  C   UNL     1      22.563 -18.645  -0.349 -0.83 -0.00    +0.000 C 
DOCKED: ATOM     12  C   UNL     1      23.194 -17.915  -1.282 -0.72 -0.00    +0.000 C 
DOCKED: BRANCH  11  14
DOCKED: ATOM     13  O   UNL     1      20.356 -18.176  -1.020 -2.13 -0.00    +0.000 OA
DOCKED: ATOM     14  C   UNL     1      21.122 -18.967  -0.408 -0.86 -0.00    +0.000 C 
DOCKED: ATOM     15  N   UNL     1      20.568 -20.126   0.227 -0.70 -0.00    +0.000 N 
DOCKED: ATOM     16  O   UNL     1      19.262 -20.435   0.055 -1.11 -0.00    +0.000 OA
DOCKED: ATOM     17  H   UNL     1      21.139 -20.698   0.789 -0.60 -0.00    +0.000 HD
DOCKED: ENDBRANCH  11  14
DOCKED: ENDBRANCH   5  12
DOCKED: ENDBRANCH   4   8
DOCKED: ENDBRANCH   1   4
DOCKED: BRANCH   1  18
DOCKED: ATOM     18  C   UNL     1      30.107 -16.537  -3.211 -0.20 -0.00    +0.000 C 
DOCKED: BRANCH  18  19
DOCKED: ATOM     19  C   UNL     1      29.634 -17.104  -4.559 -0.26 -0.00    +0.000 C 
DOCKED: BRANCH  19  20
DOCKED: ATOM     20  C   UNL     1      29.419 -15.993  -5.547 -0.31 -0.00    +0.000 A 
DOCKED: ATOM     21  C   UNL     1      30.045 -15.825  -6.783 -0.29 -0.00    +0.000 A 
DOCKED: ATOM     22  N   UNL     1      29.647 -14.671  -7.369 -0.32 -0.00    +0.000 N 
DOCKED: ATOM     23  C   UNL     1      28.793 -14.097  -6.505 -0.31 -0.00    +0.000 A 
DOCKED: ATOM     24  C   UNL     1      28.634 -14.868  -5.381 -0.32 -0.00    +0.000 A 
DOCKED: ATOM     25  C   UNL     1      27.810 -14.469  -4.328 -0.28 -0.00    +0.000 A 
DOCKED: ATOM     26  C   UNL     1      27.131 -13.243  -4.453 -0.25 -0.00    +0.000 A 
DOCKED: ATOM     27  C   UNL     1      27.291 -12.452  -5.611 -0.19 -0.00    +0.000 A 
DOCKED: ATOM     28  C   UNL     1      28.134 -12.878  -6.655 -0.20 -0.00    +0.000 A 
DOCKED: ATOM     29  C   UNL     1      31.012 -16.780  -7.409 -0.32 -0.00    +0.000 C 
DOCKED: ATOM     30  H   UNL     1      29.928 -14.324  -8.247 -0.50 -0.00    +0.000 HD
DOCKED: ENDBRANCH  19  20
DOCKED: ENDBRANCH  18  19
DOCKED: ENDBRANCH   1  18
DOCKED: TORSDOF 7
DOCKED: TER
DOCKED: ENDMDL
________________________________________________________________________________


	BEGINNING GENETIC ALGORITHM DOCKING 84 of 100
Run: 84 Seed: 1708919 843519929 [ Run 84 of 100 GA/GALS ]
Beginning LAMARCKIAN GENETIC ALGORITHM (LGA), with a maximum of 2500000 energy evaluations.

Final-Value: -14.819


	FINAL GENETIC ALGORITHM DOCKED STATE
	_______________________________________________


Detailed state:  trans 29.130 -15.917 -1.138 quatxyzw -0.397758 0.853879 0.323563 -0.089365 center 0.578 -0.033 0.130 ntor 7 107.5777 91.0076 140.6371 -84.0642 -117.5747 179.8983 -36.7573
State:	 29.130 -15.917  -1.138  -0.399  0.857  0.325 -169.746    107.58   91.01  140.64  -84.06 -117.57  179.90  -36.76

DOCKED: MODEL       84
DOCKED: USER    Run = 84
DOCKED: USER    DPF = ligand_dock.biased.dpf
DOCKED: USER  
DOCKED: USER    Estimated Free Energy of Binding    =  -11.10 kcal/mol  [=(1)+(2)+(3)-(4)]
DOCKED: USER    Estimated Inhibition Constant, Ki   =    7.28 nM (nanomolar)  [Temperature = 298.15 K]
DOCKED: USER    
DOCKED: USER    (1) Final Intermolecular Energy     =  -13.19 kcal/mol
DOCKED: USER        vdW + Hbond + desolv Energy     =  -13.19 kcal/mol
DOCKED: USER        Electrostatic Energy            =   +0.00 kcal/mol
DOCKED: USER    (2) Final Total Internal Energy     =   -1.63 kcal/mol
DOCKED: USER    (3) Torsional Free Energy           =   +2.09 kcal/mol
DOCKED: USER    (4) Unbound System's Energy  [=(2)] =   -1.63 kcal/mol
DOCKED: USER    
DOCKED: USER    
DOCKED: USER    NEWDPF move ligand.pdbqt
DOCKED: USER    NEWDPF about 0.578000 -0.033000 0.130000
DOCKED: USER    NEWDPF tran0 29.129985 -15.917274 -1.138444
DOCKED: USER    NEWDPF quaternion0 -0.397758 0.853879 0.323563 -0.089365
DOCKED: USER    NEWDPF axisangle0 -0.399355 0.857309 0.324863 -169.745862
DOCKED: USER    NEWDPF quat0 -0.399355 0.857309 0.324863 -169.745862
DOCKED: USER    NEWDPF dihe0 107.58 91.01 140.64 -84.06 -117.57 179.90 -36.76 
DOCKED: USER  keepresnum = 1 
DOCKED: USER  
DOCKED: REMARK  Name = 
DOCKED: REMARK  8 active torsions:
DOCKED: REMARK  status: ('A' for Active; 'I' for Inactive)
DOCKED: REMARK    1  A    between atoms: C_2  and  C_3
DOCKED: REMARK    2  A    between atoms: C_4  and  C_5
DOCKED: REMARK    3  A    between atoms: C_8  and  C_9
DOCKED: REMARK    4  A    between atoms: C_9  and  N_10
DOCKED: REMARK    5  A    between atoms: N_10  and  C_11
DOCKED: REMARK    6  A    between atoms: C_11  and  C_12
DOCKED: REMARK    7  A    between atoms: C_12  and  C_13
DOCKED: REMARK    8  A    between atoms: C_14  and  C_22
DOCKED: REMARK                            x       y       z     vdW  Elec       q    Type
DOCKED: REMARK                         _______ _______ _______ _____ _____    ______ ____
DOCKED: USER                              x       y       z     vdW  Elec       q    Type
DOCKED: USER                           _______ _______ _______ _____ _____    ______ ____
DOCKED: ROOT
DOCKED: ATOM      1  N   UNL     1      29.492 -15.233  -1.059 -0.11 -0.00    +0.000 N 
DOCKED: ATOM      2  H   UNL     1      28.630 -14.855  -1.452 +0.01 -0.00    +0.000 HD
DOCKED: ATOM      3  H   UNL     1      30.163 -15.471  -1.789 +0.00 -0.00    +0.000 HD
DOCKED: ENDROOT
DOCKED: BRANCH   1   4
DOCKED: ATOM      4  C   UNL     1      29.174 -16.464  -0.323 -0.22 -0.00    +0.000 C 
DOCKED: BRANCH   4   8
DOCKED: ATOM      5  C   UNL     1      25.050 -17.567  -1.021 -0.62 -0.00    +0.000 A 
DOCKED: ATOM      6  C   UNL     1      26.001 -18.541  -0.654 -0.46 -0.00    +0.000 A 
DOCKED: ATOM      7  C   UNL     1      27.336 -18.184  -0.441 -0.21 -0.00    +0.000 A 
DOCKED: ATOM      8  C   UNL     1      27.747 -16.851  -0.593 -0.36 -0.00    +0.000 A 
DOCKED: ATOM      9  C   UNL     1      26.798 -15.874  -0.926 -0.36 -0.00    +0.000 A 
DOCKED: ATOM     10  C   UNL     1      25.463 -16.230  -1.137 -0.48 -0.00    +0.000 A 
DOCKED: BRANCH   5  12
DOCKED: ATOM     11  C   UNL     1      22.782 -18.273  -0.268 -0.82 -0.00    +0.000 C 
DOCKED: ATOM     12  C   UNL     1      23.619 -17.890  -1.244 -0.76 -0.00    +0.000 C 
DOCKED: BRANCH  11  14
DOCKED: ATOM     13  O   UNL     1      20.630 -17.721  -1.043 -2.19 -0.00    +0.000 OA
DOCKED: ATOM     14  C   UNL     1      21.358 -18.592  -0.497 -0.83 -0.00    +0.000 C 
DOCKED: ATOM     15  N   UNL     1      20.776 -19.838  -0.096 -0.72 -0.00    +0.000 N 
DOCKED: ATOM     16  O   UNL     1      19.495 -20.125  -0.424 -1.41 -0.00    +0.000 OA
DOCKED: ATOM     17  H   UNL     1      21.310 -20.486   0.418 -0.56 -0.00    +0.000 HD
DOCKED: ENDBRANCH  11  14
DOCKED: ENDBRANCH   5  12
DOCKED: ENDBRANCH   4   8
DOCKED: ENDBRANCH   1   4
DOCKED: BRANCH   1  18
DOCKED: ATOM     18  C   UNL     1      30.108 -14.210  -0.199 -0.08 -0.00    +0.000 C 
DOCKED: BRANCH  18  19
DOCKED: ATOM     19  C   UNL     1      29.150 -13.051   0.114 -0.08 -0.00    +0.000 C 
DOCKED: BRANCH  19  20
DOCKED: ATOM     20  C   UNL     1      28.395 -13.323   1.384 -0.17 -0.00    +0.000 A 
DOCKED: ATOM     21  C   UNL     1      27.015 -13.264   1.580 -0.28 -0.00    +0.000 A 
DOCKED: ATOM     22  N   UNL     1      26.704 -13.509   2.874 -0.34 -0.00    +0.000 N 
DOCKED: ATOM     23  C   UNL     1      27.876 -13.698   3.503 -0.38 -0.00    +0.000 A 
DOCKED: ATOM     24  C   UNL     1      28.929 -13.586   2.631 -0.20 -0.00    +0.000 A 
DOCKED: ATOM     25  C   UNL     1      30.251 -13.721   3.056 -0.16 -0.00    +0.000 A 
DOCKED: ATOM     26  C   UNL     1      30.480 -13.988   4.419 -0.26 -0.00    +0.000 A 
DOCKED: ATOM     27  C   UNL     1      29.396 -14.108   5.315 -0.34 -0.00    +0.000 A 
DOCKED: ATOM     28  C   UNL     1      28.072 -13.961   4.859 -0.50 -0.00    +0.000 A 
DOCKED: ATOM     29  C   UNL     1      25.994 -12.991   0.521 -0.30 -0.00    +0.000 C 
DOCKED: ATOM     30  H   UNL     1      25.803 -13.540   3.273 +0.02 +0.00    +0.000 HD
DOCKED: ENDBRANCH  19  20
DOCKED: ENDBRANCH  18  19
DOCKED: ENDBRANCH   1  18
DOCKED: TORSDOF 7
DOCKED: TER
DOCKED: ENDMDL
________________________________________________________________________________


	BEGINNING GENETIC ALGORITHM DOCKING 85 of 100
Run: 85 Seed: 1393524803 449202741 [ Run 85 of 100 GA/GALS ]
Beginning LAMARCKIAN GENETIC ALGORITHM (LGA), with a maximum of 2500000 energy evaluations.

Final-Value: -15.514


	FINAL GENETIC ALGORITHM DOCKED STATE
	_______________________________________________


Detailed state:  trans 28.859 -14.752 1.148 quatxyzw 0.207606 -0.086176 -0.971457 -0.075795 center 0.578 -0.033 0.130 ntor 7 90.7536 -118.5112 -20.6199 -179.3122 -179.6519 87.6235 -13.5019
State:	 28.859 -14.752   1.148   0.208 -0.086 -0.974 -171.306     90.75 -118.51  -20.62 -179.31 -179.65   87.62  -13.50

DOCKED: MODEL       85
DOCKED: USER    Run = 85
DOCKED: USER    DPF = ligand_dock.biased.dpf
DOCKED: USER  
DOCKED: USER    Estimated Free Energy of Binding    =  -12.11 kcal/mol  [=(1)+(2)+(3)-(4)]
DOCKED: USER    Estimated Inhibition Constant, Ki   =    1.32 nM (nanomolar)  [Temperature = 298.15 K]
DOCKED: USER    
DOCKED: USER    (1) Final Intermolecular Energy     =  -14.20 kcal/mol
DOCKED: USER        vdW + Hbond + desolv Energy     =  -14.20 kcal/mol
DOCKED: USER        Electrostatic Energy            =   +0.00 kcal/mol
DOCKED: USER    (2) Final Total Internal Energy     =   -1.31 kcal/mol
DOCKED: USER    (3) Torsional Free Energy           =   +2.09 kcal/mol
DOCKED: USER    (4) Unbound System's Energy  [=(2)] =   -1.31 kcal/mol
DOCKED: USER    
DOCKED: USER    
DOCKED: USER    NEWDPF move ligand.pdbqt
DOCKED: USER    NEWDPF about 0.578000 -0.033000 0.130000
DOCKED: USER    NEWDPF tran0 28.859379 -14.751678 1.148121
DOCKED: USER    NEWDPF quaternion0 0.207606 -0.086176 -0.971457 -0.075795
DOCKED: USER    NEWDPF axisangle0 0.208205 -0.086425 -0.974259 -171.306154
DOCKED: USER    NEWDPF quat0 0.208205 -0.086425 -0.974259 -171.306154
DOCKED: USER    NEWDPF dihe0 90.75 -118.51 -20.62 -179.31 -179.65 87.62 -13.50 
DOCKED: USER  keepresnum = 1 
DOCKED: USER  
DOCKED: REMARK  Name = 
DOCKED: REMARK  8 active torsions:
DOCKED: REMARK  status: ('A' for Active; 'I' for Inactive)
DOCKED: REMARK    1  A    between atoms: C_2  and  C_3
DOCKED: REMARK    2  A    between atoms: C_4  and  C_5
DOCKED: REMARK    3  A    between atoms: C_8  and  C_9
DOCKED: REMARK    4  A    between atoms: C_9  and  N_10
DOCKED: REMARK    5  A    between atoms: N_10  and  C_11
DOCKED: REMARK    6  A    between atoms: C_11  and  C_12
DOCKED: REMARK    7  A    between atoms: C_12  and  C_13
DOCKED: REMARK    8  A    between atoms: C_14  and  C_22
DOCKED: REMARK                            x       y       z     vdW  Elec       q    Type
DOCKED: REMARK                         _______ _______ _______ _____ _____    ______ ____
DOCKED: USER                              x       y       z     vdW  Elec       q    Type
DOCKED: USER                           _______ _______ _______ _____ _____    ______ ____
DOCKED: ROOT
DOCKED: ATOM      1  N   UNL     1      29.366 -14.673   1.734 -0.12 -0.00    +0.000 N 
DOCKED: ATOM      2  H   UNL     1      28.719 -15.287   2.230 -1.71 -0.00    +0.000 HD
DOCKED: ATOM      3  H   UNL     1      29.114 -13.692   1.856 -0.18 -0.00    +0.000 HD
DOCKED: ENDROOT
DOCKED: BRANCH   1   4
DOCKED: ATOM      4  C   UNL     1      29.299 -14.978   0.299 -0.17 -0.00    +0.000 C 
DOCKED: BRANCH   4   8
DOCKED: ATOM      5  C   UNL     1      25.312 -16.249  -0.793 -0.43 -0.00    +0.000 A 
DOCKED: ATOM      6  C   UNL     1      25.688 -14.896  -0.902 -0.25 -0.00    +0.000 A 
DOCKED: ATOM      7  C   UNL     1      26.974 -14.485  -0.537 -0.26 -0.00    +0.000 A 
DOCKED: ATOM      8  C   UNL     1      27.905 -15.416  -0.054 -0.25 -0.00    +0.000 A 
DOCKED: ATOM      9  C   UNL     1      27.546 -16.769   0.026 -0.30 -0.00    +0.000 A 
DOCKED: ATOM     10  C   UNL     1      26.261 -17.181  -0.341 -0.51 -0.00    +0.000 A 
DOCKED: BRANCH   5  12
DOCKED: ATOM     11  C   UNL     1      23.295 -17.684  -0.504 -0.77 -0.00    +0.000 C 
DOCKED: ATOM     12  C   UNL     1      23.966 -16.740  -1.181 -0.59 -0.00    +0.000 C 
DOCKED: BRANCH  11  14
DOCKED: ATOM     13  O   UNL     1      20.967 -17.407  -0.710 -2.01 +0.00    +0.000 OA
DOCKED: ATOM     14  C   UNL     1      21.955 -18.167  -0.895 -0.78 -0.00    +0.000 C 
DOCKED: ATOM     15  N   UNL     1      21.739 -19.471  -1.448 -0.65 -0.00    +0.000 N 
DOCKED: ATOM     16  O   UNL     1      20.510 -19.827  -1.889 -2.16 -0.00    +0.000 OA
DOCKED: ATOM     17  H   UNL     1      22.487 -20.109  -1.507 -0.36 -0.00    +0.000 HD
DOCKED: ENDBRANCH  11  14
DOCKED: ENDBRANCH   5  12
DOCKED: ENDBRANCH   4   8
DOCKED: ENDBRANCH   1   4
DOCKED: BRANCH   1  18
DOCKED: ATOM     18  C   UNL     1      30.716 -14.862   2.285 -0.15 -0.00    +0.000 C 
DOCKED: BRANCH  18  19
DOCKED: ATOM     19  C   UNL     1      30.919 -14.119   3.614 -0.23 -0.00    +0.000 C 
DOCKED: BRANCH  19  20
DOCKED: ATOM     20  C   UNL     1      29.695 -13.316   3.957 -0.21 -0.00    +0.000 A 
DOCKED: ATOM     21  C   UNL     1      28.447 -13.800   4.349 -0.42 -0.00    +0.000 A 
DOCKED: ATOM     22  N   UNL     1      27.568 -12.783   4.510 -0.39 -0.00    +0.000 N 
DOCKED: ATOM     23  C   UNL     1      28.243 -11.663   4.201 -0.26 +0.00    +0.000 A 
DOCKED: ATOM     24  C   UNL     1      29.539 -11.947   3.852 -0.11 -0.00    +0.000 A 
DOCKED: ATOM     25  C   UNL     1      30.432 -10.946   3.469 -0.04 -0.00    +0.000 A 
DOCKED: ATOM     26  C   UNL     1      29.966  -9.619   3.457 -0.04 +0.00    +0.000 A 
DOCKED: ATOM     27  C   UNL     1      28.634  -9.325   3.820 -0.14 +0.00    +0.000 A 
DOCKED: ATOM     28  C   UNL     1      27.754 -10.357   4.197 -0.26 +0.00    +0.000 A 
DOCKED: ATOM     29  C   UNL     1      28.101 -15.236   4.586 -0.47 -0.00    +0.000 C 
DOCKED: ATOM     30  H   UNL     1      26.627 -12.850   4.794 +0.02 +0.00    +0.000 HD
DOCKED: ENDBRANCH  19  20
DOCKED: ENDBRANCH  18  19
DOCKED: ENDBRANCH   1  18
DOCKED: TORSDOF 7
DOCKED: TER
DOCKED: ENDMDL
________________________________________________________________________________


	BEGINNING GENETIC ALGORITHM DOCKING 86 of 100
Run: 86 Seed: 2131482340 2020230256 [ Run 86 of 100 GA/GALS ]
Beginning LAMARCKIAN GENETIC ALGORITHM (LGA), with a maximum of 2500000 energy evaluations.

Final-Value: -14.429


	FINAL GENETIC ALGORITHM DOCKED STATE
	_______________________________________________


Detailed state:  trans 29.318 -17.888 -1.468 quatxyzw -0.228267 -0.808556 0.480754 0.251012 center 0.578 -0.033 0.130 ntor 7 116.5801 41.6435 -35.4896 -102.6982 138.8092 48.1471 39.1198
State:	 29.318 -17.888  -1.468  -0.236 -0.835  0.497 150.925    116.58   41.64  -35.49 -102.70  138.81   48.15   39.12

DOCKED: MODEL       86
DOCKED: USER    Run = 86
DOCKED: USER    DPF = ligand_dock.biased.dpf
DOCKED: USER  
DOCKED: USER    Estimated Free Energy of Binding    =  -11.13 kcal/mol  [=(1)+(2)+(3)-(4)]
DOCKED: USER    Estimated Inhibition Constant, Ki   =    6.94 nM (nanomolar)  [Temperature = 298.15 K]
DOCKED: USER    
DOCKED: USER    (1) Final Intermolecular Energy     =  -13.22 kcal/mol
DOCKED: USER        vdW + Hbond + desolv Energy     =  -13.22 kcal/mol
DOCKED: USER        Electrostatic Energy            =   +0.00 kcal/mol
DOCKED: USER    (2) Final Total Internal Energy     =   -1.21 kcal/mol
DOCKED: USER    (3) Torsional Free Energy           =   +2.09 kcal/mol
DOCKED: USER    (4) Unbound System's Energy  [=(2)] =   -1.21 kcal/mol
DOCKED: USER    
DOCKED: USER    
DOCKED: USER    NEWDPF move ligand.pdbqt
DOCKED: USER    NEWDPF about 0.578000 -0.033000 0.130000
DOCKED: USER    NEWDPF tran0 29.318295 -17.888428 -1.468484
DOCKED: USER    NEWDPF quaternion0 -0.228267 -0.808556 0.480754 0.251012
DOCKED: USER    NEWDPF axisangle0 -0.235817 -0.835299 0.496655 150.925210
DOCKED: USER    NEWDPF quat0 -0.235817 -0.835299 0.496655 150.925210
DOCKED: USER    NEWDPF dihe0 116.58 41.64 -35.49 -102.70 138.81 48.15 39.12 
DOCKED: USER  keepresnum = 1 
DOCKED: USER  
DOCKED: REMARK  Name = 
DOCKED: REMARK  8 active torsions:
DOCKED: REMARK  status: ('A' for Active; 'I' for Inactive)
DOCKED: REMARK    1  A    between atoms: C_2  and  C_3
DOCKED: REMARK    2  A    between atoms: C_4  and  C_5
DOCKED: REMARK    3  A    between atoms: C_8  and  C_9
DOCKED: REMARK    4  A    between atoms: C_9  and  N_10
DOCKED: REMARK    5  A    between atoms: N_10  and  C_11
DOCKED: REMARK    6  A    between atoms: C_11  and  C_12
DOCKED: REMARK    7  A    between atoms: C_12  and  C_13
DOCKED: REMARK    8  A    between atoms: C_14  and  C_22
DOCKED: REMARK                            x       y       z     vdW  Elec       q    Type
DOCKED: REMARK                         _______ _______ _______ _____ _____    ______ ____
DOCKED: USER                              x       y       z     vdW  Elec       q    Type
DOCKED: USER                           _______ _______ _______ _____ _____    ______ ____
DOCKED: ROOT
DOCKED: ATOM      1  N   UNL     1      29.977 -18.228  -1.229 -0.24 -0.00    +0.000 N 
DOCKED: ATOM      2  H   UNL     1      30.089 -18.456  -2.217 -0.02 -0.00    +0.000 HD
DOCKED: ATOM      3  H   UNL     1      29.456 -18.953  -0.736 -0.42 -0.00    +0.000 HD
DOCKED: ENDROOT
DOCKED: BRANCH   1   4
DOCKED: ATOM      4  C   UNL     1      29.216 -16.976  -1.118 -0.28 -0.00    +0.000 C 
DOCKED: BRANCH   4   8
DOCKED: ATOM      5  C   UNL     1      24.970 -17.793  -1.219 -0.61 -0.00    +0.000 A 
DOCKED: ATOM      6  C   UNL     1      25.813 -18.489  -0.329 -0.56 -0.00    +0.000 A 
DOCKED: ATOM      7  C   UNL     1      27.187 -18.231  -0.307 -0.24 -0.00    +0.000 A 
DOCKED: ATOM      8  C   UNL     1      27.745 -17.279  -1.173 -0.34 -0.00    +0.000 A 
DOCKED: ATOM      9  C   UNL     1      26.906 -16.562  -2.037 -0.35 -0.00    +0.000 A 
DOCKED: ATOM     10  C   UNL     1      25.531 -16.817  -2.059 -0.51 -0.00    +0.000 A 
DOCKED: BRANCH   5  12
DOCKED: ATOM     11  C   UNL     1      22.804 -18.599  -0.287 -0.82 -0.00    +0.000 C 
DOCKED: ATOM     12  C   UNL     1      23.504 -18.017  -1.273 -0.76 -0.00    +0.000 C 
DOCKED: BRANCH  11  14
DOCKED: ATOM     13  O   UNL     1      20.611 -17.863  -0.719 -2.34 -0.00    +0.000 OA
DOCKED: ATOM     14  C   UNL     1      21.345 -18.817  -0.346 -0.83 -0.00    +0.000 C 
DOCKED: ATOM     15  N   UNL     1      20.738 -20.060   0.030 -0.70 -0.00    +0.000 N 
DOCKED: ATOM     16  O   UNL     1      19.409 -20.246  -0.144 -1.22 -0.00    +0.000 OA
DOCKED: ATOM     17  H   UNL     1      21.290 -20.779   0.414 -0.57 -0.00    +0.000 HD
DOCKED: ENDBRANCH  11  14
DOCKED: ENDBRANCH   5  12
DOCKED: ENDBRANCH   4   8
DOCKED: ENDBRANCH   1   4
DOCKED: BRANCH   1  18
DOCKED: ATOM     18  C   UNL     1      31.308 -18.131  -0.611 -0.18 -0.00    +0.000 C 
DOCKED: BRANCH  18  19
DOCKED: ATOM     19  C   UNL     1      31.514 -19.165   0.506 -0.10 -0.00    +0.000 C 
DOCKED: BRANCH  19  20
DOCKED: ATOM     20  C   UNL     1      31.687 -20.539  -0.078 -0.16 -0.00    +0.000 A 
DOCKED: ATOM     21  C   UNL     1      32.620 -20.943  -1.033 -0.08 -0.00    +0.000 A 
DOCKED: ATOM     22  N   UNL     1      32.434 -22.241  -1.367 -0.09 -0.00    +0.000 N 
DOCKED: ATOM     23  C   UNL     1      31.377 -22.656  -0.648 -0.16 -0.00    +0.000 A 
DOCKED: ATOM     24  C   UNL     1      30.890 -21.646   0.144 -0.23 -0.00    +0.000 A 
DOCKED: ATOM     25  C   UNL     1      29.778 -21.830   0.967 -0.30 -0.00    +0.000 A 
DOCKED: ATOM     26  C   UNL     1      29.166 -23.096   0.971 -0.45 -0.00    +0.000 A 
DOCKED: ATOM     27  C   UNL     1      29.669 -24.137   0.160 -0.40 -0.00    +0.000 A 
DOCKED: ATOM     28  C   UNL     1      30.789 -23.920  -0.665 -0.22 -0.00    +0.000 A 
DOCKED: ATOM     29  C   UNL     1      33.702 -20.087  -1.614 -0.03 -0.00    +0.000 C 
DOCKED: ATOM     30  H   UNL     1      32.963 -22.772  -2.006 +0.00 -0.00    +0.000 HD
DOCKED: ENDBRANCH  19  20
DOCKED: ENDBRANCH  18  19
DOCKED: ENDBRANCH   1  18
DOCKED: TORSDOF 7
DOCKED: TER
DOCKED: ENDMDL
________________________________________________________________________________


	BEGINNING GENETIC ALGORITHM DOCKING 87 of 100
Run: 87 Seed: 473721755 2010403941 [ Run 87 of 100 GA/GALS ]
Beginning LAMARCKIAN GENETIC ALGORITHM (LGA), with a maximum of 2500000 energy evaluations.

Final-Value: -15.506


	FINAL GENETIC ALGORITHM DOCKED STATE
	_______________________________________________


Detailed state:  trans 28.998 -16.823 -1.067 quatxyzw -0.115126 0.446975 -0.144567 -0.875248 center 0.578 -0.033 0.130 ntor 7 -84.4280 123.4737 175.2596 18.8353 -145.0367 168.9914 148.2440
State:	 28.998 -16.823  -1.067  -0.238  0.924 -0.299 -57.851    -84.43  123.47  175.26   18.84 -145.04  168.99  148.24

DOCKED: MODEL       87
DOCKED: USER    Run = 87
DOCKED: USER    DPF = ligand_dock.biased.dpf
DOCKED: USER  
DOCKED: USER    Estimated Free Energy of Binding    =  -12.31 kcal/mol  [=(1)+(2)+(3)-(4)]
DOCKED: USER    Estimated Inhibition Constant, Ki   =  947.15 pM (picomolar)  [Temperature = 298.15 K]
DOCKED: USER    
DOCKED: USER    (1) Final Intermolecular Energy     =  -14.40 kcal/mol
DOCKED: USER        vdW + Hbond + desolv Energy     =  -14.40 kcal/mol
DOCKED: USER        Electrostatic Energy            =   +0.00 kcal/mol
DOCKED: USER    (2) Final Total Internal Energy     =   -1.11 kcal/mol
DOCKED: USER    (3) Torsional Free Energy           =   +2.09 kcal/mol
DOCKED: USER    (4) Unbound System's Energy  [=(2)] =   -1.11 kcal/mol
DOCKED: USER    
DOCKED: USER    
DOCKED: USER    NEWDPF move ligand.pdbqt
DOCKED: USER    NEWDPF about 0.578000 -0.033000 0.130000
DOCKED: USER    NEWDPF tran0 28.997765 -16.823489 -1.067212
DOCKED: USER    NEWDPF quaternion0 -0.115126 0.446975 -0.144567 -0.875248
DOCKED: USER    NEWDPF axisangle0 -0.238024 0.924125 -0.298894 -57.851211
DOCKED: USER    NEWDPF quat0 -0.238024 0.924125 -0.298894 -57.851211
DOCKED: USER    NEWDPF dihe0 -84.43 123.47 175.26 18.84 -145.04 168.99 148.24 
DOCKED: USER  keepresnum = 1 
DOCKED: USER  
DOCKED: REMARK  Name = 
DOCKED: REMARK  8 active torsions:
DOCKED: REMARK  status: ('A' for Active; 'I' for Inactive)
DOCKED: REMARK    1  A    between atoms: C_2  and  C_3
DOCKED: REMARK    2  A    between atoms: C_4  and  C_5
DOCKED: REMARK    3  A    between atoms: C_8  and  C_9
DOCKED: REMARK    4  A    between atoms: C_9  and  N_10
DOCKED: REMARK    5  A    between atoms: N_10  and  C_11
DOCKED: REMARK    6  A    between atoms: C_11  and  C_12
DOCKED: REMARK    7  A    between atoms: C_12  and  C_13
DOCKED: REMARK    8  A    between atoms: C_14  and  C_22
DOCKED: REMARK                            x       y       z     vdW  Elec       q    Type
DOCKED: REMARK                         _______ _______ _______ _____ _____    ______ ____
DOCKED: USER                              x       y       z     vdW  Elec       q    Type
DOCKED: USER                           _______ _______ _______ _____ _____    ______ ____
DOCKED: ROOT
DOCKED: ATOM      1  N   UNL     1      28.888 -16.461  -0.387 -0.25 -0.00    +0.000 N 
DOCKED: ATOM      2  H   UNL     1      29.777 -16.012  -0.608 -0.01 -0.00    +0.000 HD
DOCKED: ATOM      3  H   UNL     1      29.027 -17.330   0.129 -0.43 -0.00    +0.000 HD
DOCKED: ENDROOT
DOCKED: BRANCH   1   4
DOCKED: ATOM      4  C   UNL     1      28.203 -16.791  -1.643 -0.34 -0.00    +0.000 C 
DOCKED: BRANCH   4   8
DOCKED: ATOM      5  C   UNL     1      24.074 -17.822  -0.870 -0.69 -0.00    +0.000 A 
DOCKED: ATOM      6  C   UNL     1      24.401 -16.844  -1.831 -0.51 -0.00    +0.000 A 
DOCKED: ATOM      7  C   UNL     1      25.736 -16.504  -2.071 -0.49 -0.00    +0.000 A 
DOCKED: ATOM      8  C   UNL     1      26.767 -17.130  -1.355 -0.43 -0.00    +0.000 A 
DOCKED: ATOM      9  C   UNL     1      26.448 -18.127  -0.421 -0.54 -0.00    +0.000 A 
DOCKED: ATOM     10  C   UNL     1      25.114 -18.469  -0.182 -0.52 -0.00    +0.000 A 
DOCKED: BRANCH   5  12
DOCKED: ATOM     11  C   UNL     1      22.113 -19.346  -1.080 -0.73 -0.00    +0.000 C 
DOCKED: ATOM     12  C   UNL     1      22.675 -18.231  -0.588 -0.83 -0.00    +0.000 C 
DOCKED: BRANCH  11  14
DOCKED: ATOM     13  O   UNL     1      19.886 -19.728  -1.738 -2.36 -0.00    +0.000 OA
DOCKED: ATOM     14  C   UNL     1      20.720 -19.747  -0.794 -0.82 -0.00    +0.000 C 
DOCKED: ATOM     15  N   UNL     1      20.284 -20.127   0.517 -0.70 -0.00    +0.000 N 
DOCKED: ATOM     16  O   UNL     1      19.025 -20.588   0.706 -0.84 -0.00    +0.000 OA
DOCKED: ATOM     17  H   UNL     1      20.901 -20.052   1.280 -0.49 -0.00    +0.000 HD
DOCKED: ENDBRANCH  11  14
DOCKED: ENDBRANCH   5  12
DOCKED: ENDBRANCH   4   8
DOCKED: ENDBRANCH   1   4
DOCKED: BRANCH   1  18
DOCKED: ATOM     18  C   UNL     1      28.097 -15.555   0.461 -0.21 -0.00    +0.000 C 
DOCKED: BRANCH  18  19
DOCKED: ATOM     19  C   UNL     1      28.803 -14.212   0.703 -0.19 -0.00    +0.000 C 
DOCKED: BRANCH  19  20
DOCKED: ATOM     20  C   UNL     1      28.147 -13.473   1.835 -0.22 -0.00    +0.000 A 
DOCKED: ATOM     21  C   UNL     1      27.143 -12.509   1.749 -0.26 -0.00    +0.000 A 
DOCKED: ATOM     22  N   UNL     1      26.845 -12.015   2.974 -0.26 +0.00    +0.000 N 
DOCKED: ATOM     23  C   UNL     1      27.668 -12.643   3.831 -0.30 -0.00    +0.000 A 
DOCKED: ATOM     24  C   UNL     1      28.480 -13.533   3.175 -0.28 -0.00    +0.000 A 
DOCKED: ATOM     25  C   UNL     1      29.437 -14.291   3.852 -0.32 -0.00    +0.000 A 
DOCKED: ATOM     26  C   UNL     1      29.543 -14.122   5.245 -0.33 -0.00    +0.000 A 
DOCKED: ATOM     27  C   UNL     1      28.705 -13.209   5.921 -0.39 -0.00    +0.000 A 
DOCKED: ATOM     28  C   UNL     1      27.752 -12.455   5.210 -0.38 +0.00    +0.000 A 
DOCKED: ATOM     29  C   UNL     1      26.457 -12.072   0.493 -0.26 -0.00    +0.000 C 
DOCKED: ATOM     30  H   UNL     1      26.166 -11.336   3.192 -0.02 +0.00    +0.000 HD
DOCKED: ENDBRANCH  19  20
DOCKED: ENDBRANCH  18  19
DOCKED: ENDBRANCH   1  18
DOCKED: TORSDOF 7
DOCKED: TER
DOCKED: ENDMDL
________________________________________________________________________________


	BEGINNING GENETIC ALGORITHM DOCKING 88 of 100
Run: 88 Seed: 1454148863 1383271833 [ Run 88 of 100 GA/GALS ]
Beginning LAMARCKIAN GENETIC ALGORITHM (LGA), with a maximum of 2500000 energy evaluations.

Final-Value: -14.954


	FINAL GENETIC ALGORITHM DOCKED STATE
	_______________________________________________


Detailed state:  trans 28.384 -16.437 -1.248 quatxyzw 0.620002 -0.767544 -0.029799 0.159955 center 0.578 -0.033 0.130 ntor 7 -137.7136 -143.2876 27.8646 171.3561 64.4230 150.4742 -74.8557
State:	 28.384 -16.437  -1.248   0.628 -0.778 -0.030 161.591   -137.71 -143.29   27.86  171.36   64.42  150.47  -74.86

DOCKED: MODEL       88
DOCKED: USER    Run = 88
DOCKED: USER    DPF = ligand_dock.biased.dpf
DOCKED: USER  
DOCKED: USER    Estimated Free Energy of Binding    =  -11.36 kcal/mol  [=(1)+(2)+(3)-(4)]
DOCKED: USER    Estimated Inhibition Constant, Ki   =    4.68 nM (nanomolar)  [Temperature = 298.15 K]
DOCKED: USER    
DOCKED: USER    (1) Final Intermolecular Energy     =  -13.45 kcal/mol
DOCKED: USER        vdW + Hbond + desolv Energy     =  -13.45 kcal/mol
DOCKED: USER        Electrostatic Energy            =   +0.00 kcal/mol
DOCKED: USER    (2) Final Total Internal Energy     =   -1.50 kcal/mol
DOCKED: USER    (3) Torsional Free Energy           =   +2.09 kcal/mol
DOCKED: USER    (4) Unbound System's Energy  [=(2)] =   -1.50 kcal/mol
DOCKED: USER    
DOCKED: USER    
DOCKED: USER    NEWDPF move ligand.pdbqt
DOCKED: USER    NEWDPF about 0.578000 -0.033000 0.130000
DOCKED: USER    NEWDPF tran0 28.383545 -16.437240 -1.247633
DOCKED: USER    NEWDPF quaternion0 0.620002 -0.767544 -0.029799 0.159955
DOCKED: USER    NEWDPF axisangle0 0.628089 -0.777556 -0.030188 161.591462
DOCKED: USER    NEWDPF quat0 0.628089 -0.777556 -0.030188 161.591462
DOCKED: USER    NEWDPF dihe0 -137.71 -143.29 27.86 171.36 64.42 150.47 -74.86 
DOCKED: USER  keepresnum = 1 
DOCKED: USER  
DOCKED: REMARK  Name = 
DOCKED: REMARK  8 active torsions:
DOCKED: REMARK  status: ('A' for Active; 'I' for Inactive)
DOCKED: REMARK    1  A    between atoms: C_2  and  C_3
DOCKED: REMARK    2  A    between atoms: C_4  and  C_5
DOCKED: REMARK    3  A    between atoms: C_8  and  C_9
DOCKED: REMARK    4  A    between atoms: C_9  and  N_10
DOCKED: REMARK    5  A    between atoms: N_10  and  C_11
DOCKED: REMARK    6  A    between atoms: C_11  and  C_12
DOCKED: REMARK    7  A    between atoms: C_12  and  C_13
DOCKED: REMARK    8  A    between atoms: C_14  and  C_22
DOCKED: REMARK                            x       y       z     vdW  Elec       q    Type
DOCKED: REMARK                         _______ _______ _______ _____ _____    ______ ____
DOCKED: USER                              x       y       z     vdW  Elec       q    Type
DOCKED: USER                           _______ _______ _______ _____ _____    ______ ____
DOCKED: ROOT
DOCKED: ATOM      1  N   UNL     1      28.485 -15.676  -1.374 -0.20 -0.00    +0.000 N 
DOCKED: ATOM      2  H   UNL     1      27.926 -15.851  -2.209 -0.00 -0.00    +0.000 HD
DOCKED: ATOM      3  H   UNL     1      29.480 -15.811  -1.557 +0.00 -0.00    +0.000 HD
DOCKED: ENDROOT
DOCKED: BRANCH   1   4
DOCKED: ATOM      4  C   UNL     1      28.087 -16.630  -0.331 -0.34 -0.00    +0.000 C 
DOCKED: BRANCH   4   8
DOCKED: ATOM      5  C   UNL     1      23.958 -17.754  -0.957 -0.68 -0.00    +0.000 A 
DOCKED: ATOM      6  C   UNL     1      24.455 -16.537  -1.466 -0.49 -0.00    +0.000 A 
DOCKED: ATOM      7  C   UNL     1      25.787 -16.170  -1.252 -0.46 -0.00    +0.000 A 
DOCKED: ATOM      8  C   UNL     1      26.645 -17.008  -0.525 -0.47 -0.00    +0.000 A 
DOCKED: ATOM      9  C   UNL     1      26.164 -18.234  -0.044 -0.58 -0.00    +0.000 A 
DOCKED: ATOM     10  C   UNL     1      24.832 -18.603  -0.259 -0.51 -0.00    +0.000 A 
DOCKED: BRANCH   5  12
DOCKED: ATOM     11  C   UNL     1      21.985 -19.203  -0.490 -0.78 -0.00    +0.000 C 
DOCKED: ATOM     12  C   UNL     1      22.557 -18.197  -1.169 -0.73 -0.00    +0.000 C 
DOCKED: BRANCH  11  14
DOCKED: ATOM     13  O   UNL     1      20.255 -20.027  -1.856 -2.32 -0.00    +0.000 OA
DOCKED: ATOM     14  C   UNL     1      20.590 -19.639  -0.705 -0.87 -0.00    +0.000 C 
DOCKED: ATOM     15  N   UNL     1      19.606 -19.607   0.336 -0.73 -0.00    +0.000 N 
DOCKED: ATOM     16  O   UNL     1      18.371 -20.116   0.119 -0.91 -0.00    +0.000 OA
DOCKED: ATOM     17  H   UNL     1      19.830 -19.216   1.212 -0.17 -0.00    +0.000 HD
DOCKED: ENDBRANCH  11  14
DOCKED: ENDBRANCH   5  12
DOCKED: ENDBRANCH   4   8
DOCKED: ENDBRANCH   1   4
DOCKED: BRANCH   1  18
DOCKED: ATOM     18  C   UNL     1      28.290 -14.278  -0.959 -0.16 -0.00    +0.000 C 
DOCKED: BRANCH  18  19
DOCKED: ATOM     19  C   UNL     1      27.663 -13.418  -2.067 -0.17 -0.00    +0.000 C 
DOCKED: BRANCH  19  20
DOCKED: ATOM     20  C   UNL     1      27.701 -14.147  -3.380 -0.20 -0.00    +0.000 A 
DOCKED: ATOM     21  C   UNL     1      26.616 -14.537  -4.166 -0.41 -0.00    +0.000 A 
DOCKED: ATOM     22  N   UNL     1      27.035 -15.231  -5.250 -0.50 +0.00    +0.000 N 
DOCKED: ATOM     23  C   UNL     1      28.372 -15.303  -5.145 -0.35 -0.00    +0.000 A 
DOCKED: ATOM     24  C   UNL     1      28.815 -14.661  -4.016 -0.17 -0.00    +0.000 A 
DOCKED: ATOM     25  C   UNL     1      30.169 -14.620  -3.679 -0.07 -0.00    +0.000 A 
DOCKED: ATOM     26  C   UNL     1      31.081 -15.254  -4.542 -0.07 -0.00    +0.000 A 
DOCKED: ATOM     27  C   UNL     1      30.626 -15.911  -5.706 -0.20 -0.00    +0.000 A 
DOCKED: ATOM     28  C   UNL     1      29.253 -15.941  -6.018 -0.30 -0.00    +0.000 A 
DOCKED: ATOM     29  C   UNL     1      25.179 -14.228  -3.885 -0.51 -0.00    +0.000 C 
DOCKED: ATOM     30  H   UNL     1      26.474 -15.606  -5.967 -0.08 +0.00    +0.000 HD
DOCKED: ENDBRANCH  19  20
DOCKED: ENDBRANCH  18  19
DOCKED: ENDBRANCH   1  18
DOCKED: TORSDOF 7
DOCKED: TER
DOCKED: ENDMDL
________________________________________________________________________________


	BEGINNING GENETIC ALGORITHM DOCKING 89 of 100
Run: 89 Seed: 1611865675 2050469500 [ Run 89 of 100 GA/GALS ]
Beginning LAMARCKIAN GENETIC ALGORITHM (LGA), with a maximum of 2500000 energy evaluations.

Final-Value: -16.869


	FINAL GENETIC ALGORITHM DOCKED STATE
	_______________________________________________


Detailed state:  trans 28.186 -16.218 0.587 quatxyzw -0.119537 -0.000054 -0.566608 -0.815270 center 0.578 -0.033 0.130 ntor 7 -175.4517 60.5643 32.4069 -76.1641 4.9237 46.0606 95.2830
State:	 28.186 -16.218   0.587  -0.206 -0.000 -0.978 -70.772   -175.45   60.56   32.41  -76.16    4.92   46.06   95.28

DOCKED: MODEL       89
DOCKED: USER    Run = 89
DOCKED: USER    DPF = ligand_dock.biased.dpf
DOCKED: USER  
DOCKED: USER    Estimated Free Energy of Binding    =  -13.57 kcal/mol  [=(1)+(2)+(3)-(4)]
DOCKED: USER    Estimated Inhibition Constant, Ki   =  112.79 pM (picomolar)  [Temperature = 298.15 K]
DOCKED: USER    
DOCKED: USER    (1) Final Intermolecular Energy     =  -15.66 kcal/mol
DOCKED: USER        vdW + Hbond + desolv Energy     =  -15.66 kcal/mol
DOCKED: USER        Electrostatic Energy            =   +0.00 kcal/mol
DOCKED: USER    (2) Final Total Internal Energy     =   -1.21 kcal/mol
DOCKED: USER    (3) Torsional Free Energy           =   +2.09 kcal/mol
DOCKED: USER    (4) Unbound System's Energy  [=(2)] =   -1.21 kcal/mol
DOCKED: USER    
DOCKED: USER    
DOCKED: USER    NEWDPF move ligand.pdbqt
DOCKED: USER    NEWDPF about 0.578000 -0.033000 0.130000
DOCKED: USER    NEWDPF tran0 28.186460 -16.218395 0.587307
DOCKED: USER    NEWDPF quaternion0 -0.119537 -0.000054 -0.566608 -0.815270
DOCKED: USER    NEWDPF axisangle0 -0.206425 -0.000094 -0.978462 -70.771767
DOCKED: USER    NEWDPF quat0 -0.206425 -0.000094 -0.978462 -70.771767
DOCKED: USER    NEWDPF dihe0 -175.45 60.56 32.41 -76.16 4.92 46.06 95.28 
DOCKED: USER  keepresnum = 1 
DOCKED: USER  
DOCKED: REMARK  Name = 
DOCKED: REMARK  8 active torsions:
DOCKED: REMARK  status: ('A' for Active; 'I' for Inactive)
DOCKED: REMARK    1  A    between atoms: C_2  and  C_3
DOCKED: REMARK    2  A    between atoms: C_4  and  C_5
DOCKED: REMARK    3  A    between atoms: C_8  and  C_9
DOCKED: REMARK    4  A    between atoms: C_9  and  N_10
DOCKED: REMARK    5  A    between atoms: N_10  and  C_11
DOCKED: REMARK    6  A    between atoms: C_11  and  C_12
DOCKED: REMARK    7  A    between atoms: C_12  and  C_13
DOCKED: REMARK    8  A    between atoms: C_14  and  C_22
DOCKED: REMARK                            x       y       z     vdW  Elec       q    Type
DOCKED: REMARK                         _______ _______ _______ _____ _____    ______ ____
DOCKED: USER                              x       y       z     vdW  Elec       q    Type
DOCKED: USER                           _______ _______ _______ _____ _____    ______ ____
DOCKED: ROOT
DOCKED: ATOM      1  N   UNL     1      28.069 -15.476   0.791 -0.21 -0.00    +0.000 N 
DOCKED: ATOM      2  H   UNL     1      28.911 -15.611   1.351 -1.05 -0.00    +0.000 HD
DOCKED: ATOM      3  H   UNL     1      27.230 -15.724   1.315 -0.19 -0.00    +0.000 HD
DOCKED: ENDROOT
DOCKED: BRANCH   1   4
DOCKED: ATOM      4  C   UNL     1      28.139 -16.353  -0.385 -0.33 -0.00    +0.000 C 
DOCKED: BRANCH   4   8
DOCKED: ATOM      5  C   UNL     1      24.185 -17.937  -1.139 -0.68 -0.00    +0.000 A 
DOCKED: ATOM      6  C   UNL     1      25.025 -18.533  -0.176 -0.50 -0.00    +0.000 A 
DOCKED: ATOM      7  C   UNL     1      26.307 -18.026   0.058 -0.55 -0.00    +0.000 A 
DOCKED: ATOM      8  C   UNL     1      26.776 -16.920  -0.667 -0.46 -0.00    +0.000 A 
DOCKED: ATOM      9  C   UNL     1      25.932 -16.305  -1.602 -0.47 -0.00    +0.000 A 
DOCKED: ATOM     10  C   UNL     1      24.649 -16.809  -1.835 -0.54 -0.00    +0.000 A 
DOCKED: BRANCH   5  12
DOCKED: ATOM     11  C   UNL     1      21.980 -18.882  -0.465 -0.83 -0.00    +0.000 C 
DOCKED: ATOM     12  C   UNL     1      22.811 -18.425  -1.415 -0.71 -0.00    +0.000 C 
DOCKED: BRANCH  11  14
DOCKED: ATOM     13  O   UNL     1      20.338 -19.734  -1.920 -2.30 -0.00    +0.000 OA
DOCKED: ATOM     14  C   UNL     1      20.613 -19.365  -0.747 -0.90 -0.00    +0.000 C 
DOCKED: ATOM     15  N   UNL     1      19.589 -19.402   0.255 -0.73 -0.00    +0.000 N 
DOCKED: ATOM     16  O   UNL     1      18.385 -19.952  -0.025 -0.90 -0.00    +0.000 OA
DOCKED: ATOM     17  H   UNL     1      19.763 -19.026   1.148 -0.24 -0.00    +0.000 HD
DOCKED: ENDBRANCH  11  14
DOCKED: ENDBRANCH   5  12
DOCKED: ENDBRANCH   4   8
DOCKED: ENDBRANCH   1   4
DOCKED: BRANCH   1  18
DOCKED: ATOM     18  C   UNL     1      27.967 -14.055   0.425 -0.23 -0.00    +0.000 C 
DOCKED: BRANCH  18  19
DOCKED: ATOM     19  C   UNL     1      26.673 -13.407   0.941 -0.32 -0.00    +0.000 C 
DOCKED: BRANCH  19  20
DOCKED: ATOM     20  C   UNL     1      26.943 -12.632   2.200 -0.29 -0.00    +0.000 A 
DOCKED: ATOM     21  C   UNL     1      26.690 -11.280   2.434 -0.28 +0.00    +0.000 A 
DOCKED: ATOM     22  N   UNL     1      27.126 -10.916   3.663 -0.30 +0.00    +0.000 N 
DOCKED: ATOM     23  C   UNL     1      27.672 -12.020   4.199 -0.26 +0.00    +0.000 A 
DOCKED: ATOM     24  C   UNL     1      27.586 -13.084   3.336 -0.33 -0.00    +0.000 A 
DOCKED: ATOM     25  C   UNL     1      28.106 -14.337   3.663 -0.43 -0.00    +0.000 A 
DOCKED: ATOM     26  C   UNL     1      28.721 -14.487   4.919 -0.45 -0.00    +0.000 A 
DOCKED: ATOM     27  C   UNL     1      28.805 -13.394   5.809 -0.40 -0.00    +0.000 A 
DOCKED: ATOM     28  C   UNL     1      28.277 -12.139   5.450 -0.36 +0.00    +0.000 A 
DOCKED: ATOM     29  C   UNL     1      26.015 -10.340   1.484 -0.39 +0.00    +0.000 C 
DOCKED: ATOM     30  H   UNL     1      27.057 -10.025   4.078 -0.04 +0.00    +0.000 HD
DOCKED: ENDBRANCH  19  20
DOCKED: ENDBRANCH  18  19
DOCKED: ENDBRANCH   1  18
DOCKED: TORSDOF 7
DOCKED: TER
DOCKED: ENDMDL
________________________________________________________________________________


	BEGINNING GENETIC ALGORITHM DOCKING 90 of 100
Run: 90 Seed: 1408560771 579627189 [ Run 90 of 100 GA/GALS ]
Beginning LAMARCKIAN GENETIC ALGORITHM (LGA), with a maximum of 2500000 energy evaluations.

Final-Value: -16.061


	FINAL GENETIC ALGORITHM DOCKED STATE
	_______________________________________________


Detailed state:  trans 28.731 -16.049 -2.060 quatxyzw -0.045382 0.884056 0.442519 0.143395 center 0.578 -0.033 0.130 ntor 7 178.1613 -179.2954 -14.9058 -132.0319 76.1636 -172.7086 -5.3579
State:	 28.731 -16.049  -2.060  -0.046  0.893  0.447 163.511    178.16 -179.30  -14.91 -132.03   76.16 -172.71   -5.36

DOCKED: MODEL       90
DOCKED: USER    Run = 90
DOCKED: USER    DPF = ligand_dock.biased.dpf
DOCKED: USER  
DOCKED: USER    Estimated Free Energy of Binding    =  -11.82 kcal/mol  [=(1)+(2)+(3)-(4)]
DOCKED: USER    Estimated Inhibition Constant, Ki   =    2.16 nM (nanomolar)  [Temperature = 298.15 K]
DOCKED: USER    
DOCKED: USER    (1) Final Intermolecular Energy     =  -13.91 kcal/mol
DOCKED: USER        vdW + Hbond + desolv Energy     =  -13.91 kcal/mol
DOCKED: USER        Electrostatic Energy            =   +0.00 kcal/mol
DOCKED: USER    (2) Final Total Internal Energy     =   -2.15 kcal/mol
DOCKED: USER    (3) Torsional Free Energy           =   +2.09 kcal/mol
DOCKED: USER    (4) Unbound System's Energy  [=(2)] =   -2.15 kcal/mol
DOCKED: USER    
DOCKED: USER    
DOCKED: USER    NEWDPF move ligand.pdbqt
DOCKED: USER    NEWDPF about 0.578000 -0.033000 0.130000
DOCKED: USER    NEWDPF tran0 28.730809 -16.048888 -2.059633
DOCKED: USER    NEWDPF quaternion0 -0.045382 0.884056 0.442519 0.143395
DOCKED: USER    NEWDPF axisangle0 -0.045856 0.893288 0.447140 163.511342
DOCKED: USER    NEWDPF quat0 -0.045856 0.893288 0.447140 163.511342
DOCKED: USER    NEWDPF dihe0 178.16 -179.30 -14.91 -132.03 76.16 -172.71 -5.36 
DOCKED: USER  keepresnum = 1 
DOCKED: USER  
DOCKED: REMARK  Name = 
DOCKED: REMARK  8 active torsions:
DOCKED: REMARK  status: ('A' for Active; 'I' for Inactive)
DOCKED: REMARK    1  A    between atoms: C_2  and  C_3
DOCKED: REMARK    2  A    between atoms: C_4  and  C_5
DOCKED: REMARK    3  A    between atoms: C_8  and  C_9
DOCKED: REMARK    4  A    between atoms: C_9  and  N_10
DOCKED: REMARK    5  A    between atoms: N_10  and  C_11
DOCKED: REMARK    6  A    between atoms: C_11  and  C_12
DOCKED: REMARK    7  A    between atoms: C_12  and  C_13
DOCKED: REMARK    8  A    between atoms: C_14  and  C_22
DOCKED: REMARK                            x       y       z     vdW  Elec       q    Type
DOCKED: REMARK                         _______ _______ _______ _____ _____    ______ ____
DOCKED: USER                              x       y       z     vdW  Elec       q    Type
DOCKED: USER                           _______ _______ _______ _____ _____    ______ ____
DOCKED: ROOT
DOCKED: ATOM      1  N   UNL     1      29.308 -15.594  -2.318 -0.15 -0.00    +0.000 N 
DOCKED: ATOM      2  H   UNL     1      28.672 -14.835  -2.072 +0.01 -0.00    +0.000 HD
DOCKED: ATOM      3  H   UNL     1      29.161 -15.907  -3.278 -0.00 -0.00    +0.000 HD
DOCKED: ENDROOT
DOCKED: BRANCH   1   4
DOCKED: ATOM      4  C   UNL     1      29.045 -16.735  -1.430 -0.29 -0.00    +0.000 C 
DOCKED: BRANCH   4   8
DOCKED: ATOM      5  C   UNL     1      24.774 -17.194  -0.932 -0.60 -0.00    +0.000 A 
DOCKED: ATOM      6  C   UNL     1      25.305 -16.036  -1.534 -0.48 -0.00    +0.000 A 
DOCKED: ATOM      7  C   UNL     1      26.687 -15.884  -1.683 -0.36 -0.00    +0.000 A 
DOCKED: ATOM      8  C   UNL     1      27.563 -16.882  -1.232 -0.37 -0.00    +0.000 A 
DOCKED: ATOM      9  C   UNL     1      27.037 -18.051  -0.662 -0.40 -0.00    +0.000 A 
DOCKED: ATOM     10  C   UNL     1      25.656 -18.204  -0.514 -0.60 -0.00    +0.000 A 
DOCKED: BRANCH   5  12
DOCKED: ATOM     11  C   UNL     1      22.756 -18.622  -0.611 -0.83 -0.00    +0.000 C 
DOCKED: ATOM     12  C   UNL     1      23.315 -17.411  -0.763 -0.75 -0.00    +0.000 C 
DOCKED: BRANCH  11  14
DOCKED: ATOM     13  O   UNL     1      20.526 -17.879  -0.720 -2.30 -0.00    +0.000 OA
DOCKED: ATOM     14  C   UNL     1      21.304 -18.830  -0.443 -0.84 -0.00    +0.000 C 
DOCKED: ATOM     15  N   UNL     1      20.756 -20.060   0.049 -0.69 -0.00    +0.000 N 
DOCKED: ATOM     16  O   UNL     1      19.415 -20.239   0.084 -1.13 -0.00    +0.000 OA
DOCKED: ATOM     17  H   UNL     1      21.357 -20.775   0.361 -0.57 -0.00    +0.000 HD
DOCKED: ENDBRANCH  11  14
DOCKED: ENDBRANCH   5  12
DOCKED: ENDBRANCH   4   8
DOCKED: ENDBRANCH   1   4
DOCKED: BRANCH   1  18
DOCKED: ATOM     18  C   UNL     1      30.691 -15.107  -2.210 -0.06 -0.00    +0.000 C 
DOCKED: BRANCH  18  19
DOCKED: ATOM     19  C   UNL     1      30.809 -13.865  -1.313 -0.03 -0.00    +0.000 C 
DOCKED: BRANCH  19  20
DOCKED: ATOM     20  C   UNL     1      29.985 -14.038  -0.069 -0.07 -0.00    +0.000 A 
DOCKED: ATOM     21  C   UNL     1      30.287 -14.821   1.046 -0.11 -0.00    +0.000 A 
DOCKED: ATOM     22  N   UNL     1      29.277 -14.783   1.946 -0.03 -0.00    +0.000 N 
DOCKED: ATOM     23  C   UNL     1      28.329 -14.001   1.401 -0.21 -0.00    +0.000 A 
DOCKED: ATOM     24  C   UNL     1      28.721 -13.534   0.172 -0.11 -0.00    +0.000 A 
DOCKED: ATOM     25  C   UNL     1      27.893 -12.718  -0.600 -0.11 -0.00    +0.000 A 
DOCKED: ATOM     26  C   UNL     1      26.634 -12.374  -0.075 -0.14 -0.00    +0.000 A 
DOCKED: ATOM     27  C   UNL     1      26.233 -12.850   1.192 -0.32 -0.00    +0.000 A 
DOCKED: ATOM     28  C   UNL     1      27.087 -13.677   1.946 -0.25 -0.00    +0.000 A 
DOCKED: ATOM     29  C   UNL     1      31.552 -15.593   1.254 -0.13 -0.00    +0.000 C 
DOCKED: ATOM     30  H   UNL     1      29.243 -15.236   2.820 -1.98 -0.00    +0.000 HD
DOCKED: ENDBRANCH  19  20
DOCKED: ENDBRANCH  18  19
DOCKED: ENDBRANCH   1  18
DOCKED: TORSDOF 7
DOCKED: TER
DOCKED: ENDMDL
________________________________________________________________________________


	BEGINNING GENETIC ALGORITHM DOCKING 91 of 100
Run: 91 Seed: 2019821283 1954802848 [ Run 91 of 100 GA/GALS ]
Beginning LAMARCKIAN GENETIC ALGORITHM (LGA), with a maximum of 2500000 energy evaluations.

Final-Value: -15.254


	FINAL GENETIC ALGORITHM DOCKED STATE
	_______________________________________________


Detailed state:  trans 27.775 -15.548 -0.095 quatxyzw 0.051851 -0.106105 -0.958495 -0.259502 center 0.578 -0.033 0.130 ntor 7 29.0901 23.2915 11.1611 169.7196 -162.4070 91.3032 -9.1535
State:	 27.775 -15.548  -0.095   0.054 -0.110 -0.992 -149.919     29.09   23.29   11.16  169.72 -162.41   91.30   -9.15

DOCKED: MODEL       91
DOCKED: USER    Run = 91
DOCKED: USER    DPF = ligand_dock.biased.dpf
DOCKED: USER  
DOCKED: USER    Estimated Free Energy of Binding    =  -11.77 kcal/mol  [=(1)+(2)+(3)-(4)]
DOCKED: USER    Estimated Inhibition Constant, Ki   =    2.36 nM (nanomolar)  [Temperature = 298.15 K]
DOCKED: USER    
DOCKED: USER    (1) Final Intermolecular Energy     =  -13.86 kcal/mol
DOCKED: USER        vdW + Hbond + desolv Energy     =  -13.86 kcal/mol
DOCKED: USER        Electrostatic Energy            =   +0.00 kcal/mol
DOCKED: USER    (2) Final Total Internal Energy     =   -1.40 kcal/mol
DOCKED: USER    (3) Torsional Free Energy           =   +2.09 kcal/mol
DOCKED: USER    (4) Unbound System's Energy  [=(2)] =   -1.40 kcal/mol
DOCKED: USER    
DOCKED: USER    
DOCKED: USER    NEWDPF move ligand.pdbqt
DOCKED: USER    NEWDPF about 0.578000 -0.033000 0.130000
DOCKED: USER    NEWDPF tran0 27.775208 -15.548160 -0.095389
DOCKED: USER    NEWDPF quaternion0 0.051851 -0.106105 -0.958495 -0.259502
DOCKED: USER    NEWDPF axisangle0 0.053690 -0.109869 -0.992495 -149.918972
DOCKED: USER    NEWDPF quat0 0.053690 -0.109869 -0.992495 -149.918972
DOCKED: USER    NEWDPF dihe0 29.09 23.29 11.16 169.72 -162.41 91.30 -9.15 
DOCKED: USER  keepresnum = 1 
DOCKED: USER  
DOCKED: REMARK  Name = 
DOCKED: REMARK  8 active torsions:
DOCKED: REMARK  status: ('A' for Active; 'I' for Inactive)
DOCKED: REMARK    1  A    between atoms: C_2  and  C_3
DOCKED: REMARK    2  A    between atoms: C_4  and  C_5
DOCKED: REMARK    3  A    between atoms: C_8  and  C_9
DOCKED: REMARK    4  A    between atoms: C_9  and  N_10
DOCKED: REMARK    5  A    between atoms: N_10  and  C_11
DOCKED: REMARK    6  A    between atoms: C_11  and  C_12
DOCKED: REMARK    7  A    between atoms: C_12  and  C_13
DOCKED: REMARK    8  A    between atoms: C_14  and  C_22
DOCKED: REMARK                            x       y       z     vdW  Elec       q    Type
DOCKED: REMARK                         _______ _______ _______ _____ _____    ______ ____
DOCKED: USER                              x       y       z     vdW  Elec       q    Type
DOCKED: USER                           _______ _______ _______ _____ _____    ______ ____
DOCKED: ROOT
DOCKED: ATOM      1  N   UNL     1      28.373 -15.215   0.276 -0.24 -0.00    +0.000 N 
DOCKED: ATOM      2  H   UNL     1      28.148 -15.886   1.011 -0.55 -0.00    +0.000 HD
DOCKED: ATOM      3  H   UNL     1      27.853 -14.346   0.392 -0.01 -0.00    +0.000 HD
DOCKED: ENDROOT
DOCKED: BRANCH   1   4
DOCKED: ATOM      4  C   UNL     1      27.996 -15.794  -1.021 -0.30 -0.00    +0.000 C 
DOCKED: BRANCH   4   8
DOCKED: ATOM      5  C   UNL     1      24.374 -18.126  -0.634 -0.69 -0.00    +0.000 A 
DOCKED: ATOM      6  C   UNL     1      24.370 -16.907  -1.340 -0.58 -0.00    +0.000 A 
DOCKED: ATOM      7  C   UNL     1      25.539 -16.148  -1.454 -0.49 -0.00    +0.000 A 
DOCKED: ATOM      8  C   UNL     1      26.731 -16.591  -0.863 -0.43 -0.00    +0.000 A 
DOCKED: ATOM      9  C   UNL     1      26.748 -17.819  -0.187 -0.49 -0.00    +0.000 A 
DOCKED: ATOM     10  C   UNL     1      25.580 -18.579  -0.074 -0.47 -0.00    +0.000 A 
DOCKED: BRANCH   5  12
DOCKED: ATOM     11  C   UNL     1      21.974 -18.665  -1.029 -0.82 -0.00    +0.000 C 
DOCKED: ATOM     12  C   UNL     1      23.166 -18.976  -0.497 -0.76 -0.00    +0.000 C 
DOCKED: BRANCH  11  14
DOCKED: ATOM     13  O   UNL     1      20.076 -19.739  -1.914 -2.37 -0.00    +0.000 OA
DOCKED: ATOM     14  C   UNL     1      20.775 -19.517  -0.890 -0.86 -0.00    +0.000 C 
DOCKED: ATOM     15  N   UNL     1      20.368 -20.070   0.368 -0.71 -0.00    +0.000 N 
DOCKED: ATOM     16  O   UNL     1      19.324 -20.930   0.425 -0.91 -0.00    +0.000 OA
DOCKED: ATOM     17  H   UNL     1      20.849 -19.825   1.191 -0.41 -0.00    +0.000 HD
DOCKED: ENDBRANCH  11  14
DOCKED: ENDBRANCH   5  12
DOCKED: ENDBRANCH   4   8
DOCKED: ENDBRANCH   1   4
DOCKED: BRANCH   1  18
DOCKED: ATOM     18  C   UNL     1      29.807 -14.896   0.350 -0.15 -0.00    +0.000 C 
DOCKED: BRANCH  18  19
DOCKED: ATOM     19  C   UNL     1      30.140 -13.958   1.520 -0.12 -0.00    +0.000 C 
DOCKED: BRANCH  19  20
DOCKED: ATOM     20  C   UNL     1      28.886 -13.335   2.065 -0.16 -0.00    +0.000 A 
DOCKED: ATOM     21  C   UNL     1      28.192 -13.697   3.220 -0.32 -0.00    +0.000 A 
DOCKED: ATOM     22  N   UNL     1      27.069 -12.953   3.357 -0.34 -0.00    +0.000 N 
DOCKED: ATOM     23  C   UNL     1      27.036 -12.139   2.287 -0.28 +0.00    +0.000 A 
DOCKED: ATOM     24  C   UNL     1      28.121 -12.347   1.474 -0.15 -0.00    +0.000 A 
DOCKED: ATOM     25  C   UNL     1      28.296 -11.634   0.287 -0.08 -0.00    +0.000 A 
DOCKED: ATOM     26  C   UNL     1      27.322 -10.678  -0.054 -0.13 +0.00    +0.000 A 
DOCKED: ATOM     27  C   UNL     1      26.207 -10.461   0.785 -0.31 +0.00    +0.000 A 
DOCKED: ATOM     28  C   UNL     1      26.055 -11.200   1.973 -0.30 +0.00    +0.000 A 
DOCKED: ATOM     29  C   UNL     1      28.615 -14.745   4.201 -0.48 -0.00    +0.000 C 
DOCKED: ATOM     30  H   UNL     1      26.412 -12.999   4.089 +0.06 +0.00    +0.000 HD
DOCKED: ENDBRANCH  19  20
DOCKED: ENDBRANCH  18  19
DOCKED: ENDBRANCH   1  18
DOCKED: TORSDOF 7
DOCKED: TER
DOCKED: ENDMDL
________________________________________________________________________________


	BEGINNING GENETIC ALGORITHM DOCKING 92 of 100
Run: 92 Seed: 1067083937 1127959405 [ Run 92 of 100 GA/GALS ]
Beginning LAMARCKIAN GENETIC ALGORITHM (LGA), with a maximum of 2500000 energy evaluations.

Final-Value: -14.755


	FINAL GENETIC ALGORITHM DOCKED STATE
	_______________________________________________


Detailed state:  trans 27.412 -14.770 -0.857 quatxyzw -0.199011 0.366690 0.907523 -0.048318 center 0.578 -0.033 0.130 ntor 7 16.6457 22.7636 -176.7732 -105.0118 -171.0726 76.9613 -53.2181
State:	 27.412 -14.770  -0.857  -0.199  0.367  0.909 -174.461     16.65   22.76 -176.77 -105.01 -171.07   76.96  -53.22

DOCKED: MODEL       92
DOCKED: USER    Run = 92
DOCKED: USER    DPF = ligand_dock.biased.dpf
DOCKED: USER  
DOCKED: USER    Estimated Free Energy of Binding    =  -11.51 kcal/mol  [=(1)+(2)+(3)-(4)]
DOCKED: USER    Estimated Inhibition Constant, Ki   =    3.68 nM (nanomolar)  [Temperature = 298.15 K]
DOCKED: USER    
DOCKED: USER    (1) Final Intermolecular Energy     =  -13.59 kcal/mol
DOCKED: USER        vdW + Hbond + desolv Energy     =  -13.59 kcal/mol
DOCKED: USER        Electrostatic Energy            =   +0.00 kcal/mol
DOCKED: USER    (2) Final Total Internal Energy     =   -1.16 kcal/mol
DOCKED: USER    (3) Torsional Free Energy           =   +2.09 kcal/mol
DOCKED: USER    (4) Unbound System's Energy  [=(2)] =   -1.16 kcal/mol
DOCKED: USER    
DOCKED: USER    
DOCKED: USER    NEWDPF move ligand.pdbqt
DOCKED: USER    NEWDPF about 0.578000 -0.033000 0.130000
DOCKED: USER    NEWDPF tran0 27.411590 -14.769792 -0.857486
DOCKED: USER    NEWDPF quaternion0 -0.199011 0.366690 0.907523 -0.048318
DOCKED: USER    NEWDPF axisangle0 -0.199244 0.367118 0.908585 -174.460976
DOCKED: USER    NEWDPF quat0 -0.199244 0.367118 0.908585 -174.460976
DOCKED: USER    NEWDPF dihe0 16.65 22.76 -176.77 -105.01 -171.07 76.96 -53.22 
DOCKED: USER  keepresnum = 1 
DOCKED: USER  
DOCKED: REMARK  Name = 
DOCKED: REMARK  8 active torsions:
DOCKED: REMARK  status: ('A' for Active; 'I' for Inactive)
DOCKED: REMARK    1  A    between atoms: C_2  and  C_3
DOCKED: REMARK    2  A    between atoms: C_4  and  C_5
DOCKED: REMARK    3  A    between atoms: C_8  and  C_9
DOCKED: REMARK    4  A    between atoms: C_9  and  N_10
DOCKED: REMARK    5  A    between atoms: N_10  and  C_11
DOCKED: REMARK    6  A    between atoms: C_11  and  C_12
DOCKED: REMARK    7  A    between atoms: C_12  and  C_13
DOCKED: REMARK    8  A    between atoms: C_14  and  C_22
DOCKED: REMARK                            x       y       z     vdW  Elec       q    Type
DOCKED: REMARK                         _______ _______ _______ _____ _____    ______ ____
DOCKED: USER                              x       y       z     vdW  Elec       q    Type
DOCKED: USER                           _______ _______ _______ _____ _____    ______ ____
DOCKED: ROOT
DOCKED: ATOM      1  N   UNL     1      27.924 -14.575  -0.305 -0.20 -0.00    +0.000 N 
DOCKED: ATOM      2  H   UNL     1      27.112 -14.626   0.312 -0.01 -0.00    +0.000 HD
DOCKED: ATOM      3  H   UNL     1      28.035 -13.641  -0.698 +0.00 -0.00    +0.000 HD
DOCKED: ENDROOT
DOCKED: BRANCH   1   4
DOCKED: ATOM      4  C   UNL     1      27.728 -15.511  -1.420 -0.28 -0.00    +0.000 C 
DOCKED: BRANCH   4   8
DOCKED: ATOM      5  C   UNL     1      24.212 -17.939  -0.754 -0.69 -0.00    +0.000 A 
DOCKED: ATOM      6  C   UNL     1      24.169 -16.842  -1.638 -0.47 -0.00    +0.000 A 
DOCKED: ATOM      7  C   UNL     1      25.304 -16.052  -1.843 -0.49 -0.00    +0.000 A 
DOCKED: ATOM      8  C   UNL     1      26.499 -16.338  -1.167 -0.42 -0.00    +0.000 A 
DOCKED: ATOM      9  C   UNL     1      26.555 -17.448  -0.311 -0.52 -0.00    +0.000 A 
DOCKED: ATOM     10  C   UNL     1      25.422 -18.240  -0.108 -0.60 -0.00    +0.000 A 
DOCKED: BRANCH   5  12
DOCKED: ATOM     11  C   UNL     1      21.848 -18.647  -1.102 -0.79 -0.00    +0.000 C 
DOCKED: ATOM     12  C   UNL     1      23.041 -18.819  -0.513 -0.80 -0.00    +0.000 C 
DOCKED: BRANCH  11  14
DOCKED: ATOM     13  O   UNL     1      19.884 -19.737  -1.807 -2.39 -0.00    +0.000 OA
DOCKED: ATOM     14  C   UNL     1      20.687 -19.527  -0.858 -0.87 -0.00    +0.000 C 
DOCKED: ATOM     15  N   UNL     1      20.430 -20.123   0.419 -0.69 -0.00    +0.000 N 
DOCKED: ATOM     16  O   UNL     1      19.415 -21.007   0.564 -0.85 -0.00    +0.000 OA
DOCKED: ATOM     17  H   UNL     1      20.994 -19.890   1.192 -0.50 -0.00    +0.000 HD
DOCKED: ENDBRANCH  11  14
DOCKED: ENDBRANCH   5  12
DOCKED: ENDBRANCH   4   8
DOCKED: ENDBRANCH   1   4
DOCKED: BRANCH   1  18
DOCKED: ATOM     18  C   UNL     1      29.132 -14.880   0.477 -0.18 -0.00    +0.000 C 
DOCKED: BRANCH  18  19
DOCKED: ATOM     19  C   UNL     1      29.757 -13.626   1.108 -0.11 -0.00    +0.000 C 
DOCKED: BRANCH  19  20
DOCKED: ATOM     20  C   UNL     1      28.887 -13.111   2.220 -0.16 -0.00    +0.000 A 
DOCKED: ATOM     21  C   UNL     1      27.801 -12.242   2.113 -0.20 -0.00    +0.000 A 
DOCKED: ATOM     22  N   UNL     1      27.301 -11.948   3.337 -0.29 +0.00    +0.000 N 
DOCKED: ATOM     23  C   UNL     1      28.075 -12.605   4.217 -0.32 -0.00    +0.000 A 
DOCKED: ATOM     24  C   UNL     1      29.056 -13.319   3.575 -0.23 -0.00    +0.000 A 
DOCKED: ATOM     25  C   UNL     1      29.999 -14.067   4.281 -0.29 -0.00    +0.000 A 
DOCKED: ATOM     26  C   UNL     1      29.913 -14.078   5.685 -0.20 -0.00    +0.000 A 
DOCKED: ATOM     27  C   UNL     1      28.900 -13.347   6.345 -0.38 -0.00    +0.000 A 
DOCKED: ATOM     28  C   UNL     1      27.966 -12.597   5.607 -0.40 +0.00    +0.000 A 
DOCKED: ATOM     29  C   UNL     1      27.232 -11.707   0.837 -0.22 +0.00    +0.000 C 
DOCKED: ATOM     30  H   UNL     1      26.529 -11.370   3.539 -0.02 +0.00    +0.000 HD
DOCKED: ENDBRANCH  19  20
DOCKED: ENDBRANCH  18  19
DOCKED: ENDBRANCH   1  18
DOCKED: TORSDOF 7
DOCKED: TER
DOCKED: ENDMDL
________________________________________________________________________________


	BEGINNING GENETIC ALGORITHM DOCKING 93 of 100
Run: 93 Seed: 800900521 1289068193 [ Run 93 of 100 GA/GALS ]
Beginning LAMARCKIAN GENETIC ALGORITHM (LGA), with a maximum of 2500000 energy evaluations.

Final-Value: -14.928


	FINAL GENETIC ALGORITHM DOCKED STATE
	_______________________________________________


Detailed state:  trans 29.492 -15.461 -1.421 quatxyzw 0.722397 0.571019 0.374609 0.108384 center 0.578 -0.033 0.130 ntor 7 158.0366 45.4735 -9.4311 -151.7478 179.9375 55.3565 113.9263
State:	 29.492 -15.461  -1.421   0.727  0.574  0.377 167.556    158.04   45.47   -9.43 -151.75  179.94   55.36  113.93

DOCKED: MODEL       93
DOCKED: USER    Run = 93
DOCKED: USER    DPF = ligand_dock.biased.dpf
DOCKED: USER  
DOCKED: USER    Estimated Free Energy of Binding    =  -10.88 kcal/mol  [=(1)+(2)+(3)-(4)]
DOCKED: USER    Estimated Inhibition Constant, Ki   =   10.65 nM (nanomolar)  [Temperature = 298.15 K]
DOCKED: USER    
DOCKED: USER    (1) Final Intermolecular Energy     =  -12.96 kcal/mol
DOCKED: USER        vdW + Hbond + desolv Energy     =  -12.96 kcal/mol
DOCKED: USER        Electrostatic Energy            =   +0.00 kcal/mol
DOCKED: USER    (2) Final Total Internal Energy     =   -1.96 kcal/mol
DOCKED: USER    (3) Torsional Free Energy           =   +2.09 kcal/mol
DOCKED: USER    (4) Unbound System's Energy  [=(2)] =   -1.96 kcal/mol
DOCKED: USER    
DOCKED: USER    
DOCKED: USER    NEWDPF move ligand.pdbqt
DOCKED: USER    NEWDPF about 0.578000 -0.033000 0.130000
DOCKED: USER    NEWDPF tran0 29.491774 -15.461284 -1.420629
DOCKED: USER    NEWDPF quaternion0 0.722397 0.571019 0.374609 0.108384
DOCKED: USER    NEWDPF axisangle0 0.726678 0.574403 0.376829 167.555659
DOCKED: USER    NEWDPF quat0 0.726678 0.574403 0.376829 167.555659
DOCKED: USER    NEWDPF dihe0 158.04 45.47 -9.43 -151.75 179.94 55.36 113.93 
DOCKED: USER  keepresnum = 1 
DOCKED: USER  
DOCKED: REMARK  Name = 
DOCKED: REMARK  8 active torsions:
DOCKED: REMARK  status: ('A' for Active; 'I' for Inactive)
DOCKED: REMARK    1  A    between atoms: C_2  and  C_3
DOCKED: REMARK    2  A    between atoms: C_4  and  C_5
DOCKED: REMARK    3  A    between atoms: C_8  and  C_9
DOCKED: REMARK    4  A    between atoms: C_9  and  N_10
DOCKED: REMARK    5  A    between atoms: N_10  and  C_11
DOCKED: REMARK    6  A    between atoms: C_11  and  C_12
DOCKED: REMARK    7  A    between atoms: C_12  and  C_13
DOCKED: REMARK    8  A    between atoms: C_14  and  C_22
DOCKED: REMARK                            x       y       z     vdW  Elec       q    Type
DOCKED: REMARK                         _______ _______ _______ _____ _____    ______ ____
DOCKED: USER                              x       y       z     vdW  Elec       q    Type
DOCKED: USER                           _______ _______ _______ _____ _____    ______ ____
DOCKED: ROOT
DOCKED: ATOM      1  N   UNL     1      29.668 -15.822  -2.088 -0.13 -0.00    +0.000 N 
DOCKED: ATOM      2  H   UNL     1      30.532 -15.283  -2.023 +0.00 -0.00    +0.000 HD
DOCKED: ATOM      3  H   UNL     1      28.944 -15.308  -2.589 +0.00 -0.00    +0.000 HD
DOCKED: ENDROOT
DOCKED: BRANCH   1   4
DOCKED: ATOM      4  C   UNL     1      29.174 -16.083  -0.729 -0.23 -0.00    +0.000 C 
DOCKED: BRANCH   4   8
DOCKED: ATOM      5  C   UNL     1      24.960 -17.053  -0.815 -0.57 -0.00    +0.000 A 
DOCKED: ATOM      6  C   UNL     1      25.931 -18.072  -0.874 -0.51 -0.00    +0.000 A 
DOCKED: ATOM      7  C   UNL     1      27.294 -17.755  -0.858 -0.36 -0.00    +0.000 A 
DOCKED: ATOM      8  C   UNL     1      27.710 -16.418  -0.787 -0.34 -0.00    +0.000 A 
DOCKED: ATOM      9  C   UNL     1      26.747 -15.403  -0.695 -0.32 -0.00    +0.000 A 
DOCKED: ATOM     10  C   UNL     1      25.385 -15.719  -0.709 -0.31 -0.00    +0.000 A 
DOCKED: BRANCH   5  12
DOCKED: ATOM     11  C   UNL     1      22.974 -18.511  -0.439 -0.83 -0.00    +0.000 C 
DOCKED: ATOM     12  C   UNL     1      23.503 -17.336  -0.813 -0.73 -0.00    +0.000 C 
DOCKED: BRANCH  11  14
DOCKED: ATOM     13  O   UNL     1      20.734 -17.840  -0.710 -2.29 -0.00    +0.000 OA
DOCKED: ATOM     14  C   UNL     1      21.522 -18.785  -0.438 -0.84 -0.00    +0.000 C 
DOCKED: ATOM     15  N   UNL     1      20.984 -20.073  -0.114 -0.65 -0.00    +0.000 N 
DOCKED: ATOM     16  O   UNL     1      19.655 -20.301  -0.232 -1.29 -0.00    +0.000 OA
DOCKED: ATOM     17  H   UNL     1      21.582 -20.791   0.194 -0.54 -0.00    +0.000 HD
DOCKED: ENDBRANCH  11  14
DOCKED: ENDBRANCH   5  12
DOCKED: ENDBRANCH   4   8
DOCKED: ENDBRANCH   1   4
DOCKED: BRANCH   1  18
DOCKED: ATOM     18  C   UNL     1      29.939 -17.061  -2.833 -0.22 -0.00    +0.000 C 
DOCKED: BRANCH  18  19
DOCKED: ATOM     19  C   UNL     1      29.256 -17.080  -4.209 -0.05 -0.00    +0.000 C 
DOCKED: BRANCH  19  20
DOCKED: ATOM     20  C   UNL     1      28.994 -15.679  -4.683 -0.28 -0.00    +0.000 A 
DOCKED: ATOM     21  C   UNL     1      29.897 -14.809  -5.296 -0.17 -0.00    +0.000 A 
DOCKED: ATOM     22  N   UNL     1      29.322 -13.604  -5.523 -0.15 -0.00    +0.000 N 
DOCKED: ATOM     23  C   UNL     1      28.072 -13.698  -5.039 -0.23 -0.00    +0.000 A 
DOCKED: ATOM     24  C   UNL     1      27.837 -14.943  -4.513 -0.33 -0.00    +0.000 A 
DOCKED: ATOM     25  C   UNL     1      26.613 -15.274  -3.930 -0.45 -0.00    +0.000 A 
DOCKED: ATOM     26  C   UNL     1      25.610 -14.289  -3.902 -0.48 -0.00    +0.000 A 
DOCKED: ATOM     27  C   UNL     1      25.850 -13.009  -4.448 -0.34 -0.00    +0.000 A 
DOCKED: ATOM     28  C   UNL     1      27.096 -12.701  -5.025 -0.23 -0.00    +0.000 A 
DOCKED: ATOM     29  C   UNL     1      31.305 -15.138  -5.678 -0.12 -0.00    +0.000 C 
DOCKED: ATOM     30  H   UNL     1      29.735 -12.821  -5.954 +0.00 -0.00    +0.000 HD
DOCKED: ENDBRANCH  19  20
DOCKED: ENDBRANCH  18  19
DOCKED: ENDBRANCH   1  18
DOCKED: TORSDOF 7
DOCKED: TER
DOCKED: ENDMDL
________________________________________________________________________________


	BEGINNING GENETIC ALGORITHM DOCKING 94 of 100
Run: 94 Seed: 1295302662 569473216 [ Run 94 of 100 GA/GALS ]
Beginning LAMARCKIAN GENETIC ALGORITHM (LGA), with a maximum of 2500000 energy evaluations.

Final-Value: -15.074


	FINAL GENETIC ALGORITHM DOCKED STATE
	_______________________________________________


Detailed state:  trans 29.516 -16.703 -1.262 quatxyzw 0.175449 -0.952464 0.245565 -0.041574 center 0.578 -0.033 0.130 ntor 7 129.9294 -143.0159 -168.6036 -179.8919 -28.1481 -179.3226 -22.3879
State:	 29.516 -16.703  -1.262   0.176 -0.953  0.246 -175.235    129.93 -143.02 -168.60 -179.89  -28.15 -179.32  -22.39

DOCKED: MODEL       94
DOCKED: USER    Run = 94
DOCKED: USER    DPF = ligand_dock.biased.dpf
DOCKED: USER  
DOCKED: USER    Estimated Free Energy of Binding    =  -10.78 kcal/mol  [=(1)+(2)+(3)-(4)]
DOCKED: USER    Estimated Inhibition Constant, Ki   =   12.61 nM (nanomolar)  [Temperature = 298.15 K]
DOCKED: USER    
DOCKED: USER    (1) Final Intermolecular Energy     =  -12.86 kcal/mol
DOCKED: USER        vdW + Hbond + desolv Energy     =  -12.86 kcal/mol
DOCKED: USER        Electrostatic Energy            =   +0.00 kcal/mol
DOCKED: USER    (2) Final Total Internal Energy     =   -2.21 kcal/mol
DOCKED: USER    (3) Torsional Free Energy           =   +2.09 kcal/mol
DOCKED: USER    (4) Unbound System's Energy  [=(2)] =   -2.21 kcal/mol
DOCKED: USER    
DOCKED: USER    
DOCKED: USER    NEWDPF move ligand.pdbqt
DOCKED: USER    NEWDPF about 0.578000 -0.033000 0.130000
DOCKED: USER    NEWDPF tran0 29.516298 -16.703043 -1.262204
DOCKED: USER    NEWDPF quaternion0 0.175449 -0.952464 0.245565 -0.041574
DOCKED: USER    NEWDPF axisangle0 0.175601 -0.953288 0.245777 -175.234573
DOCKED: USER    NEWDPF quat0 0.175601 -0.953288 0.245777 -175.234573
DOCKED: USER    NEWDPF dihe0 129.93 -143.02 -168.60 -179.89 -28.15 -179.32 -22.39 
DOCKED: USER  keepresnum = 1 
DOCKED: USER  
DOCKED: REMARK  Name = 
DOCKED: REMARK  8 active torsions:
DOCKED: REMARK  status: ('A' for Active; 'I' for Inactive)
DOCKED: REMARK    1  A    between atoms: C_2  and  C_3
DOCKED: REMARK    2  A    between atoms: C_4  and  C_5
DOCKED: REMARK    3  A    between atoms: C_8  and  C_9
DOCKED: REMARK    4  A    between atoms: C_9  and  N_10
DOCKED: REMARK    5  A    between atoms: N_10  and  C_11
DOCKED: REMARK    6  A    between atoms: C_11  and  C_12
DOCKED: REMARK    7  A    between atoms: C_12  and  C_13
DOCKED: REMARK    8  A    between atoms: C_14  and  C_22
DOCKED: REMARK                            x       y       z     vdW  Elec       q    Type
DOCKED: REMARK                         _______ _______ _______ _____ _____    ______ ____
DOCKED: USER                              x       y       z     vdW  Elec       q    Type
DOCKED: USER                           _______ _______ _______ _____ _____    ______ ____
DOCKED: ROOT
DOCKED: ATOM      1  N   UNL     1      30.139 -16.563  -1.708 -0.15 -0.00    +0.000 N 
DOCKED: ATOM      2  H   UNL     1      29.452 -16.513  -2.461 -0.00 -0.00    +0.000 HD
DOCKED: ATOM      3  H   UNL     1      30.482 -17.514  -1.577 -0.01 -0.00    +0.000 HD
DOCKED: ENDROOT
DOCKED: BRANCH   1   4
DOCKED: ATOM      4  C   UNL     1      29.496 -16.142  -0.456 -0.21 -0.00    +0.000 C 
DOCKED: BRANCH   4   8
DOCKED: ATOM      5  C   UNL     1      25.226 -16.705  -0.854 -0.51 -0.00    +0.000 A 
DOCKED: ATOM      6  C   UNL     1      25.768 -15.413  -0.697 -0.33 -0.00    +0.000 A 
DOCKED: ATOM      7  C   UNL     1      27.147 -15.235  -0.557 -0.29 -0.00    +0.000 A 
DOCKED: ATOM      8  C   UNL     1      28.010 -16.340  -0.567 -0.30 -0.00    +0.000 A 
DOCKED: ATOM      9  C   UNL     1      27.479 -17.624  -0.755 -0.38 -0.00    +0.000 A 
DOCKED: ATOM     10  C   UNL     1      26.100 -17.804  -0.897 -0.53 -0.00    +0.000 A 
DOCKED: BRANCH   5  12
DOCKED: ATOM     11  C   UNL     1      23.202 -18.158  -0.907 -0.81 -0.00    +0.000 C 
DOCKED: ATOM     12  C   UNL     1      23.772 -16.948  -1.022 -0.64 -0.00    +0.000 C 
DOCKED: BRANCH  11  14
DOCKED: ATOM     13  O   UNL     1      20.954 -17.489  -0.710 -2.08 +0.00    +0.000 OA
DOCKED: ATOM     14  C   UNL     1      21.753 -18.392  -1.075 -0.76 -0.00    +0.000 C 
DOCKED: ATOM     15  N   UNL     1      21.230 -19.615  -1.607 -0.65 -0.00    +0.000 N 
DOCKED: ATOM     16  O   UNL     1      19.903 -19.740  -1.840 -2.40 -0.00    +0.000 OA
DOCKED: ATOM     17  H   UNL     1      21.837 -20.365  -1.804 -0.43 -0.00    +0.000 HD
DOCKED: ENDBRANCH  11  14
DOCKED: ENDBRANCH   5  12
DOCKED: ENDBRANCH   4   8
DOCKED: ENDBRANCH   1   4
DOCKED: BRANCH   1  18
DOCKED: ATOM     18  C   UNL     1      31.289 -15.715  -2.059 -0.06 -0.00    +0.000 C 
DOCKED: BRANCH  18  19
DOCKED: ATOM     19  C   UNL     1      30.983 -14.766  -3.229 -0.05 -0.00    +0.000 C 
DOCKED: BRANCH  19  20
DOCKED: ATOM     20  C   UNL     1      29.608 -15.032  -3.772 -0.13 -0.00    +0.000 A 
DOCKED: ATOM     21  C   UNL     1      29.216 -16.071  -4.616 -0.27 -0.00    +0.000 A 
DOCKED: ATOM     22  N   UNL     1      27.909 -15.951  -4.950 -0.29 +0.00    +0.000 N 
DOCKED: ATOM     23  C   UNL     1      27.478 -14.832  -4.344 -0.35 -0.00    +0.000 A 
DOCKED: ATOM     24  C   UNL     1      28.485 -14.240  -3.623 -0.15 -0.00    +0.000 A 
DOCKED: ATOM     25  C   UNL     1      28.284 -13.050  -2.923 -0.10 -0.00    +0.000 A 
DOCKED: ATOM     26  C   UNL     1      27.004 -12.469  -2.967 -0.15 -0.00    +0.000 A 
DOCKED: ATOM     27  C   UNL     1      25.966 -13.080  -3.705 -0.24 -0.00    +0.000 A 
DOCKED: ATOM     28  C   UNL     1      26.200 -14.278  -4.407 -0.43 -0.00    +0.000 A 
DOCKED: ATOM     29  C   UNL     1      30.090 -17.191  -5.087 -0.32 -0.00    +0.000 C 
DOCKED: ATOM     30  H   UNL     1      27.384 -16.558  -5.520 +0.14 +0.00    +0.000 HD
DOCKED: ENDBRANCH  19  20
DOCKED: ENDBRANCH  18  19
DOCKED: ENDBRANCH   1  18
DOCKED: TORSDOF 7
DOCKED: TER
DOCKED: ENDMDL
________________________________________________________________________________


	BEGINNING GENETIC ALGORITHM DOCKING 95 of 100
Run: 95 Seed: 542706230 1324146887 [ Run 95 of 100 GA/GALS ]
Beginning LAMARCKIAN GENETIC ALGORITHM (LGA), with a maximum of 2500000 energy evaluations.

Final-Value: -15.656


	FINAL GENETIC ALGORITHM DOCKED STATE
	_______________________________________________


Detailed state:  trans 28.582 -16.262 -0.223 quatxyzw -0.023312 -0.363478 -0.895503 -0.255762 center 0.578 -0.033 0.130 ntor 7 -176.3518 165.1526 -0.1594 -122.8472 169.7282 106.7097 19.1467
State:	 28.582 -16.262  -0.223  -0.024 -0.376 -0.926 -150.363   -176.35  165.15   -0.16 -122.85  169.73  106.71   19.15

DOCKED: MODEL       95
DOCKED: USER    Run = 95
DOCKED: USER    DPF = ligand_dock.biased.dpf
DOCKED: USER  
DOCKED: USER    Estimated Free Energy of Binding    =  -12.15 kcal/mol  [=(1)+(2)+(3)-(4)]
DOCKED: USER    Estimated Inhibition Constant, Ki   =    1.24 nM (nanomolar)  [Temperature = 298.15 K]
DOCKED: USER    
DOCKED: USER    (1) Final Intermolecular Energy     =  -14.24 kcal/mol
DOCKED: USER        vdW + Hbond + desolv Energy     =  -14.24 kcal/mol
DOCKED: USER        Electrostatic Energy            =   +0.00 kcal/mol
DOCKED: USER    (2) Final Total Internal Energy     =   -1.42 kcal/mol
DOCKED: USER    (3) Torsional Free Energy           =   +2.09 kcal/mol
DOCKED: USER    (4) Unbound System's Energy  [=(2)] =   -1.42 kcal/mol
DOCKED: USER    
DOCKED: USER    
DOCKED: USER    NEWDPF move ligand.pdbqt
DOCKED: USER    NEWDPF about 0.578000 -0.033000 0.130000
DOCKED: USER    NEWDPF tran0 28.581761 -16.261558 -0.223127
DOCKED: USER    NEWDPF quaternion0 -0.023312 -0.363478 -0.895503 -0.255762
DOCKED: USER    NEWDPF axisangle0 -0.024114 -0.375983 -0.926313 -150.362538
DOCKED: USER    NEWDPF quat0 -0.024114 -0.375983 -0.926313 -150.362538
DOCKED: USER    NEWDPF dihe0 -176.35 165.15 -0.16 -122.85 169.73 106.71 19.15 
DOCKED: USER  keepresnum = 1 
DOCKED: USER  
DOCKED: REMARK  Name = 
DOCKED: REMARK  8 active torsions:
DOCKED: REMARK  status: ('A' for Active; 'I' for Inactive)
DOCKED: REMARK    1  A    between atoms: C_2  and  C_3
DOCKED: REMARK    2  A    between atoms: C_4  and  C_5
DOCKED: REMARK    3  A    between atoms: C_8  and  C_9
DOCKED: REMARK    4  A    between atoms: C_9  and  N_10
DOCKED: REMARK    5  A    between atoms: N_10  and  C_11
DOCKED: REMARK    6  A    between atoms: C_11  and  C_12
DOCKED: REMARK    7  A    between atoms: C_12  and  C_13
DOCKED: REMARK    8  A    between atoms: C_14  and  C_22
DOCKED: REMARK                            x       y       z     vdW  Elec       q    Type
DOCKED: REMARK                         _______ _______ _______ _____ _____    ______ ____
DOCKED: USER                              x       y       z     vdW  Elec       q    Type
DOCKED: USER                           _______ _______ _______ _____ _____    ______ ____
DOCKED: ROOT
DOCKED: ATOM      1  N   UNL     1      29.188 -15.794  -0.081 -0.20 -0.00    +0.000 N 
DOCKED: ATOM      2  H   UNL     1      28.958 -15.975   0.896 -0.73 -0.00    +0.000 HD
DOCKED: ATOM      3  H   UNL     1      28.682 -14.984  -0.439 -0.00 -0.00    +0.000 HD
DOCKED: ENDROOT
DOCKED: BRANCH   1   4
DOCKED: ATOM      4  C   UNL     1      28.791 -16.960  -0.882 -0.31 -0.00    +0.000 C 
DOCKED: BRANCH   4   8
DOCKED: ATOM      5  C   UNL     1      24.495 -17.455  -0.806 -0.64 -0.00    +0.000 A 
DOCKED: ATOM      6  C   UNL     1      25.096 -16.540  -1.694 -0.54 -0.00    +0.000 A 
DOCKED: ATOM      7  C   UNL     1      26.484 -16.373  -1.708 -0.42 -0.00    +0.000 A 
DOCKED: ATOM      8  C   UNL     1      27.297 -17.112  -0.836 -0.42 -0.00    +0.000 A 
DOCKED: ATOM      9  C   UNL     1      26.706 -18.047   0.027 -0.46 -0.00    +0.000 A 
DOCKED: ATOM     10  C   UNL     1      25.318 -18.216   0.041 -0.59 -0.00    +0.000 A 
DOCKED: BRANCH   5  12
DOCKED: ATOM     11  C   UNL     1      22.468 -18.885  -0.567 -0.82 -0.00    +0.000 C 
DOCKED: ATOM     12  C   UNL     1      23.030 -17.681  -0.761 -0.78 -0.00    +0.000 C 
DOCKED: BRANCH  11  14
DOCKED: ATOM     13  O   UNL     1      20.257 -18.235  -1.043 -2.10 -0.00    +0.000 OA
DOCKED: ATOM     14  C   UNL     1      21.008 -19.103  -0.522 -0.87 -0.00    +0.000 C 
DOCKED: ATOM     15  N   UNL     1      20.421 -20.245   0.113 -0.70 -0.00    +0.000 N 
DOCKED: ATOM     16  O   UNL     1      19.086 -20.454   0.035 -1.08 -0.00    +0.000 OA
DOCKED: ATOM     17  H   UNL     1      20.990 -20.878   0.607 -0.52 -0.00    +0.000 HD
DOCKED: ENDBRANCH  11  14
DOCKED: ENDBRANCH   5  12
DOCKED: ENDBRANCH   4   8
DOCKED: ENDBRANCH   1   4
DOCKED: BRANCH   1  18
DOCKED: ATOM     18  C   UNL     1      30.627 -15.508  -0.183 -0.12 -0.00    +0.000 C 
DOCKED: BRANCH  18  19
DOCKED: ATOM     19  C   UNL     1      31.044 -14.286   0.649 -0.08 -0.00    +0.000 C 
DOCKED: BRANCH  19  20
DOCKED: ATOM     20  C   UNL     1      30.577 -14.436   2.069 -0.13 -0.00    +0.000 A 
DOCKED: ATOM     21  C   UNL     1      31.270 -15.014   3.133 -0.22 -0.00    +0.000 A 
DOCKED: ATOM     22  N   UNL     1      30.506 -15.030   4.251 -0.32 -0.00    +0.000 N 
DOCKED: ATOM     23  C   UNL     1      29.328 -14.489   3.897 -0.34 -0.00    +0.000 A 
DOCKED: ATOM     24  C   UNL     1      29.330 -14.121   2.575 -0.20 -0.00    +0.000 A 
DOCKED: ATOM     25  C   UNL     1      28.207 -13.554   1.970 -0.22 -0.00    +0.000 A 
DOCKED: ATOM     26  C   UNL     1      27.061 -13.360   2.762 -0.33 -0.00    +0.000 A 
DOCKED: ATOM     27  C   UNL     1      27.061 -13.734   4.123 -0.38 -0.00    +0.000 A 
DOCKED: ATOM     28  C   UNL     1      28.206 -14.309   4.705 -0.52 -0.00    +0.000 A 
DOCKED: ATOM     29  C   UNL     1      32.672 -15.535   3.082 -0.19 -0.00    +0.000 C 
DOCKED: ATOM     30  H   UNL     1      30.761 -15.371   5.139 -0.01 -0.00    +0.000 HD
DOCKED: ENDBRANCH  19  20
DOCKED: ENDBRANCH  18  19
DOCKED: ENDBRANCH   1  18
DOCKED: TORSDOF 7
DOCKED: TER
DOCKED: ENDMDL
________________________________________________________________________________


	BEGINNING GENETIC ALGORITHM DOCKING 96 of 100
Run: 96 Seed: 1352369120 800126626 [ Run 96 of 100 GA/GALS ]
Beginning LAMARCKIAN GENETIC ALGORITHM (LGA), with a maximum of 2500000 energy evaluations.

Final-Value: -15.307


	FINAL GENETIC ALGORITHM DOCKED STATE
	_______________________________________________


Detailed state:  trans 27.707 -16.206 0.275 quatxyzw 0.071464 -0.403683 0.898648 0.156092 center 0.578 -0.033 0.130 ntor 7 123.7839 150.5469 -169.1272 159.7604 75.8087 22.3557 -23.3746
State:	 27.707 -16.206   0.275   0.072 -0.409  0.910 162.040    123.78  150.55 -169.13  159.76   75.81   22.36  -23.37

DOCKED: MODEL       96
DOCKED: USER    Run = 96
DOCKED: USER    DPF = ligand_dock.biased.dpf
DOCKED: USER  
DOCKED: USER    Estimated Free Energy of Binding    =  -12.05 kcal/mol  [=(1)+(2)+(3)-(4)]
DOCKED: USER    Estimated Inhibition Constant, Ki   =    1.48 nM (nanomolar)  [Temperature = 298.15 K]
DOCKED: USER    
DOCKED: USER    (1) Final Intermolecular Energy     =  -14.14 kcal/mol
DOCKED: USER        vdW + Hbond + desolv Energy     =  -14.14 kcal/mol
DOCKED: USER        Electrostatic Energy            =   +0.00 kcal/mol
DOCKED: USER    (2) Final Total Internal Energy     =   -1.17 kcal/mol
DOCKED: USER    (3) Torsional Free Energy           =   +2.09 kcal/mol
DOCKED: USER    (4) Unbound System's Energy  [=(2)] =   -1.17 kcal/mol
DOCKED: USER    
DOCKED: USER    
DOCKED: USER    NEWDPF move ligand.pdbqt
DOCKED: USER    NEWDPF about 0.578000 -0.033000 0.130000
DOCKED: USER    NEWDPF tran0 27.707343 -16.206347 0.274959
DOCKED: USER    NEWDPF quaternion0 0.071464 -0.403683 0.898648 0.156092
DOCKED: USER    NEWDPF axisangle0 0.072351 -0.408693 0.909800 162.039699
DOCKED: USER    NEWDPF quat0 0.072351 -0.408693 0.909800 162.039699
DOCKED: USER    NEWDPF dihe0 123.78 150.55 -169.13 159.76 75.81 22.36 -23.37 
DOCKED: USER  keepresnum = 1 
DOCKED: USER  
DOCKED: REMARK  Name = 
DOCKED: REMARK  8 active torsions:
DOCKED: REMARK  status: ('A' for Active; 'I' for Inactive)
DOCKED: REMARK    1  A    between atoms: C_2  and  C_3
DOCKED: REMARK    2  A    between atoms: C_4  and  C_5
DOCKED: REMARK    3  A    between atoms: C_8  and  C_9
DOCKED: REMARK    4  A    between atoms: C_9  and  N_10
DOCKED: REMARK    5  A    between atoms: N_10  and  C_11
DOCKED: REMARK    6  A    between atoms: C_11  and  C_12
DOCKED: REMARK    7  A    between atoms: C_12  and  C_13
DOCKED: REMARK    8  A    between atoms: C_14  and  C_22
DOCKED: REMARK                            x       y       z     vdW  Elec       q    Type
DOCKED: REMARK                         _______ _______ _______ _____ _____    ______ ____
DOCKED: USER                              x       y       z     vdW  Elec       q    Type
DOCKED: USER                           _______ _______ _______ _____ _____    ______ ____
DOCKED: ROOT
DOCKED: ATOM      1  N   UNL     1      28.471 -16.260   0.419 -0.01 -0.00    +0.000 N 
DOCKED: ATOM      2  H   UNL     1      28.298 -17.264   0.371 -0.43 -0.00    +0.000 HD
DOCKED: ATOM      3  H   UNL     1      28.345 -15.904   1.366 -0.80 -0.00    +0.000 HD
DOCKED: ENDROOT
DOCKED: BRANCH   1   4
DOCKED: ATOM      4  C   UNL     1      27.504 -15.574  -0.449 -0.33 -0.00    +0.000 C 
DOCKED: BRANCH   4   8
DOCKED: ATOM      5  C   UNL     1      24.026 -18.093  -0.967 -0.70 -0.00    +0.000 A 
DOCKED: ATOM      6  C   UNL     1      25.205 -18.608  -0.390 -0.54 -0.00    +0.000 A 
DOCKED: ATOM      7  C   UNL     1      26.332 -17.795  -0.235 -0.55 -0.00    +0.000 A 
DOCKED: ATOM      8  C   UNL     1      26.304 -16.457  -0.655 -0.44 -0.00    +0.000 A 
DOCKED: ATOM      9  C   UNL     1      25.124 -15.932  -1.199 -0.42 -0.00    +0.000 A 
DOCKED: ATOM     10  C   UNL     1      23.996 -16.743  -1.353 -0.50 -0.00    +0.000 A 
DOCKED: BRANCH   5  12
DOCKED: ATOM     11  C   UNL     1      21.587 -18.531  -0.704 -0.86 -0.00    +0.000 C 
DOCKED: ATOM     12  C   UNL     1      22.798 -18.908  -1.140 -0.80 -0.00    +0.000 C 
DOCKED: BRANCH  11  14
DOCKED: ATOM     13  O   UNL     1      20.211 -19.958  -1.971 -2.30 -0.00    +0.000 OA
DOCKED: ATOM     14  C   UNL     1      20.369 -19.347  -0.881 -0.90 -0.00    +0.000 C 
DOCKED: ATOM     15  N   UNL     1      19.355 -19.443   0.127 -0.75 -0.00    +0.000 N 
DOCKED: ATOM     16  O   UNL     1      18.310 -20.287  -0.039 -0.92 -0.00    +0.000 OA
DOCKED: ATOM     17  H   UNL     1      19.419 -18.894   0.942 -0.27 -0.00    +0.000 HD
DOCKED: ENDBRANCH  11  14
DOCKED: ENDBRANCH   5  12
DOCKED: ENDBRANCH   4   8
DOCKED: ENDBRANCH   1   4
DOCKED: BRANCH   1  18
DOCKED: ATOM     18  C   UNL     1      29.863 -15.999   0.021 -0.15 -0.00    +0.000 C 
DOCKED: BRANCH  18  19
DOCKED: ATOM     19  C   UNL     1      30.495 -14.846   0.815 -0.13 -0.00    +0.000 C 
DOCKED: BRANCH  19  20
DOCKED: ATOM     20  C   UNL     1      29.430 -13.921   1.332 -0.13 -0.00    +0.000 A 
DOCKED: ATOM     21  C   UNL     1      28.743 -12.937   0.620 -0.09 -0.00    +0.000 A 
DOCKED: ATOM     22  N   UNL     1      27.901 -12.257   1.433 -0.16 -0.00    +0.000 N 
DOCKED: ATOM     23  C   UNL     1      28.067 -12.786   2.657 -0.23 -0.00    +0.000 A 
DOCKED: ATOM     24  C   UNL     1      28.995 -13.797   2.638 -0.21 -0.00    +0.000 A 
DOCKED: ATOM     25  C   UNL     1      29.354 -14.486   3.797 -0.32 -0.00    +0.000 A 
DOCKED: ATOM     26  C   UNL     1      28.726 -14.118   5.001 -0.45 -0.00    +0.000 A 
DOCKED: ATOM     27  C   UNL     1      27.768 -13.081   5.021 -0.44 -0.00    +0.000 A 
DOCKED: ATOM     28  C   UNL     1      27.430 -12.399   3.836 -0.23 +0.00    +0.000 A 
DOCKED: ATOM     29  C   UNL     1      28.881 -12.662  -0.845 -0.07 -0.00    +0.000 C 
DOCKED: ATOM     30  H   UNL     1      27.294 -11.524   1.180 +0.00 +0.00    +0.000 HD
DOCKED: ENDBRANCH  19  20
DOCKED: ENDBRANCH  18  19
DOCKED: ENDBRANCH   1  18
DOCKED: TORSDOF 7
DOCKED: TER
DOCKED: ENDMDL
________________________________________________________________________________


	BEGINNING GENETIC ALGORITHM DOCKING 97 of 100
Run: 97 Seed: 1342574105 307038684 [ Run 97 of 100 GA/GALS ]
Beginning LAMARCKIAN GENETIC ALGORITHM (LGA), with a maximum of 2500000 energy evaluations.

Final-Value: -16.016


	FINAL GENETIC ALGORITHM DOCKED STATE
	_______________________________________________


Detailed state:  trans 29.126 -15.448 1.242 quatxyzw -0.056653 -0.127047 0.548120 0.824751 center 0.578 -0.033 0.130 ntor 7 69.4634 98.8017 29.0723 91.2814 -15.9355 -169.1347 90.3520
State:	 29.126 -15.448   1.242  -0.100 -0.225  0.969 68.874     69.46   98.80   29.07   91.28  -15.94 -169.13   90.35

DOCKED: MODEL       97
DOCKED: USER    Run = 97
DOCKED: USER    DPF = ligand_dock.biased.dpf
DOCKED: USER  
DOCKED: USER    Estimated Free Energy of Binding    =  -12.87 kcal/mol  [=(1)+(2)+(3)-(4)]
DOCKED: USER    Estimated Inhibition Constant, Ki   =  367.43 pM (picomolar)  [Temperature = 298.15 K]
DOCKED: USER    
DOCKED: USER    (1) Final Intermolecular Energy     =  -14.96 kcal/mol
DOCKED: USER        vdW + Hbond + desolv Energy     =  -14.96 kcal/mol
DOCKED: USER        Electrostatic Energy            =   +0.00 kcal/mol
DOCKED: USER    (2) Final Total Internal Energy     =   -1.06 kcal/mol
DOCKED: USER    (3) Torsional Free Energy           =   +2.09 kcal/mol
DOCKED: USER    (4) Unbound System's Energy  [=(2)] =   -1.06 kcal/mol
DOCKED: USER    
DOCKED: USER    
DOCKED: USER    NEWDPF move ligand.pdbqt
DOCKED: USER    NEWDPF about 0.578000 -0.033000 0.130000
DOCKED: USER    NEWDPF tran0 29.125936 -15.447564 1.242377
DOCKED: USER    NEWDPF quaternion0 -0.056653 -0.127047 0.548120 0.824751
DOCKED: USER    NEWDPF axisangle0 -0.100183 -0.224665 0.969272 68.873573
DOCKED: USER    NEWDPF quat0 -0.100183 -0.224665 0.969272 68.873573
DOCKED: USER    NEWDPF dihe0 69.46 98.80 29.07 91.28 -15.94 -169.13 90.35 
DOCKED: USER  keepresnum = 1 
DOCKED: USER  
DOCKED: REMARK  Name = 
DOCKED: REMARK  8 active torsions:
DOCKED: REMARK  status: ('A' for Active; 'I' for Inactive)
DOCKED: REMARK    1  A    between atoms: C_2  and  C_3
DOCKED: REMARK    2  A    between atoms: C_4  and  C_5
DOCKED: REMARK    3  A    between atoms: C_8  and  C_9
DOCKED: REMARK    4  A    between atoms: C_9  and  N_10
DOCKED: REMARK    5  A    between atoms: N_10  and  C_11
DOCKED: REMARK    6  A    between atoms: C_11  and  C_12
DOCKED: REMARK    7  A    between atoms: C_12  and  C_13
DOCKED: REMARK    8  A    between atoms: C_14  and  C_22
DOCKED: REMARK                            x       y       z     vdW  Elec       q    Type
DOCKED: REMARK                         _______ _______ _______ _____ _____    ______ ____
DOCKED: USER                              x       y       z     vdW  Elec       q    Type
DOCKED: USER                           _______ _______ _______ _____ _____    ______ ____
DOCKED: ROOT
DOCKED: ATOM      1  N   UNL     1      29.006 -14.863   1.742 -0.04 -0.00    +0.000 N 
DOCKED: ATOM      2  H   UNL     1      29.857 -15.211   2.184 -1.39 -0.00    +0.000 HD
DOCKED: ATOM      3  H   UNL     1      28.176 -15.321   2.120 -1.15 -0.00    +0.000 HD
DOCKED: ENDROOT
DOCKED: BRANCH   1   4
DOCKED: ATOM      4  C   UNL     1      29.066 -15.159   0.305 -0.19 -0.00    +0.000 C 
DOCKED: BRANCH   4   8
DOCKED: ATOM      5  C   UNL     1      25.214 -16.686  -0.934 -0.52 -0.00    +0.000 A 
DOCKED: ATOM      6  C   UNL     1      26.305 -17.559  -0.748 -0.53 -0.00    +0.000 A 
DOCKED: ATOM      7  C   UNL     1      27.552 -17.061  -0.359 -0.38 -0.00    +0.000 A 
DOCKED: ATOM      8  C   UNL     1      27.734 -15.686  -0.152 -0.28 -0.00    +0.000 A 
DOCKED: ATOM      9  C   UNL     1      26.644 -14.818  -0.305 -0.29 -0.00    +0.000 A 
DOCKED: ATOM     10  C   UNL     1      25.396 -15.315  -0.692 -0.17 -0.00    +0.000 A 
DOCKED: BRANCH   5  12
DOCKED: ATOM     11  C   UNL     1      23.017 -17.776  -0.492 -0.79 -0.00    +0.000 C 
DOCKED: ATOM     12  C   UNL     1      23.866 -17.164  -1.332 -0.67 -0.00    +0.000 C 
DOCKED: BRANCH  11  14
DOCKED: ATOM     13  O   UNL     1      20.691 -17.484  -0.707 -2.08 +0.00    +0.000 OA
DOCKED: ATOM     14  C   UNL     1      21.676 -18.248  -0.895 -0.78 -0.00    +0.000 C 
DOCKED: ATOM     15  N   UNL     1      21.456 -19.546  -1.460 -0.66 -0.00    +0.000 N 
DOCKED: ATOM     16  O   UNL     1      20.227 -19.891  -1.910 -2.33 -0.00    +0.000 OA
DOCKED: ATOM     17  H   UNL     1      22.201 -20.187  -1.521 -0.36 -0.00    +0.000 HD
DOCKED: ENDBRANCH  11  14
DOCKED: ENDBRANCH   5  12
DOCKED: ENDBRANCH   4   8
DOCKED: ENDBRANCH   1   4
DOCKED: BRANCH   1  18
DOCKED: ATOM     18  C   UNL     1      28.887 -13.422   2.013 -0.20 -0.00    +0.000 C 
DOCKED: BRANCH  18  19
DOCKED: ATOM     19  C   UNL     1      30.245 -12.766   2.305 -0.09 -0.00    +0.000 C 
DOCKED: BRANCH  19  20
DOCKED: ATOM     20  C   UNL     1      30.511 -12.748   3.784 -0.11 -0.00    +0.000 A 
DOCKED: ATOM     21  C   UNL     1      31.572 -13.348   4.462 -0.15 -0.00    +0.000 A 
DOCKED: ATOM     22  N   UNL     1      31.446 -13.174   5.799 -0.20 -0.00    +0.000 N 
DOCKED: ATOM     23  C   UNL     1      30.302 -12.490   5.973 -0.20 -0.00    +0.000 A 
DOCKED: ATOM     24  C   UNL     1      29.701 -12.218   4.770 -0.15 -0.00    +0.000 A 
DOCKED: ATOM     25  C   UNL     1      28.487 -11.534   4.695 -0.26 +0.00    +0.000 A 
DOCKED: ATOM     26  C   UNL     1      27.891 -11.118   5.900 -0.28 +0.00    +0.000 A 
DOCKED: ATOM     27  C   UNL     1      28.512 -11.395   7.137 -0.31 +0.00    +0.000 A 
DOCKED: ATOM     28  C   UNL     1      29.734 -12.091   7.182 -0.26 -0.00    +0.000 A 
DOCKED: ATOM     29  C   UNL     1      32.717 -14.072   3.827 -0.13 -0.00    +0.000 C 
DOCKED: ATOM     30  H   UNL     1      32.064 -13.487   6.499 -0.02 -0.00    +0.000 HD
DOCKED: ENDBRANCH  19  20
DOCKED: ENDBRANCH  18  19
DOCKED: ENDBRANCH   1  18
DOCKED: TORSDOF 7
DOCKED: TER
DOCKED: ENDMDL
________________________________________________________________________________


	BEGINNING GENETIC ALGORITHM DOCKING 98 of 100
Run: 98 Seed: 1334387022 1591869775 [ Run 98 of 100 GA/GALS ]
Beginning LAMARCKIAN GENETIC ALGORITHM (LGA), with a maximum of 2500000 energy evaluations.

Final-Value: -15.173


	FINAL GENETIC ALGORITHM DOCKED STATE
	_______________________________________________


Detailed state:  trans 28.185 -16.938 -0.856 quatxyzw -0.027510 0.927024 -0.343214 -0.148572 center 0.578 -0.033 0.130 ntor 7 -177.5402 66.7668 165.5640 -174.5929 160.2420 179.7643 7.6315
State:	 28.185 -16.938  -0.856  -0.028  0.937 -0.347 -162.912   -177.54   66.77  165.56 -174.59  160.24  179.76    7.63

DOCKED: MODEL       98
DOCKED: USER    Run = 98
DOCKED: USER    DPF = ligand_dock.biased.dpf
DOCKED: USER  
DOCKED: USER    Estimated Free Energy of Binding    =  -11.34 kcal/mol  [=(1)+(2)+(3)-(4)]
DOCKED: USER    Estimated Inhibition Constant, Ki   =    4.87 nM (nanomolar)  [Temperature = 298.15 K]
DOCKED: USER    
DOCKED: USER    (1) Final Intermolecular Energy     =  -13.43 kcal/mol
DOCKED: USER        vdW + Hbond + desolv Energy     =  -13.43 kcal/mol
DOCKED: USER        Electrostatic Energy            =   +0.00 kcal/mol
DOCKED: USER    (2) Final Total Internal Energy     =   -1.74 kcal/mol
DOCKED: USER    (3) Torsional Free Energy           =   +2.09 kcal/mol
DOCKED: USER    (4) Unbound System's Energy  [=(2)] =   -1.74 kcal/mol
DOCKED: USER    
DOCKED: USER    
DOCKED: USER    NEWDPF move ligand.pdbqt
DOCKED: USER    NEWDPF about 0.578000 -0.033000 0.130000
DOCKED: USER    NEWDPF tran0 28.185302 -16.938014 -0.855972
DOCKED: USER    NEWDPF quaternion0 -0.027510 0.927024 -0.343214 -0.148572
DOCKED: USER    NEWDPF axisangle0 -0.027819 0.937428 -0.347066 -162.911633
DOCKED: USER    NEWDPF quat0 -0.027819 0.937428 -0.347066 -162.911633
DOCKED: USER    NEWDPF dihe0 -177.54 66.77 165.56 -174.59 160.24 179.76 7.63 
DOCKED: USER  keepresnum = 1 
DOCKED: USER  
DOCKED: REMARK  Name = 
DOCKED: REMARK  8 active torsions:
DOCKED: REMARK  status: ('A' for Active; 'I' for Inactive)
DOCKED: REMARK    1  A    between atoms: C_2  and  C_3
DOCKED: REMARK    2  A    between atoms: C_4  and  C_5
DOCKED: REMARK    3  A    between atoms: C_8  and  C_9
DOCKED: REMARK    4  A    between atoms: C_9  and  N_10
DOCKED: REMARK    5  A    between atoms: N_10  and  C_11
DOCKED: REMARK    6  A    between atoms: C_11  and  C_12
DOCKED: REMARK    7  A    between atoms: C_12  and  C_13
DOCKED: REMARK    8  A    between atoms: C_14  and  C_22
DOCKED: REMARK                            x       y       z     vdW  Elec       q    Type
DOCKED: REMARK                         _______ _______ _______ _____ _____    ______ ____
DOCKED: USER                              x       y       z     vdW  Elec       q    Type
DOCKED: USER                           _______ _______ _______ _____ _____    ______ ____
DOCKED: ROOT
DOCKED: ATOM      1  N   UNL     1      28.954 -16.963  -0.974 -0.29 -0.00    +0.000 N 
DOCKED: ATOM      2  H   UNL     1      28.693 -16.959  -1.960 -0.02 -0.00    +0.000 HD
DOCKED: ATOM      3  H   UNL     1      29.008 -17.913  -0.606 -0.30 -0.00    +0.000 HD
DOCKED: ENDROOT
DOCKED: BRANCH   1   4
DOCKED: ATOM      4  C   UNL     1      27.926 -16.244  -0.211 -0.33 -0.00    +0.000 C 
DOCKED: BRANCH   4   8
DOCKED: ATOM      5  C   UNL     1      24.013 -17.897  -1.025 -0.69 -0.00    +0.000 A 
DOCKED: ATOM      6  C   UNL     1      24.941 -18.606  -0.236 -0.50 -0.00    +0.000 A 
DOCKED: ATOM      7  C   UNL     1      26.210 -18.075   0.016 -0.57 -0.00    +0.000 A 
DOCKED: ATOM      8  C   UNL     1      26.576 -16.830  -0.517 -0.46 -0.00    +0.000 A 
DOCKED: ATOM      9  C   UNL     1      25.644 -16.107  -1.275 -0.47 -0.00    +0.000 A 
DOCKED: ATOM     10  C   UNL     1      24.375 -16.636  -1.526 -0.51 -0.00    +0.000 A 
DOCKED: BRANCH   5  12
DOCKED: ATOM     11  C   UNL     1      21.858 -18.971  -0.383 -0.83 -0.00    +0.000 C 
DOCKED: ATOM     12  C   UNL     1      22.649 -18.408  -1.309 -0.71 -0.00    +0.000 C 
DOCKED: BRANCH  11  14
DOCKED: ATOM     13  O   UNL     1      20.195 -19.718  -1.872 -2.35 -0.00    +0.000 OA
DOCKED: ATOM     14  C   UNL     1      20.501 -19.477  -0.674 -0.89 -0.00    +0.000 C 
DOCKED: ATOM     15  N   UNL     1      19.519 -19.675   0.351 -0.73 -0.00    +0.000 N 
DOCKED: ATOM     16  O   UNL     1      18.327 -20.240   0.049 -0.91 -0.00    +0.000 OA
DOCKED: ATOM     17  H   UNL     1      19.712 -19.398   1.276 -0.12 -0.00    +0.000 HD
DOCKED: ENDBRANCH  11  14
DOCKED: ENDBRANCH   5  12
DOCKED: ENDBRANCH   4   8
DOCKED: ENDBRANCH   1   4
DOCKED: BRANCH   1  18
DOCKED: ATOM     18  C   UNL     1      30.285 -16.351  -0.835 -0.17 -0.00    +0.000 C 
DOCKED: BRANCH  18  19
DOCKED: ATOM     19  C   UNL     1      30.729 -15.614  -2.108 -0.08 -0.00    +0.000 C 
DOCKED: BRANCH  19  20
DOCKED: ATOM     20  C   UNL     1      29.658 -15.695  -3.159 -0.15 -0.00    +0.000 A 
DOCKED: ATOM     21  C   UNL     1      29.641 -16.510  -4.291 -0.24 -0.00    +0.000 A 
DOCKED: ATOM     22  N   UNL     1      28.544 -16.262  -5.044 -0.26 -0.00    +0.000 N 
DOCKED: ATOM     23  C   UNL     1      27.879 -15.282  -4.410 -0.34 -0.00    +0.000 A 
DOCKED: ATOM     24  C   UNL     1      28.529 -14.905  -3.262 -0.17 -0.00    +0.000 A 
DOCKED: ATOM     25  C   UNL     1      28.042 -13.886  -2.443 -0.13 -0.00    +0.000 A 
DOCKED: ATOM     26  C   UNL     1      26.845 -13.252  -2.825 -0.19 -0.00    +0.000 A 
DOCKED: ATOM     27  C   UNL     1      26.173 -13.642  -4.003 -0.38 -0.00    +0.000 A 
DOCKED: ATOM     28  C   UNL     1      26.692 -14.670  -4.813 -0.43 -0.00    +0.000 A 
DOCKED: ATOM     29  C   UNL     1      30.669 -17.540  -4.642 -0.26 -0.00    +0.000 C 
DOCKED: ATOM     30  H   UNL     1      28.287 -16.708  -5.884 +0.03 +0.00    +0.000 HD
DOCKED: ENDBRANCH  19  20
DOCKED: ENDBRANCH  18  19
DOCKED: ENDBRANCH   1  18
DOCKED: TORSDOF 7
DOCKED: TER
DOCKED: ENDMDL
________________________________________________________________________________


	BEGINNING GENETIC ALGORITHM DOCKING 99 of 100
Run: 99 Seed: 280622583 1167668254 [ Run 99 of 100 GA/GALS ]
Beginning LAMARCKIAN GENETIC ALGORITHM (LGA), with a maximum of 2500000 energy evaluations.

Final-Value: -15.903


	FINAL GENETIC ALGORITHM DOCKED STATE
	_______________________________________________


Detailed state:  trans 29.272 -16.067 0.586 quatxyzw -0.012471 -0.042673 0.851827 0.521932 center 0.578 -0.033 0.130 ntor 7 141.0741 -173.9379 125.1841 -122.5398 171.0729 15.9128 53.1066
State:	 29.272 -16.067   0.586  -0.015 -0.050  0.999 117.076    141.07 -173.94  125.18 -122.54  171.07   15.91   53.11

DOCKED: MODEL       99
DOCKED: USER    Run = 99
DOCKED: USER    DPF = ligand_dock.biased.dpf
DOCKED: USER  
DOCKED: USER    Estimated Free Energy of Binding    =  -12.28 kcal/mol  [=(1)+(2)+(3)-(4)]
DOCKED: USER    Estimated Inhibition Constant, Ki   =  991.41 pM (picomolar)  [Temperature = 298.15 K]
DOCKED: USER    
DOCKED: USER    (1) Final Intermolecular Energy     =  -14.37 kcal/mol
DOCKED: USER        vdW + Hbond + desolv Energy     =  -14.37 kcal/mol
DOCKED: USER        Electrostatic Energy            =   +0.00 kcal/mol
DOCKED: USER    (2) Final Total Internal Energy     =   -1.53 kcal/mol
DOCKED: USER    (3) Torsional Free Energy           =   +2.09 kcal/mol
DOCKED: USER    (4) Unbound System's Energy  [=(2)] =   -1.53 kcal/mol
DOCKED: USER    
DOCKED: USER    
DOCKED: USER    NEWDPF move ligand.pdbqt
DOCKED: USER    NEWDPF about 0.578000 -0.033000 0.130000
DOCKED: USER    NEWDPF tran0 29.272425 -16.067059 0.585905
DOCKED: USER    NEWDPF quaternion0 -0.012471 -0.042673 0.851827 0.521932
DOCKED: USER    NEWDPF axisangle0 -0.014620 -0.050028 0.998641 117.076068
DOCKED: USER    NEWDPF quat0 -0.014620 -0.050028 0.998641 117.076068
DOCKED: USER    NEWDPF dihe0 141.07 -173.94 125.18 -122.54 171.07 15.91 53.11 
DOCKED: USER  keepresnum = 1 
DOCKED: USER  
DOCKED: REMARK  Name = 
DOCKED: REMARK  8 active torsions:
DOCKED: REMARK  status: ('A' for Active; 'I' for Inactive)
DOCKED: REMARK    1  A    between atoms: C_2  and  C_3
DOCKED: REMARK    2  A    between atoms: C_4  and  C_5
DOCKED: REMARK    3  A    between atoms: C_8  and  C_9
DOCKED: REMARK    4  A    between atoms: C_9  and  N_10
DOCKED: REMARK    5  A    between atoms: N_10  and  C_11
DOCKED: REMARK    6  A    between atoms: C_11  and  C_12
DOCKED: REMARK    7  A    between atoms: C_12  and  C_13
DOCKED: REMARK    8  A    between atoms: C_14  and  C_22
DOCKED: REMARK                            x       y       z     vdW  Elec       q    Type
DOCKED: REMARK                         _______ _______ _______ _____ _____    ______ ____
DOCKED: USER                              x       y       z     vdW  Elec       q    Type
DOCKED: USER                           _______ _______ _______ _____ _____    ______ ____
DOCKED: ROOT
DOCKED: ATOM      1  N   UNL     1      29.684 -15.517   0.952 +0.13 -0.00    +0.000 N 
DOCKED: ATOM      2  H   UNL     1      30.027 -16.299   1.510 -0.71 -0.00    +0.000 HD
DOCKED: ATOM      3  H   UNL     1      28.838 -15.113   1.355 -0.82 -0.00    +0.000 HD
DOCKED: ENDROOT
DOCKED: BRANCH   1   4
DOCKED: ATOM      4  C   UNL     1      29.350 -16.008  -0.392 -0.21 -0.00    +0.000 C 
DOCKED: BRANCH   4   8
DOCKED: ATOM      5  C   UNL     1      25.094 -16.696  -0.736 -0.50 -0.00    +0.000 A 
DOCKED: ATOM      6  C   UNL     1      25.630 -15.407  -0.928 -0.34 -0.00    +0.000 A 
DOCKED: ATOM      7  C   UNL     1      27.005 -15.184  -0.804 -0.29 -0.00    +0.000 A 
DOCKED: ATOM      8  C   UNL     1      27.869 -16.242  -0.484 -0.31 -0.00    +0.000 A 
DOCKED: ATOM      9  C   UNL     1      27.344 -17.533  -0.324 -0.39 -0.00    +0.000 A 
DOCKED: ATOM     10  C   UNL     1      25.970 -17.756  -0.450 -0.57 -0.00    +0.000 A 
DOCKED: BRANCH   5  12
DOCKED: ATOM     11  C   UNL     1      23.148 -18.226  -1.023 -0.81 -0.00    +0.000 C 
DOCKED: ATOM     12  C   UNL     1      23.646 -16.989  -0.871 -0.64 -0.00    +0.000 C 
DOCKED: BRANCH  11  14
DOCKED: ATOM     13  O   UNL     1      20.884 -17.663  -0.712 -2.15 -0.00    +0.000 OA
DOCKED: ATOM     14  C   UNL     1      21.705 -18.511  -1.155 -0.68 -0.00    +0.000 C 
DOCKED: ATOM     15  N   UNL     1      21.211 -19.722  -1.739 -0.58 -0.00    +0.000 N 
DOCKED: ATOM     16  O   UNL     1      19.882 -19.889  -1.935 -2.26 -0.00    +0.000 OA
DOCKED: ATOM     17  H   UNL     1      21.840 -20.434  -1.999 -0.46 -0.00    +0.000 HD
DOCKED: ENDBRANCH  11  14
DOCKED: ENDBRANCH   5  12
DOCKED: ENDBRANCH   4   8
DOCKED: ENDBRANCH   1   4
DOCKED: BRANCH   1  18
DOCKED: ATOM     18  C   UNL     1      30.714 -14.467   0.925 -0.11 -0.00    +0.000 C 
DOCKED: BRANCH  18  19
DOCKED: ATOM     19  C   UNL     1      30.116 -13.060   0.778 -0.06 -0.00    +0.000 C 
DOCKED: BRANCH  19  20
DOCKED: ATOM     20  C   UNL     1      29.073 -12.822   1.834 -0.11 -0.00    +0.000 A 
DOCKED: ATOM     21  C   UNL     1      27.887 -12.098   1.707 -0.17 -0.00    +0.000 A 
DOCKED: ATOM     22  N   UNL     1      27.230 -12.044   2.889 -0.29 +0.00    +0.000 N 
DOCKED: ATOM     23  C   UNL     1      28.001 -12.707   3.768 -0.30 -0.00    +0.000 A 
DOCKED: ATOM     24  C   UNL     1      29.135 -13.189   3.165 -0.19 -0.00    +0.000 A 
DOCKED: ATOM     25  C   UNL     1      30.103 -13.895   3.881 -0.24 -0.00    +0.000 A 
DOCKED: ATOM     26  C   UNL     1      29.879 -14.109   5.253 -0.30 -0.00    +0.000 A 
DOCKED: ATOM     27  C   UNL     1      28.710 -13.617   5.872 -0.38 -0.00    +0.000 A 
DOCKED: ATOM     28  C   UNL     1      27.753 -12.903   5.126 -0.42 -0.00    +0.000 A 
DOCKED: ATOM     29  C   UNL     1      27.376 -11.474   0.446 -0.18 -0.00    +0.000 C 
DOCKED: ATOM     30  H   UNL     1      26.365 -11.607   3.068 -0.02 +0.00    +0.000 HD
DOCKED: ENDBRANCH  19  20
DOCKED: ENDBRANCH  18  19
DOCKED: ENDBRANCH   1  18
DOCKED: TORSDOF 7
DOCKED: TER
DOCKED: ENDMDL
________________________________________________________________________________


	BEGINNING GENETIC ALGORITHM DOCKING 100 of 100
Run: 100 Seed: 267950038 1609115923 [ Run 100 of 100 GA/GALS ]
Beginning LAMARCKIAN GENETIC ALGORITHM (LGA), with a maximum of 2500000 energy evaluations.

Final-Value: -16.105


	FINAL GENETIC ALGORITHM DOCKED STATE
	_______________________________________________


Detailed state:  trans 28.774 -15.440 0.695 quatxyzw -0.072640 0.254499 0.905450 0.331833 center 0.578 -0.033 0.130 ntor 7 107.3781 -156.1760 -173.6861 -152.3025 162.5306 85.3185 27.8501
State:	 28.774 -15.440   0.695  -0.077  0.270  0.960 141.240    107.38 -156.18 -173.69 -152.30  162.53   85.32   27.85

DOCKED: MODEL      100
DOCKED: USER    Run = 100
DOCKED: USER    DPF = ligand_dock.biased.dpf
DOCKED: USER  
DOCKED: USER    Estimated Free Energy of Binding    =  -12.70 kcal/mol  [=(1)+(2)+(3)-(4)]
DOCKED: USER    Estimated Inhibition Constant, Ki   =  488.13 pM (picomolar)  [Temperature = 298.15 K]
DOCKED: USER    
DOCKED: USER    (1) Final Intermolecular Energy     =  -14.79 kcal/mol
DOCKED: USER        vdW + Hbond + desolv Energy     =  -14.79 kcal/mol
DOCKED: USER        Electrostatic Energy            =   +0.00 kcal/mol
DOCKED: USER    (2) Final Total Internal Energy     =   -1.31 kcal/mol
DOCKED: USER    (3) Torsional Free Energy           =   +2.09 kcal/mol
DOCKED: USER    (4) Unbound System's Energy  [=(2)] =   -1.31 kcal/mol
DOCKED: USER    
DOCKED: USER    
DOCKED: USER    NEWDPF move ligand.pdbqt
DOCKED: USER    NEWDPF about 0.578000 -0.033000 0.130000
DOCKED: USER    NEWDPF tran0 28.774071 -15.440492 0.694845
DOCKED: USER    NEWDPF quaternion0 -0.072640 0.254499 0.905450 0.331833
DOCKED: USER    NEWDPF axisangle0 -0.077003 0.269786 0.959836 141.239864
DOCKED: USER    NEWDPF quat0 -0.077003 0.269786 0.959836 141.239864
DOCKED: USER    NEWDPF dihe0 107.38 -156.18 -173.69 -152.30 162.53 85.32 27.85 
DOCKED: USER  keepresnum = 1 
DOCKED: USER  
DOCKED: REMARK  Name = 
DOCKED: REMARK  8 active torsions:
DOCKED: REMARK  status: ('A' for Active; 'I' for Inactive)
DOCKED: REMARK    1  A    between atoms: C_2  and  C_3
DOCKED: REMARK    2  A    between atoms: C_4  and  C_5
DOCKED: REMARK    3  A    between atoms: C_8  and  C_9
DOCKED: REMARK    4  A    between atoms: C_9  and  N_10
DOCKED: REMARK    5  A    between atoms: N_10  and  C_11
DOCKED: REMARK    6  A    between atoms: C_11  and  C_12
DOCKED: REMARK    7  A    between atoms: C_12  and  C_13
DOCKED: REMARK    8  A    between atoms: C_14  and  C_22
DOCKED: REMARK                            x       y       z     vdW  Elec       q    Type
DOCKED: REMARK                         _______ _______ _______ _____ _____    ______ ____
DOCKED: USER                              x       y       z     vdW  Elec       q    Type
DOCKED: USER                           _______ _______ _______ _____ _____    ______ ____
DOCKED: ROOT
DOCKED: ATOM      1  N   UNL     1      29.268 -14.921   0.999 -0.15 -0.00    +0.000 N 
DOCKED: ATOM      2  H   UNL     1      29.045 -15.388   1.878 -1.55 -0.00    +0.000 HD
DOCKED: ATOM      3  H   UNL     1      28.623 -14.155   0.809 -0.06 -0.00    +0.000 HD
DOCKED: ENDROOT
DOCKED: BRANCH   1   4
DOCKED: ATOM      4  C   UNL     1      29.143 -15.894  -0.095 -0.19 -0.00    +0.000 C 
DOCKED: BRANCH   4   8
DOCKED: ATOM      5  C   UNL     1      24.976 -16.710  -0.918 -0.53 -0.00    +0.000 A 
DOCKED: ATOM      6  C   UNL     1      25.565 -15.498  -1.332 -0.39 -0.00    +0.000 A 
DOCKED: ATOM      7  C   UNL     1      26.909 -15.232  -1.054 -0.30 -0.00    +0.000 A 
DOCKED: ATOM      8  C   UNL     1      27.688 -16.166  -0.356 -0.31 -0.00    +0.000 A 
DOCKED: ATOM      9  C   UNL     1      27.115 -17.387   0.029 -0.36 -0.00    +0.000 A 
DOCKED: ATOM     10  C   UNL     1      25.772 -17.655  -0.250 -0.55 -0.00    +0.000 A 
DOCKED: BRANCH   5  12
DOCKED: ATOM     11  C   UNL     1      22.974 -18.190  -0.805 -0.82 -0.00    +0.000 C 
DOCKED: ATOM     12  C   UNL     1      23.559 -17.049  -1.201 -0.61 -0.00    +0.000 C 
DOCKED: BRANCH  11  14
DOCKED: ATOM     13  O   UNL     1      20.672 -17.712  -0.715 -2.23 +0.00    +0.000 OA
DOCKED: ATOM     14  C   UNL     1      21.563 -18.520  -1.089 -0.76 -0.00    +0.000 C 
DOCKED: ATOM     15  N   UNL     1      21.175 -19.733  -1.746 -0.60 -0.00    +0.000 N 
DOCKED: ATOM     16  O   UNL     1      19.879 -19.940  -2.079 -2.22 -0.00    +0.000 OA
DOCKED: ATOM     17  H   UNL     1      21.852 -20.417  -1.955 -0.45 -0.00    +0.000 HD
DOCKED: ENDBRANCH  11  14
DOCKED: ENDBRANCH   5  12
DOCKED: ENDBRANCH   4   8
DOCKED: ENDBRANCH   1   4
DOCKED: BRANCH   1  18
DOCKED: ATOM     18  C   UNL     1      30.623 -14.357   1.093 -0.11 -0.00    +0.000 C 
DOCKED: BRANCH  18  19
DOCKED: ATOM     19  C   UNL     1      30.649 -13.010   1.832 -0.07 -0.00    +0.000 C 
DOCKED: BRANCH  19  20
DOCKED: ATOM     20  C   UNL     1      29.455 -12.887   2.737 -0.13 -0.00    +0.000 A 
DOCKED: ATOM     21  C   UNL     1      28.167 -12.480   2.390 -0.19 -0.00    +0.000 A 
DOCKED: ATOM     22  N   UNL     1      27.370 -12.429   3.483 -0.32 +0.00    +0.000 N 
DOCKED: ATOM     23  C   UNL     1      28.149 -12.778   4.521 -0.36 -0.00    +0.000 A 
DOCKED: ATOM     24  C   UNL     1      29.427 -13.058   4.108 -0.21 -0.00    +0.000 A 
DOCKED: ATOM     25  C   UNL     1      30.426 -13.423   5.011 -0.23 -0.00    +0.000 A 
DOCKED: ATOM     26  C   UNL     1      30.083 -13.507   6.372 -0.27 -0.00    +0.000 A 
DOCKED: ATOM     27  C   UNL     1      28.767 -13.224   6.797 -0.32 -0.00    +0.000 A 
DOCKED: ATOM     28  C   UNL     1      27.781 -12.852   5.864 -0.33 +0.00    +0.000 A 
DOCKED: ATOM     29  C   UNL     1      27.695 -12.157   1.007 -0.19 -0.00    +0.000 C 
DOCKED: ATOM     30  H   UNL     1      26.416 -12.186   3.511 +0.03 +0.00    +0.000 HD
DOCKED: ENDBRANCH  19  20
DOCKED: ENDBRANCH  18  19
DOCKED: ENDBRANCH   1  18
DOCKED: TORSDOF 7
DOCKED: TER
DOCKED: ENDMDL
________________________________________________________________________________

DPF>                           # do this many hybrid GA-LS runs

DPF> analysis                             # perform a ranked cluster analysis


		CLUSTER ANALYSIS OF CONFORMATIONS
		_________________________________

Number of conformations = 100

RMSD cluster analysis will be performed using the ligand atoms only (30 / 30 total atoms).

Outputting structurally similar clusters, ranked in order of increasing energy.


________________________________________________________________________________

Number of distinct conformational clusters found = 11,  out of 100 runs,
Using an rmsd-tolerance of 2.0 A


	CLUSTERING HISTOGRAM
	____________________

________________________________________________________________________________
     |           |     |           |     |                                    
Clus | Lowest    | Run | Mean      | Num | Histogram                          
-ter | Binding   |     | Binding   | in  |                                    
Rank | Energy    |     | Energy    | Clus|    5    10   15   20   25   30   35
_____|___________|_____|___________|_____|____:____|____:____|____:____|____:___
   1 |    -14.07 |  47 |    -12.29 |  26 |##########################
   2 |    -13.57 |  89 |    -12.11 |  25 |#########################
   3 |    -12.24 |  65 |    -11.83 |   3 |###
   4 |    -12.19 |  41 |    -11.66 |  16 |################
   5 |    -12.15 |  95 |    -11.82 |   7 |#######
   6 |    -12.12 |  17 |    -11.60 |   2 |##
   7 |    -12.12 |  80 |    -11.18 |  11 |###########
   8 |    -11.86 |  18 |    -11.34 |   4 |####
   9 |    -11.65 |  77 |    -11.25 |   3 |###
  10 |    -11.52 |   8 |    -11.30 |   2 |##
  11 |    -11.13 |  86 |    -11.13 |   1 |#
_____|___________|_____|___________|_____|______________________________________


Number of multi-member conformational clusters found = 10, out of 100 runs.

	RMSD TABLE
	__________

_____________________________________________________________________
     |      |      |           |         |                 |
Rank | Sub- | Run  | Binding   | Cluster | Reference       | Grep
     | Rank |      | Energy    | RMSD    | RMSD            | Pattern
_____|______|______|___________|_________|_________________|___________
   1      1     47      -14.07      0.00     25.26           RANKING
   1      2     55      -12.96      1.97     24.65           RANKING
   1      3     97      -12.87      1.48     25.78           RANKING
   1      4    100      -12.70      1.37     25.30           RANKING
   1      5     34      -12.70      1.52     25.19           RANKING
   1      6     74      -12.69      1.52     25.43           RANKING
   1      7     45      -12.56      1.87     26.10           RANKING
   1      8     27      -12.47      1.99     25.34           RANKING
   1      9     60      -12.46      1.76     25.39           RANKING
   1     10     16      -12.46      1.32     25.39           RANKING
   1     11     32      -12.42      1.14     25.29           RANKING
   1     12     20      -12.33      1.84     26.04           RANKING
   1     13     73      -12.32      1.79     25.39           RANKING
   1     14     68      -12.31      1.91     25.23           RANKING
   1     15     99      -12.28      1.58     25.30           RANKING
   1     16     78      -12.28      1.44     25.34           RANKING
   1     17     51      -12.12      1.74     25.74           RANKING
   1     18     85      -12.11      1.36     25.19           RANKING
   1     19     24      -12.09      1.86     25.26           RANKING
   1     20     33      -12.03      1.80     25.24           RANKING
   1     21     40      -11.97      1.82     25.73           RANKING
   1     22     35      -11.79      1.87     25.95           RANKING
   1     23     92      -11.51      1.94     24.96           RANKING
   1     24     36      -11.48      1.87     24.85           RANKING
   1     25     21      -11.36      1.96     25.65           RANKING
   1     26     57      -11.23      1.98     25.75           RANKING
   2      1     89      -13.57      0.00     24.54           RANKING
   2      2     46      -13.06      0.57     24.59           RANKING
   2      3     58      -12.81      0.51     24.67           RANKING
   2      4      1      -12.64      0.78     24.76           RANKING
   2      5     63      -12.61      1.27     24.37           RANKING
   2      6      4      -12.54      1.99     24.89           RANKING
   2      7     69      -12.40      0.95     24.51           RANKING
   2      8      5      -12.32      0.69     24.60           RANKING
   2      9     87      -12.31      1.13     25.11           RANKING
   2     10     50      -12.22      1.61     24.73           RANKING
   2     11     13      -12.16      1.14     24.66           RANKING
   2     12     96      -12.05      1.44     25.09           RANKING
   2     13     15      -12.01      1.97     24.87           RANKING
   2     14     49      -11.99      1.87     25.84           RANKING
   2     15     54      -11.99      1.12     25.03           RANKING
   2     16     11      -11.93      1.21     25.17           RANKING
   2     17     70      -11.90      1.78     25.00           RANKING
   2     18     53      -11.81      1.74     25.65           RANKING
   2     19     91      -11.77      1.59     24.71           RANKING
   2     20      6      -11.68      1.60     24.72           RANKING
   2     21     59      -11.52      1.51     25.08           RANKING
   2     22     56      -11.51      1.41     24.75           RANKING
   2     23     79      -11.45      1.77     25.42           RANKING
   2     24     26      -11.32      1.62     25.22           RANKING
   2     25     84      -11.10      1.75     25.36           RANKING
   3      1     65      -12.24      0.00     24.23           RANKING
   3      2     72      -11.78      1.65     24.81           RANKING
   3      3      2      -11.46      1.69     25.28           RANKING
   4      1     41      -12.19      0.00     26.08           RANKING
   4      2     48      -12.17      1.08     26.59           RANKING
   4      3     83      -12.14      1.95     26.22           RANKING
   4      4     67      -12.12      1.47     27.03           RANKING
   4      5     64      -11.97      1.81     25.96           RANKING
   4      6     82      -11.93      1.65     25.73           RANKING
   4      7     75      -11.79      1.24     25.52           RANKING
   4      8     66      -11.62      1.66     27.26           RANKING
   4      9     29      -11.50      0.58     26.11           RANKING
   4     10     19      -11.49      1.74     27.13           RANKING
   4     11     44      -11.43      1.76     26.02           RANKING
   4     12      7      -11.38      1.55     25.24           RANKING
   4     13      3      -11.37      1.98     25.30           RANKING
   4     14     88      -11.36      1.67     25.48           RANKING
   4     15     25      -11.30      1.72     27.27           RANKING
   4     16     93      -10.88      1.97     25.71           RANKING
   5      1     95      -12.15      0.00     26.00           RANKING
   5      2     28      -12.10      1.53     25.24           RANKING
   5      3     12      -11.97      0.85     25.80           RANKING
   5      4     14      -11.94      1.66     25.82           RANKING
   5      5     90      -11.82      1.54     25.55           RANKING
   5      6     23      -11.68      1.71     25.70           RANKING
   5      7     31      -11.04      1.36     25.75           RANKING
   6      1     17      -12.12      0.00     28.15           RANKING
   6      2     22      -11.07      2.00     27.63           RANKING
   7      1     80      -12.12      0.00     24.43           RANKING
   7      2     39      -11.66      1.84     25.74           RANKING
   7      3      9      -11.63      1.82     25.69           RANKING
   7      4     98      -11.34      1.80     25.74           RANKING
   7      5     10      -11.22      1.85     25.92           RANKING
   7      6     30      -11.15      1.80     25.82           RANKING
   7      7     61      -10.97      1.83     25.91           RANKING
   7      8     37      -10.89      1.77     25.57           RANKING
   7      9     94      -10.78      1.91     25.83           RANKING
   7     10     81      -10.62      1.82     25.62           RANKING
   7     11     71      -10.59      1.56     24.70           RANKING
   8      1     18      -11.86      0.00     26.64           RANKING
   8      2     42      -11.42      1.08     26.25           RANKING
   8      3     52      -11.10      1.68     25.62           RANKING
   8      4     76      -10.99      1.53     26.15           RANKING
   9      1     77      -11.65      0.00     27.76           RANKING
   9      2     38      -11.21      1.08     27.56           RANKING
   9      3     43      -10.89      1.60     26.84           RANKING
  10      1      8      -11.52      0.00     25.80           RANKING
  10      2     62      -11.08      1.45     25.07           RANKING
  11      1     86      -11.13      0.00     28.88           RANKING
_______________________________________________________________________



	INFORMATION ENTROPY ANALYSIS FOR THIS CLUSTERING
	________________________________________________


Information entropy for this clustering = 0.43  (rmstol = 2.00 Angstrom)

_______________________________________________________________________


	STATISTICAL MECHANICAL ANALYSIS
	_______________________________


Partition function, Q =   102.02            at Temperature, T = 298.15 K
Free energy,        A ~ -2740.34 kcal/mol   at Temperature, T = 298.15 K
Internal energy,    U =   -11.86 kcal/mol   at Temperature, T = 298.15 K
Entropy,            S =     9.15 kcal/mol/K at Temperature, T = 298.15 K

_______________________________________________________________________


	LOWEST ENERGY DOCKED CONFORMATION from EACH CLUSTER
	___________________________________________________



Keeping original residue number (specified in the input PDBQ file) for outputting.

MODEL       47
USER    Run = 47
USER    Cluster Rank = 1
USER    Number of conformations in this cluster = 26
USER  
USER    RMSD from reference structure       = 25.257 A
USER  
USER    Estimated Free Energy of Binding    =  -14.07 kcal/mol  [=(1)+(2)+(3)-(4)]
USER    Estimated Inhibition Constant, Ki   =   48.46 pM (picomolar)  [Temperature = 298.15 K]
USER    
USER    (1) Final Intermolecular Energy     =  -16.16 kcal/mol
USER        vdW + Hbond + desolv Energy     =  -16.16 kcal/mol
USER        Electrostatic Energy            =   +0.00 kcal/mol
USER    (2) Final Total Internal Energy     =   -1.07 kcal/mol
USER    (3) Torsional Free Energy           =   +2.09 kcal/mol
USER    (4) Unbound System's Energy  [=(2)] =   -1.07 kcal/mol
USER    
USER    
USER  
USER    DPF = ligand_dock.biased.dpf
USER    NEWDPF move	ligand.pdbqt
USER    NEWDPF about	0.578000 -0.033000 0.130000
USER    NEWDPF tran0	28.559656 -15.414968 1.207598
USER    NEWDPF axisangle0	-0.149562 -0.084753 0.985113 95.815861
USER    NEWDPF quaternion0	-0.110986 -0.062893 0.731022 0.670324
USER    NEWDPF dihe0	19.22 -84.08 -158.71 -82.90 -154.10 54.32 57.70 
USER  
USER                              x       y       z    vdW   Elec        q     RMS 
ATOM      1  N   UNL     1      28.683 -14.826   1.702 -0.12 -0.00    +0.000    25.257
ATOM      2  H   UNL     1      29.217 -15.522   2.224 -1.81 -0.00    +0.000    25.257
ATOM      3  H   UNL     1      27.703 -14.820   1.983 -0.35 -0.00    +0.000    25.257
ATOM      4  C   UNL     1      28.738 -15.166   0.274 -0.21 -0.00    +0.000    25.257
ATOM      5  C   UNL     1      25.021 -16.986  -0.982 -0.57 -0.00    +0.000    25.257
ATOM      6  C   UNL     1      25.457 -15.776  -1.558 -0.44 -0.00    +0.000    25.257
ATOM      7  C   UNL     1      26.654 -15.183  -1.142 -0.31 -0.00    +0.000    25.257
ATOM      8  C   UNL     1      27.433 -15.784  -0.142 -0.31 -0.00    +0.000    25.257
ATOM      9  C   UNL     1      27.019 -17.005   0.410 -0.18 -0.00    +0.000    25.257
ATOM     10  C   UNL     1      25.824 -17.599  -0.006 -0.47 -0.00    +0.000    25.257
ATOM     11  C   UNL     1      22.656 -17.698  -0.647 -0.79 -0.00    +0.000    25.257
ATOM     12  C   UNL     1      23.768 -17.664  -1.398 -0.72 -0.00    +0.000    25.257
ATOM     13  O   UNL     1      20.310 -17.854  -0.747 -2.21 +0.00    +0.000    25.257
ATOM     14  C   UNL     1      21.412 -18.374  -1.068 -0.73 -0.00    +0.000    25.257
ATOM     15  N   UNL     1      21.417 -19.607  -1.799 -0.50 -0.00    +0.000    25.257
ATOM     16  O   UNL     1      20.255 -20.131  -2.254 -2.17 -0.00    +0.000    25.257
ATOM     17  H   UNL     1      22.268 -20.072  -1.971 -0.50 -0.00    +0.000    25.257
ATOM     18  C   UNL     1      29.240 -13.494   1.982 -0.17 -0.00    +0.000    25.257
ATOM     19  C   UNL     1      28.273 -12.610   2.785 -0.24 -0.00    +0.000    25.257
ATOM     20  C   UNL     1      28.544 -12.741   4.257 -0.28 -0.00    +0.000    25.257
ATOM     21  C   UNL     1      28.335 -13.862   5.061 -0.47 -0.00    +0.000    25.257
ATOM     22  N   UNL     1      28.634 -13.588   6.353 -0.41 -0.00    +0.000    25.257
ATOM     23  C   UNL     1      29.007 -12.298   6.377 -0.32 -0.00    +0.000    25.257
ATOM     24  C   UNL     1      28.959 -11.746   5.121 -0.23 -0.00    +0.000    25.257
ATOM     25  C   UNL     1      29.282 -10.407   4.895 -0.15 +0.00    +0.000    25.257
ATOM     26  C   UNL     1      29.672  -9.630   6.001 -0.15 +0.00    +0.000    25.257
ATOM     27  C   UNL     1      29.726 -10.198   7.292 -0.21 +0.00    +0.000    25.257
ATOM     28  C   UNL     1      29.389 -11.551   7.490 -0.29 -0.00    +0.000    25.257
ATOM     29  C   UNL     1      27.866 -15.202   4.587 -0.50 -0.00    +0.000    25.257
ATOM     30  H   UNL     1      28.585 -14.207   7.117 -0.35 -0.00    +0.000    25.257
TER
ENDMDL
MODEL       89
USER    Run = 89
USER    Cluster Rank = 2
USER    Number of conformations in this cluster = 25
USER  
USER    RMSD from reference structure       = 24.540 A
USER  
USER    Estimated Free Energy of Binding    =  -13.57 kcal/mol  [=(1)+(2)+(3)-(4)]
USER    Estimated Inhibition Constant, Ki   =  112.79 pM (picomolar)  [Temperature = 298.15 K]
USER    
USER    (1) Final Intermolecular Energy     =  -15.66 kcal/mol
USER        vdW + Hbond + desolv Energy     =  -15.66 kcal/mol
USER        Electrostatic Energy            =   +0.00 kcal/mol
USER    (2) Final Total Internal Energy     =   -1.21 kcal/mol
USER    (3) Torsional Free Energy           =   +2.09 kcal/mol
USER    (4) Unbound System's Energy  [=(2)] =   -1.21 kcal/mol
USER    
USER    
USER  
USER    DPF = ligand_dock.biased.dpf
USER    NEWDPF move	ligand.pdbqt
USER    NEWDPF about	0.578000 -0.033000 0.130000
USER    NEWDPF tran0	28.186460 -16.218395 0.587307
USER    NEWDPF axisangle0	-0.206425 -0.000094 -0.978462 -70.771767
USER    NEWDPF quaternion0	-0.119537 -0.000054 -0.566608 -0.815270
USER    NEWDPF dihe0	-175.45 60.56 32.41 -76.16 4.92 46.06 95.28 
USER  
USER                              x       y       z    vdW   Elec        q     RMS 
ATOM      1  N   UNL     1      28.069 -15.476   0.791 -0.21 -0.00    +0.000    24.540
ATOM      2  H   UNL     1      28.911 -15.611   1.351 -1.05 -0.00    +0.000    24.540
ATOM      3  H   UNL     1      27.230 -15.724   1.315 -0.19 -0.00    +0.000    24.540
ATOM      4  C   UNL     1      28.139 -16.353  -0.385 -0.33 -0.00    +0.000    24.540
ATOM      5  C   UNL     1      24.185 -17.937  -1.139 -0.68 -0.00    +0.000    24.540
ATOM      6  C   UNL     1      25.025 -18.533  -0.176 -0.50 -0.00    +0.000    24.540
ATOM      7  C   UNL     1      26.307 -18.026   0.058 -0.55 -0.00    +0.000    24.540
ATOM      8  C   UNL     1      26.776 -16.920  -0.667 -0.46 -0.00    +0.000    24.540
ATOM      9  C   UNL     1      25.932 -16.305  -1.602 -0.47 -0.00    +0.000    24.540
ATOM     10  C   UNL     1      24.649 -16.809  -1.835 -0.54 -0.00    +0.000    24.540
ATOM     11  C   UNL     1      21.980 -18.882  -0.465 -0.83 -0.00    +0.000    24.540
ATOM     12  C   UNL     1      22.811 -18.425  -1.415 -0.71 -0.00    +0.000    24.540
ATOM     13  O   UNL     1      20.338 -19.734  -1.920 -2.30 -0.00    +0.000    24.540
ATOM     14  C   UNL     1      20.613 -19.365  -0.747 -0.90 -0.00    +0.000    24.540
ATOM     15  N   UNL     1      19.589 -19.402   0.255 -0.73 -0.00    +0.000    24.540
ATOM     16  O   UNL     1      18.385 -19.952  -0.025 -0.90 -0.00    +0.000    24.540
ATOM     17  H   UNL     1      19.763 -19.026   1.148 -0.24 -0.00    +0.000    24.540
ATOM     18  C   UNL     1      27.967 -14.055   0.425 -0.23 -0.00    +0.000    24.540
ATOM     19  C   UNL     1      26.673 -13.407   0.941 -0.32 -0.00    +0.000    24.540
ATOM     20  C   UNL     1      26.943 -12.632   2.200 -0.29 -0.00    +0.000    24.540
ATOM     21  C   UNL     1      26.690 -11.280   2.434 -0.28 +0.00    +0.000    24.540
ATOM     22  N   UNL     1      27.126 -10.916   3.663 -0.30 +0.00    +0.000    24.540
ATOM     23  C   UNL     1      27.672 -12.020   4.199 -0.26 +0.00    +0.000    24.540
ATOM     24  C   UNL     1      27.586 -13.084   3.336 -0.33 -0.00    +0.000    24.540
ATOM     25  C   UNL     1      28.106 -14.337   3.663 -0.43 -0.00    +0.000    24.540
ATOM     26  C   UNL     1      28.721 -14.487   4.919 -0.45 -0.00    +0.000    24.540
ATOM     27  C   UNL     1      28.805 -13.394   5.809 -0.40 -0.00    +0.000    24.540
ATOM     28  C   UNL     1      28.277 -12.139   5.450 -0.36 +0.00    +0.000    24.540
ATOM     29  C   UNL     1      26.015 -10.340   1.484 -0.39 +0.00    +0.000    24.540
ATOM     30  H   UNL     1      27.057 -10.025   4.078 -0.04 +0.00    +0.000    24.540
TER
ENDMDL
MODEL       65
USER    Run = 65
USER    Cluster Rank = 3
USER    Number of conformations in this cluster = 3
USER  
USER    RMSD from reference structure       = 24.226 A
USER  
USER    Estimated Free Energy of Binding    =  -12.24 kcal/mol  [=(1)+(2)+(3)-(4)]
USER    Estimated Inhibition Constant, Ki   =    1.06 nM (nanomolar)  [Temperature = 298.15 K]
USER    
USER    (1) Final Intermolecular Energy     =  -14.33 kcal/mol
USER        vdW + Hbond + desolv Energy     =  -14.33 kcal/mol
USER        Electrostatic Energy            =   +0.00 kcal/mol
USER    (2) Final Total Internal Energy     =   -1.39 kcal/mol
USER    (3) Torsional Free Energy           =   +2.09 kcal/mol
USER    (4) Unbound System's Energy  [=(2)] =   -1.39 kcal/mol
USER    
USER    
USER  
USER    DPF = ligand_dock.biased.dpf
USER    NEWDPF move	ligand.pdbqt
USER    NEWDPF about	0.578000 -0.033000 0.130000
USER    NEWDPF tran0	29.289079 -14.850310 0.927430
USER    NEWDPF axisangle0	0.444655 -0.850163 -0.281967 34.721949
USER    NEWDPF quaternion0	0.132681 -0.253681 -0.084136 0.954444
USER    NEWDPF dihe0	57.58 129.23 -179.92 -111.27 5.87 153.78 160.41 
USER  
USER                              x       y       z    vdW   Elec        q     RMS 
ATOM      1  N   UNL     1      28.818 -14.728   1.535 -0.16 -0.00    +0.000    24.226
ATOM      2  H   UNL     1      29.398 -13.900   1.677 -0.22 -0.00    +0.000    24.226
ATOM      3  H   UNL     1      29.197 -15.537   2.027 -1.66 -0.00    +0.000    24.226
ATOM      4  C   UNL     1      28.794 -15.046   0.101 -0.21 -0.00    +0.000    24.226
ATOM      5  C   UNL     1      25.120 -17.157  -0.763 -0.57 -0.00    +0.000    24.226
ATOM      6  C   UNL     1      26.230 -17.840  -0.227 -0.56 -0.00    +0.000    24.226
ATOM      7  C   UNL     1      27.421 -17.157   0.041 -0.28 -0.00    +0.000    24.226
ATOM      8  C   UNL     1      27.526 -15.784  -0.225 -0.30 -0.00    +0.000    24.226
ATOM      9  C   UNL     1      26.414 -15.095  -0.728 -0.32 -0.00    +0.000    24.226
ATOM     10  C   UNL     1      25.223 -15.776  -0.994 -0.34 -0.00    +0.000    24.226
ATOM     11  C   UNL     1      22.725 -17.673  -0.303 -0.76 -0.00    +0.000    24.226
ATOM     12  C   UNL     1      23.829 -17.830  -1.050 -0.77 -0.00    +0.000    24.226
ATOM     13  O   UNL     1      20.505 -17.660  -1.083 -2.13 -0.00    +0.000    24.226
ATOM     14  C   UNL     1      21.443 -18.345  -0.596 -0.81 -0.00    +0.000    24.226
ATOM     15  N   UNL     1      21.224 -19.734  -0.320 -0.72 -0.00    +0.000    24.226
ATOM     16  O   UNL     1      20.070 -20.328  -0.705 -1.53 -0.00    +0.000    24.226
ATOM     17  H   UNL     1      21.914 -20.256   0.149 -0.55 -0.00    +0.000    24.226
ATOM     18  C   UNL     1      27.475 -14.463   2.072 -0.14 -0.00    +0.000    24.226
ATOM     19  C   UNL     1      27.429 -13.196   2.941 -0.37 -0.00    +0.000    24.226
ATOM     20  C   UNL     1      27.732 -11.981   2.111 -0.20 -0.00    +0.000    24.226
ATOM     21  C   UNL     1      28.983 -11.419   1.856 -0.07 -0.00    +0.000    24.226
ATOM     22  N   UNL     1      28.861 -10.290   1.120 -0.05 +0.00    +0.000    24.226
ATOM     23  C   UNL     1      27.541 -10.120   0.926 -0.15 +0.00    +0.000    24.226
ATOM     24  C   UNL     1      26.821 -11.126   1.521 -0.27 +0.00    +0.000    24.226
ATOM     25  C   UNL     1      25.427 -11.154   1.476 -0.35 +0.00    +0.000    24.226
ATOM     26  C   UNL     1      24.770 -10.117   0.789 -0.28 +0.00    +0.000    24.226
ATOM     27  C   UNL     1      25.511  -9.085   0.173 -0.29 +0.00    +0.000    24.226
ATOM     28  C   UNL     1      26.917  -9.079   0.240 -0.18 +0.00    +0.000    24.226
ATOM     29  C   UNL     1      30.298 -11.975   2.304 -0.05 -0.00    +0.000    24.226
ATOM     30  H   UNL     1      29.588  -9.711   0.794 +0.00 +0.00    +0.000    24.226
TER
ENDMDL
MODEL       41
USER    Run = 41
USER    Cluster Rank = 4
USER    Number of conformations in this cluster = 16
USER  
USER    RMSD from reference structure       = 26.085 A
USER  
USER    Estimated Free Energy of Binding    =  -12.19 kcal/mol  [=(1)+(2)+(3)-(4)]
USER    Estimated Inhibition Constant, Ki   =    1.16 nM (nanomolar)  [Temperature = 298.15 K]
USER    
USER    (1) Final Intermolecular Energy     =  -14.28 kcal/mol
USER        vdW + Hbond + desolv Energy     =  -14.28 kcal/mol
USER        Electrostatic Energy            =   +0.00 kcal/mol
USER    (2) Final Total Internal Energy     =   -0.94 kcal/mol
USER    (3) Torsional Free Energy           =   +2.09 kcal/mol
USER    (4) Unbound System's Energy  [=(2)] =   -0.94 kcal/mol
USER    
USER    
USER  
USER    DPF = ligand_dock.biased.dpf
USER    NEWDPF move	ligand.pdbqt
USER    NEWDPF about	0.578000 -0.033000 0.130000
USER    NEWDPF tran0	28.038904 -14.989550 -1.298504
USER    NEWDPF axisangle0	0.809547 0.390769 0.438102 106.898782
USER    NEWDPF quaternion0	0.650334 0.313917 0.351941 0.595533
USER    NEWDPF dihe0	-4.16 64.36 52.23 -52.19 88.05 148.76 118.57 
USER  
USER                              x       y       z    vdW   Elec        q     RMS 
ATOM      1  N   UNL     1      27.757 -14.665  -1.948 -0.18 -0.00    +0.000    26.085
ATOM      2  H   UNL     1      28.606 -14.101  -1.903 +0.01 -0.00    +0.000    26.085
ATOM      3  H   UNL     1      26.993 -14.230  -1.432 +0.00 -0.00    +0.000    26.085
ATOM      4  C   UNL     1      28.027 -15.971  -1.332 -0.31 -0.00    +0.000    26.085
ATOM      5  C   UNL     1      24.285 -18.000  -0.567 -0.68 -0.00    +0.000    26.085
ATOM      6  C   UNL     1      24.299 -16.722  -1.162 -0.54 -0.00    +0.000    26.085
ATOM      7  C   UNL     1      25.510 -16.063  -1.398 -0.48 -0.00    +0.000    26.085
ATOM      8  C   UNL     1      26.726 -16.665  -1.041 -0.43 -0.00    +0.000    26.085
ATOM      9  C   UNL     1      26.718 -17.949  -0.478 -0.50 -0.00    +0.000    26.085
ATOM     10  C   UNL     1      25.508 -18.609  -0.244 -0.51 -0.00    +0.000    26.085
ATOM     11  C   UNL     1      22.004 -18.800  -1.173 -0.77 -0.00    +0.000    26.085
ATOM     12  C   UNL     1      23.029 -18.748  -0.309 -0.78 -0.00    +0.000    26.085
ATOM     13  O   UNL     1      19.959 -19.736  -1.867 -2.39 -0.00    +0.000    26.085
ATOM     14  C   UNL     1      20.758 -19.548  -0.910 -0.85 -0.00    +0.000    26.085
ATOM     15  N   UNL     1      20.416 -20.038   0.392 -0.70 -0.00    +0.000    26.085
ATOM     16  O   UNL     1      19.316 -20.809   0.560 -0.89 -0.00    +0.000    26.085
ATOM     17  H   UNL     1      20.983 -19.814   1.165 -0.48 -0.00    +0.000    26.085
ATOM     18  C   UNL     1      27.341 -14.784  -3.354 -0.32 -0.00    +0.000    26.085
ATOM     19  C   UNL     1      27.992 -13.721  -4.251 -0.22 -0.00    +0.000    26.085
ATOM     20  C   UNL     1      28.740 -14.375  -5.379 -0.26 -0.00    +0.000    26.085
ATOM     21  C   UNL     1      28.846 -13.929  -6.697 -0.30 -0.00    +0.000    26.085
ATOM     22  N   UNL     1      29.546 -14.812  -7.447 -0.30 -0.00    +0.000    26.085
ATOM     23  C   UNL     1      29.863 -15.823  -6.621 -0.29 -0.00    +0.000    26.085
ATOM     24  C   UNL     1      29.384 -15.597  -5.355 -0.29 -0.00    +0.000    26.085
ATOM     25  C   UNL     1      29.569 -16.520  -4.324 -0.24 -0.00    +0.000    26.085
ATOM     26  C   UNL     1      30.277 -17.699  -4.618 -0.25 -0.00    +0.000    26.085
ATOM     27  C   UNL     1      30.774 -17.930  -5.919 -0.29 -0.00    +0.000    26.085
ATOM     28  C   UNL     1      30.567 -16.984  -6.940 -0.29 -0.00    +0.000    26.085
ATOM     29  C   UNL     1      28.291 -12.646  -7.232 -0.23 -0.00    +0.000    26.085
ATOM     30  H   UNL     1      29.775 -14.730  -8.401 -0.51 -0.00    +0.000    26.085
TER
ENDMDL
MODEL       95
USER    Run = 95
USER    Cluster Rank = 5
USER    Number of conformations in this cluster = 7
USER  
USER    RMSD from reference structure       = 26.000 A
USER  
USER    Estimated Free Energy of Binding    =  -12.15 kcal/mol  [=(1)+(2)+(3)-(4)]
USER    Estimated Inhibition Constant, Ki   =    1.24 nM (nanomolar)  [Temperature = 298.15 K]
USER    
USER    (1) Final Intermolecular Energy     =  -14.24 kcal/mol
USER        vdW + Hbond + desolv Energy     =  -14.24 kcal/mol
USER        Electrostatic Energy            =   +0.00 kcal/mol
USER    (2) Final Total Internal Energy     =   -1.42 kcal/mol
USER    (3) Torsional Free Energy           =   +2.09 kcal/mol
USER    (4) Unbound System's Energy  [=(2)] =   -1.42 kcal/mol
USER    
USER    
USER  
USER    DPF = ligand_dock.biased.dpf
USER    NEWDPF move	ligand.pdbqt
USER    NEWDPF about	0.578000 -0.033000 0.130000
USER    NEWDPF tran0	28.581761 -16.261558 -0.223127
USER    NEWDPF axisangle0	-0.024114 -0.375983 -0.926313 -150.362538
USER    NEWDPF quaternion0	-0.023312 -0.363478 -0.895503 -0.255762
USER    NEWDPF dihe0	-176.35 165.15 -0.16 -122.85 169.73 106.71 19.15 
USER  
USER                              x       y       z    vdW   Elec        q     RMS 
ATOM      1  N   UNL     1      29.188 -15.794  -0.081 -0.20 -0.00    +0.000    26.000
ATOM      2  H   UNL     1      28.958 -15.975   0.896 -0.73 -0.00    +0.000    26.000
ATOM      3  H   UNL     1      28.682 -14.984  -0.439 -0.00 -0.00    +0.000    26.000
ATOM      4  C   UNL     1      28.791 -16.960  -0.882 -0.31 -0.00    +0.000    26.000
ATOM      5  C   UNL     1      24.495 -17.455  -0.806 -0.64 -0.00    +0.000    26.000
ATOM      6  C   UNL     1      25.096 -16.540  -1.694 -0.54 -0.00    +0.000    26.000
ATOM      7  C   UNL     1      26.484 -16.373  -1.708 -0.42 -0.00    +0.000    26.000
ATOM      8  C   UNL     1      27.297 -17.112  -0.836 -0.42 -0.00    +0.000    26.000
ATOM      9  C   UNL     1      26.706 -18.047   0.027 -0.46 -0.00    +0.000    26.000
ATOM     10  C   UNL     1      25.318 -18.216   0.041 -0.59 -0.00    +0.000    26.000
ATOM     11  C   UNL     1      22.468 -18.885  -0.567 -0.82 -0.00    +0.000    26.000
ATOM     12  C   UNL     1      23.030 -17.681  -0.761 -0.78 -0.00    +0.000    26.000
ATOM     13  O   UNL     1      20.257 -18.235  -1.043 -2.10 -0.00    +0.000    26.000
ATOM     14  C   UNL     1      21.008 -19.103  -0.522 -0.87 -0.00    +0.000    26.000
ATOM     15  N   UNL     1      20.421 -20.245   0.113 -0.70 -0.00    +0.000    26.000
ATOM     16  O   UNL     1      19.086 -20.454   0.035 -1.08 -0.00    +0.000    26.000
ATOM     17  H   UNL     1      20.990 -20.878   0.607 -0.52 -0.00    +0.000    26.000
ATOM     18  C   UNL     1      30.627 -15.508  -0.183 -0.12 -0.00    +0.000    26.000
ATOM     19  C   UNL     1      31.044 -14.286   0.649 -0.08 -0.00    +0.000    26.000
ATOM     20  C   UNL     1      30.577 -14.436   2.069 -0.13 -0.00    +0.000    26.000
ATOM     21  C   UNL     1      31.270 -15.014   3.133 -0.22 -0.00    +0.000    26.000
ATOM     22  N   UNL     1      30.506 -15.030   4.251 -0.32 -0.00    +0.000    26.000
ATOM     23  C   UNL     1      29.328 -14.489   3.897 -0.34 -0.00    +0.000    26.000
ATOM     24  C   UNL     1      29.330 -14.121   2.575 -0.20 -0.00    +0.000    26.000
ATOM     25  C   UNL     1      28.207 -13.554   1.970 -0.22 -0.00    +0.000    26.000
ATOM     26  C   UNL     1      27.061 -13.360   2.762 -0.33 -0.00    +0.000    26.000
ATOM     27  C   UNL     1      27.061 -13.734   4.123 -0.38 -0.00    +0.000    26.000
ATOM     28  C   UNL     1      28.206 -14.309   4.705 -0.52 -0.00    +0.000    26.000
ATOM     29  C   UNL     1      32.672 -15.535   3.082 -0.19 -0.00    +0.000    26.000
ATOM     30  H   UNL     1      30.761 -15.371   5.139 -0.01 -0.00    +0.000    26.000
TER
ENDMDL
MODEL       17
USER    Run = 17
USER    Cluster Rank = 6
USER    Number of conformations in this cluster = 2
USER  
USER    RMSD from reference structure       = 28.154 A
USER  
USER    Estimated Free Energy of Binding    =  -12.12 kcal/mol  [=(1)+(2)+(3)-(4)]
USER    Estimated Inhibition Constant, Ki   =    1.31 nM (nanomolar)  [Temperature = 298.15 K]
USER    
USER    (1) Final Intermolecular Energy     =  -14.21 kcal/mol
USER        vdW + Hbond + desolv Energy     =  -14.21 kcal/mol
USER        Electrostatic Energy            =   +0.00 kcal/mol
USER    (2) Final Total Internal Energy     =   -0.99 kcal/mol
USER    (3) Torsional Free Energy           =   +2.09 kcal/mol
USER    (4) Unbound System's Energy  [=(2)] =   -0.99 kcal/mol
USER    
USER    
USER  
USER    DPF = ligand_dock.biased.dpf
USER    NEWDPF move	ligand.pdbqt
USER    NEWDPF about	0.578000 -0.033000 0.130000
USER    NEWDPF tran0	28.950502 -15.708283 0.456474
USER    NEWDPF axisangle0	-0.026188 -0.325024 0.945343 155.159898
USER    NEWDPF quaternion0	-0.025576 -0.317417 0.923219 0.215077
USER    NEWDPF dihe0	-49.25 174.70 -144.21 85.93 47.19 175.46 -12.99 
USER  
USER                              x       y       z    vdW   Elec        q     RMS 
ATOM      1  N   UNL     1      29.654 -15.705   0.791 +0.08 -0.00    +0.000    28.154
ATOM      2  H   UNL     1      29.514 -16.714   0.842 -0.59 -0.00    +0.000    28.154
ATOM      3  H   UNL     1      29.288 -15.235   1.619 -1.29 -0.00    +0.000    28.154
ATOM      4  C   UNL     1      28.927 -15.187  -0.376 -0.19 -0.00    +0.000    28.154
ATOM      5  C   UNL     1      25.333 -17.530  -0.922 -0.60 -0.00    +0.000    28.154
ATOM      6  C   UNL     1      26.546 -18.151  -0.564 -0.50 -0.00    +0.000    28.154
ATOM      7  C   UNL     1      27.709 -17.393  -0.399 -0.31 -0.00    +0.000    28.154
ATOM      8  C   UNL     1      27.684 -16.004  -0.593 -0.31 -0.00    +0.000    28.154
ATOM      9  C   UNL     1      26.472 -15.378  -0.917 -0.34 -0.00    +0.000    28.154
ATOM     10  C   UNL     1      25.308 -16.135  -1.080 -0.47 -0.00    +0.000    28.154
ATOM     11  C   UNL     1      22.851 -17.757  -0.888 -0.77 -0.00    +0.000    28.154
ATOM     12  C   UNL     1      24.067 -18.286  -1.093 -0.78 -0.00    +0.000    28.154
ATOM     13  O   UNL     1      20.619 -18.235  -0.317 -1.97 +0.00    +0.000    28.154
ATOM     14  C   UNL     1      21.595 -18.515  -1.062 -0.78 -0.00    +0.000    28.154
ATOM     15  N   UNL     1      21.461 -19.569  -2.023 -0.20 -0.00    +0.000    28.154
ATOM     16  O   UNL     1      20.260 -20.161  -2.218 -2.11 -0.00    +0.000    28.154
ATOM     17  H   UNL     1      22.245 -19.862  -2.543 -0.56 -0.00    +0.000    28.154
ATOM     18  C   UNL     1      31.097 -15.430   0.718 -0.12 -0.00    +0.000    28.154
ATOM     19  C   UNL     1      31.929 -16.707   0.520 -0.13 -0.00    +0.000    28.154
ATOM     20  C   UNL     1      32.481 -17.181   1.834 -0.16 -0.00    +0.000    28.154
ATOM     21  C   UNL     1      33.233 -16.446   2.752 -0.16 -0.00    +0.000    28.154
ATOM     22  N   UNL     1      33.612 -17.224   3.793 -0.19 -0.00    +0.000    28.154
ATOM     23  C   UNL     1      33.126 -18.449   3.531 -0.28 -0.00    +0.000    28.154
ATOM     24  C   UNL     1      32.438 -18.464   2.343 -0.21 -0.00    +0.000    28.154
ATOM     25  C   UNL     1      31.859 -19.633   1.846 -0.14 -0.00    +0.000    28.154
ATOM     26  C   UNL     1      31.993 -20.808   2.607 -0.27 -0.00    +0.000    28.154
ATOM     27  C   UNL     1      32.698 -20.792   3.831 -0.33 -0.00    +0.000    28.154
ATOM     28  C   UNL     1      33.276 -19.599   4.305 -0.33 -0.00    +0.000    28.154
ATOM     29  C   UNL     1      33.573 -14.993   2.638 -0.10 -0.00    +0.000    28.154
ATOM     30  H   UNL     1      34.136 -16.948   4.580 -0.08 -0.00    +0.000    28.154
TER
ENDMDL
MODEL       80
USER    Run = 80
USER    Cluster Rank = 7
USER    Number of conformations in this cluster = 11
USER  
USER    RMSD from reference structure       = 24.432 A
USER  
USER    Estimated Free Energy of Binding    =  -12.12 kcal/mol  [=(1)+(2)+(3)-(4)]
USER    Estimated Inhibition Constant, Ki   =    1.31 nM (nanomolar)  [Temperature = 298.15 K]
USER    
USER    (1) Final Intermolecular Energy     =  -14.21 kcal/mol
USER        vdW + Hbond + desolv Energy     =  -14.21 kcal/mol
USER        Electrostatic Energy            =   +0.00 kcal/mol
USER    (2) Final Total Internal Energy     =   -1.51 kcal/mol
USER    (3) Torsional Free Energy           =   +2.09 kcal/mol
USER    (4) Unbound System's Energy  [=(2)] =   -1.51 kcal/mol
USER    
USER    
USER  
USER    DPF = ligand_dock.biased.dpf
USER    NEWDPF move	ligand.pdbqt
USER    NEWDPF about	0.578000 -0.033000 0.130000
USER    NEWDPF tran0	27.926749 -16.271253 -1.970386
USER    NEWDPF axisangle0	-0.381320 0.873456 -0.302769 172.283380
USER    NEWDPF quaternion0	-0.380455 0.871477 -0.302083 0.067289
USER    NEWDPF dihe0	7.16 -138.81 177.30 -99.55 -178.42 163.95 -17.33 
USER  
USER                              x       y       z    vdW   Elec        q     RMS 
ATOM      1  N   UNL     1      28.387 -15.974  -2.523 -0.24 -0.00    +0.000    24.432
ATOM      2  H   UNL     1      27.666 -16.321  -3.156 -0.02 -0.00    +0.000    24.432
ATOM      3  H   UNL     1      29.101 -16.681  -2.348 -0.01 -0.00    +0.000    24.432
ATOM      4  C   UNL     1      27.763 -15.639  -1.237 -0.29 -0.00    +0.000    24.432
ATOM      5  C   UNL     1      24.267 -18.096  -0.567 -0.68 -0.00    +0.000    24.432
ATOM      6  C   UNL     1      25.521 -18.478  -0.051 -0.50 -0.00    +0.000    24.432
ATOM      7  C   UNL     1      26.653 -17.688  -0.278 -0.52 -0.00    +0.000    24.432
ATOM      8  C   UNL     1      26.553 -16.506  -1.028 -0.43 -0.00    +0.000    24.432
ATOM      9  C   UNL     1      25.301 -16.106  -1.516 -0.49 -0.00    +0.000    24.432
ATOM     10  C   UNL     1      24.170 -16.895  -1.288 -0.57 -0.00    +0.000    24.432
ATOM     11  C   UNL     1      21.922 -18.763  -1.082 -0.82 -0.00    +0.000    24.432
ATOM     12  C   UNL     1      23.034 -18.890  -0.342 -0.76 -0.00    +0.000    24.432
ATOM     13  O   UNL     1      19.900 -19.720  -1.814 -2.38 -0.00    +0.000    24.432
ATOM     14  C   UNL     1      20.698 -19.558  -0.853 -0.86 -0.00    +0.000    24.432
ATOM     15  N   UNL     1      20.376 -20.121   0.425 -0.70 -0.00    +0.000    24.432
ATOM     16  O   UNL     1      19.299 -20.930   0.558 -0.87 -0.00    +0.000    24.432
ATOM     17  H   UNL     1      20.941 -19.920   1.206 -0.48 -0.00    +0.000    24.432
ATOM     18  C   UNL     1      29.045 -14.814  -3.145 -0.15 -0.00    +0.000    24.432
ATOM     19  C   UNL     1      28.507 -14.520  -4.554 -0.26 -0.00    +0.000    24.432
ATOM     20  C   UNL     1      27.163 -13.854  -4.473 -0.30 -0.00    +0.000    24.432
ATOM     21  C   UNL     1      25.910 -14.469  -4.485 -0.43 -0.00    +0.000    24.432
ATOM     22  N   UNL     1      24.922 -13.544  -4.461 -0.40 -0.00    +0.000    24.432
ATOM     23  C   UNL     1      25.538 -12.349  -4.456 -0.31 -0.00    +0.000    24.432
ATOM     24  C   UNL     1      26.903 -12.497  -4.470 -0.23 -0.00    +0.000    24.432
ATOM     25  C   UNL     1      27.759 -11.396  -4.491 -0.11 -0.00    +0.000    24.432
ATOM     26  C   UNL     1      27.181 -10.113  -4.488 -0.10 -0.00    +0.000    24.432
ATOM     27  C   UNL     1      25.778  -9.961  -4.469 -0.22 -0.00    +0.000    24.432
ATOM     28  C   UNL     1      24.938 -11.091  -4.455 -0.22 -0.00    +0.000    24.432
ATOM     29  C   UNL     1      25.661 -15.944  -4.503 -0.29 -0.00    +0.000    24.432
ATOM     30  H   UNL     1      23.952 -13.712  -4.450 -0.55 -0.00    +0.000    24.432
TER
ENDMDL
MODEL       18
USER    Run = 18
USER    Cluster Rank = 8
USER    Number of conformations in this cluster = 4
USER  
USER    RMSD from reference structure       = 26.644 A
USER  
USER    Estimated Free Energy of Binding    =  -11.86 kcal/mol  [=(1)+(2)+(3)-(4)]
USER    Estimated Inhibition Constant, Ki   =    2.02 nM (nanomolar)  [Temperature = 298.15 K]
USER    
USER    (1) Final Intermolecular Energy     =  -13.95 kcal/mol
USER        vdW + Hbond + desolv Energy     =  -13.95 kcal/mol
USER        Electrostatic Energy            =   +0.00 kcal/mol
USER    (2) Final Total Internal Energy     =   -1.36 kcal/mol
USER    (3) Torsional Free Energy           =   +2.09 kcal/mol
USER    (4) Unbound System's Energy  [=(2)] =   -1.36 kcal/mol
USER    
USER    
USER  
USER    DPF = ligand_dock.biased.dpf
USER    NEWDPF move	ligand.pdbqt
USER    NEWDPF about	0.578000 -0.033000 0.130000
USER    NEWDPF tran0	29.448778 -17.289283 -2.250972
USER    NEWDPF axisangle0	-0.283264 0.714900 -0.639281 157.970483
USER    NEWDPF quaternion0	-0.278046 0.701730 -0.627504 0.191062
USER    NEWDPF dihe0	141.93 -37.21 7.01 -50.32 149.04 -174.19 -35.25 
USER  
USER                              x       y       z    vdW   Elec        q     RMS 
ATOM      1  N   UNL     1      29.955 -17.501  -2.803 -0.20 -0.00    +0.000    26.644
ATOM      2  H   UNL     1      29.225 -18.163  -3.065 +0.05 -0.00    +0.000    26.644
ATOM      3  H   UNL     1      30.588 -17.899  -2.109 -0.01 -0.00    +0.000    26.644
ATOM      4  C   UNL     1      29.325 -16.316  -2.208 -0.22 -0.00    +0.000    26.644
ATOM      5  C   UNL     1      25.139 -17.074  -1.425 -0.57 -0.00    +0.000    26.644
ATOM      6  C   UNL     1      26.138 -17.843  -0.793 -0.54 -0.00    +0.000    26.644
ATOM      7  C   UNL     1      27.490 -17.603  -1.057 -0.33 -0.00    +0.000    26.644
ATOM      8  C   UNL     1      27.870 -16.597  -1.957 -0.30 -0.00    +0.000    26.644
ATOM      9  C   UNL     1      26.881 -15.809  -2.563 -0.35 -0.00    +0.000    26.644
ATOM     10  C   UNL     1      25.529 -16.046  -2.298 -0.49 -0.00    +0.000    26.644
ATOM     11  C   UNL     1      23.048 -18.429  -1.410 -0.75 -0.00    +0.000    26.644
ATOM     12  C   UNL     1      23.692 -17.276  -1.168 -0.70 -0.00    +0.000    26.644
ATOM     13  O   UNL     1      21.036 -17.857  -0.330 -1.91 +0.00    +0.000    26.644
ATOM     14  C   UNL     1      21.606 -18.623  -1.151 -0.72 -0.00    +0.000    26.644
ATOM     15  N   UNL     1      20.847 -19.665  -1.778 -0.73 -0.00    +0.000    26.644
ATOM     16  O   UNL     1      19.509 -19.736  -1.591 -2.11 -0.00    +0.000    26.644
ATOM     17  H   UNL     1      21.301 -20.330  -2.345 -0.53 -0.00    +0.000    26.644
ATOM     18  C   UNL     1      30.748 -17.173  -3.998 -0.20 -0.00    +0.000    26.644
ATOM     19  C   UNL     1      30.007 -17.503  -5.303 -0.33 -0.00    +0.000    26.644
ATOM     20  C   UNL     1      29.942 -16.290  -6.188 -0.31 -0.00    +0.000    26.644
ATOM     21  C   UNL     1      30.782 -15.974  -7.256 -0.27 -0.00    +0.000    26.644
ATOM     22  N   UNL     1      30.460 -14.767  -7.778 -0.23 -0.00    +0.000    26.644
ATOM     23  C   UNL     1      29.438 -14.308  -7.036 -0.30 -0.00    +0.000    26.644
ATOM     24  C   UNL     1      29.099 -15.204  -6.053 -0.34 -0.00    +0.000    26.644
ATOM     25  C   UNL     1      28.078 -14.939  -5.140 -0.36 -0.00    +0.000    26.644
ATOM     26  C   UNL     1      27.390 -13.717  -5.258 -0.28 -0.00    +0.000    26.644
ATOM     27  C   UNL     1      27.736 -12.797  -6.272 -0.16 -0.00    +0.000    26.644
ATOM     28  C   UNL     1      28.775 -13.089  -7.176 -0.25 -0.00    +0.000    26.644
ATOM     29  C   UNL     1      31.884 -16.837  -7.786 -0.24 -0.00    +0.000    26.644
ATOM     30  H   UNL     1      30.887 -14.318  -8.544 -0.28 -0.00    +0.000    26.644
TER
ENDMDL
MODEL       77
USER    Run = 77
USER    Cluster Rank = 9
USER    Number of conformations in this cluster = 3
USER  
USER    RMSD from reference structure       = 27.762 A
USER  
USER    Estimated Free Energy of Binding    =  -11.65 kcal/mol  [=(1)+(2)+(3)-(4)]
USER    Estimated Inhibition Constant, Ki   =    2.89 nM (nanomolar)  [Temperature = 298.15 K]
USER    
USER    (1) Final Intermolecular Energy     =  -13.74 kcal/mol
USER        vdW + Hbond + desolv Energy     =  -13.74 kcal/mol
USER        Electrostatic Energy            =   +0.00 kcal/mol
USER    (2) Final Total Internal Energy     =   -1.19 kcal/mol
USER    (3) Torsional Free Energy           =   +2.09 kcal/mol
USER    (4) Unbound System's Energy  [=(2)] =   -1.19 kcal/mol
USER    
USER    
USER  
USER    DPF = ligand_dock.biased.dpf
USER    NEWDPF move	ligand.pdbqt
USER    NEWDPF about	0.578000 -0.033000 0.130000
USER    NEWDPF tran0	28.933695 -17.700139 -1.100523
USER    NEWDPF axisangle0	0.041064 0.519829 -0.853283 -160.552965
USER    NEWDPF quaternion0	0.040474 0.512361 -0.841025 -0.168894
USER    NEWDPF dihe0	-167.26 -33.62 -50.54 -103.14 98.17 -172.86 18.26 
USER  
USER                              x       y       z    vdW   Elec        q     RMS 
ATOM      1  N   UNL     1      29.657 -17.857  -0.859 -0.25 -0.00    +0.000    27.762
ATOM      2  H   UNL     1      29.455 -18.792  -1.212 -0.11 -0.00    +0.000    27.762
ATOM      3  H   UNL     1      29.381 -17.760   0.118 -0.55 -0.00    +0.000    27.762
ATOM      4  C   UNL     1      28.887 -16.881  -1.641 -0.29 -0.00    +0.000    27.762
ATOM      5  C   UNL     1      24.659 -17.487  -0.954 -0.63 -0.00    +0.000    27.762
ATOM      6  C   UNL     1      25.617 -18.147  -0.158 -0.60 -0.00    +0.000    27.762
ATOM      7  C   UNL     1      26.983 -17.959  -0.390 -0.45 -0.00    +0.000    27.762
ATOM      8  C   UNL     1      27.418 -17.113  -1.421 -0.37 -0.00    +0.000    27.762
ATOM      9  C   UNL     1      26.469 -16.429  -2.194 -0.40 -0.00    +0.000    27.762
ATOM     10  C   UNL     1      25.103 -16.615  -1.962 -0.54 -0.00    +0.000    27.762
ATOM     11  C   UNL     1      22.565 -18.822  -0.756 -0.83 -0.00    +0.000    27.762
ATOM     12  C   UNL     1      23.199 -17.639  -0.740 -0.78 -0.00    +0.000    27.762
ATOM     13  O   UNL     1      20.357 -18.016  -0.884 -2.19 -0.00    +0.000    27.762
ATOM     14  C   UNL     1      21.110 -18.967  -0.541 -0.87 -0.00    +0.000    27.762
ATOM     15  N   UNL     1      20.535 -20.131   0.065 -0.71 -0.00    +0.000    27.762
ATOM     16  O   UNL     1      19.190 -20.261   0.142 -1.06 -0.00    +0.000    27.762
ATOM     17  H   UNL     1      21.120 -20.836   0.425 -0.51 -0.00    +0.000    27.762
ATOM     18  C   UNL     1      31.107 -17.622  -0.943 -0.18 -0.00    +0.000    27.762
ATOM     19  C   UNL     1      31.796 -18.557  -1.949 -0.13 -0.00    +0.000    27.762
ATOM     20  C   UNL     1      31.457 -18.153  -3.356 -0.13 -0.00    +0.000    27.762
ATOM     21  C   UNL     1      31.358 -16.858  -3.865 -0.10 -0.00    +0.000    27.762
ATOM     22  N   UNL     1      30.969 -16.881  -5.162 -0.18 -0.00    +0.000    27.762
ATOM     23  C   UNL     1      30.799 -18.178  -5.470 -0.27 -0.00    +0.000    27.762
ATOM     24  C   UNL     1      31.080 -18.983  -4.394 -0.20 -0.00    +0.000    27.762
ATOM     25  C   UNL     1      30.955 -20.371  -4.463 -0.18 -0.00    +0.000    27.762
ATOM     26  C   UNL     1      30.536 -20.933  -5.683 -0.38 -0.00    +0.000    27.762
ATOM     27  C   UNL     1      30.251 -20.106  -6.791 -0.42 -0.00    +0.000    27.762
ATOM     28  C   UNL     1      30.381 -18.708  -6.690 -0.36 -0.00    +0.000    27.762
ATOM     29  C   UNL     1      31.653 -15.598  -3.113 -0.04 -0.00    +0.000    27.762
ATOM     30  H   UNL     1      30.836 -16.107  -5.756 +0.00 -0.00    +0.000    27.762
TER
ENDMDL
MODEL        8
USER    Run = 8
USER    Cluster Rank = 10
USER    Number of conformations in this cluster = 2
USER  
USER    RMSD from reference structure       = 25.802 A
USER  
USER    Estimated Free Energy of Binding    =  -11.52 kcal/mol  [=(1)+(2)+(3)-(4)]
USER    Estimated Inhibition Constant, Ki   =    3.59 nM (nanomolar)  [Temperature = 298.15 K]
USER    
USER    (1) Final Intermolecular Energy     =  -13.61 kcal/mol
USER        vdW + Hbond + desolv Energy     =  -13.61 kcal/mol
USER        Electrostatic Energy            =   +0.00 kcal/mol
USER    (2) Final Total Internal Energy     =   -1.55 kcal/mol
USER    (3) Torsional Free Energy           =   +2.09 kcal/mol
USER    (4) Unbound System's Energy  [=(2)] =   -1.55 kcal/mol
USER    
USER    
USER  
USER    DPF = ligand_dock.biased.dpf
USER    NEWDPF move	ligand.pdbqt
USER    NEWDPF about	0.578000 -0.033000 0.130000
USER    NEWDPF tran0	28.338732 -16.630255 0.284405
USER    NEWDPF axisangle0	-0.357652 0.157754 -0.920434 -74.277795
USER    NEWDPF quaternion0	-0.215932 0.095244 -0.555711 -0.797174
USER    NEWDPF dihe0	-127.28 170.26 154.82 -115.89 -175.58 -151.19 107.44 
USER  
USER                              x       y       z    vdW   Elec        q     RMS 
ATOM      1  N   UNL     1      28.293 -15.876   0.470 -0.15 -0.00    +0.000    25.802
ATOM      2  H   UNL     1      29.251 -16.010   0.794 -0.69 -0.00    +0.000    25.802
ATOM      3  H   UNL     1      27.619 -16.070   1.210 -0.43 -0.00    +0.000    25.802
ATOM      4  C   UNL     1      28.032 -16.812  -0.631 -0.37 -0.00    +0.000    25.802
ATOM      5  C   UNL     1      23.815 -17.745  -0.856 -0.69 -0.00    +0.000    25.802
ATOM      6  C   UNL     1      24.375 -16.752  -1.684 -0.52 -0.00    +0.000    25.802
ATOM      7  C   UNL     1      25.736 -16.443  -1.602 -0.49 -0.00    +0.000    25.802
ATOM      8  C   UNL     1      26.562 -17.117  -0.690 -0.49 -0.00    +0.000    25.802
ATOM      9  C   UNL     1      26.016 -18.128   0.114 -0.55 -0.00    +0.000    25.802
ATOM     10  C   UNL     1      24.655 -18.439   0.030 -0.47 -0.00    +0.000    25.802
ATOM     11  C   UNL     1      21.928 -19.363  -0.684 -0.79 -0.00    +0.000    25.802
ATOM     12  C   UNL     1      22.381 -18.121  -0.915 -0.79 -0.00    +0.000    25.802
ATOM     13  O   UNL     1      19.926 -19.733  -1.866 -2.39 -0.00    +0.000    25.802
ATOM     14  C   UNL     1      20.498 -19.730  -0.743 -0.85 -0.00    +0.000    25.802
ATOM     15  N   UNL     1      19.738 -20.052   0.428 -0.72 -0.00    +0.000    25.802
ATOM     16  O   UNL     1      18.461 -20.485   0.311 -0.90 -0.00    +0.000    25.802
ATOM     17  H   UNL     1      20.147 -19.958   1.319 -0.10 -0.00    +0.000    25.802
ATOM     18  C   UNL     1      28.123 -14.472   0.064 -0.23 -0.00    +0.000    25.802
ATOM     19  C   UNL     1      29.324 -13.941  -0.734 -0.08 -0.00    +0.000    25.802
ATOM     20  C   UNL     1      29.524 -14.754  -1.982 -0.08 -0.00    +0.000    25.802
ATOM     21  C   UNL     1      30.608 -15.576  -2.294 -0.07 -0.00    +0.000    25.802
ATOM     22  N   UNL     1      30.471 -16.098  -3.535 -0.12 -0.00    +0.000    25.802
ATOM     23  C   UNL     1      29.323 -15.596  -4.020 -0.20 -0.00    +0.000    25.802
ATOM     24  C   UNL     1      28.721 -14.768  -3.105 -0.14 -0.00    +0.000    25.802
ATOM     25  C   UNL     1      27.523 -14.110  -3.389 -0.22 -0.00    +0.000    25.802
ATOM     26  C   UNL     1      26.937 -14.326  -4.649 -0.38 -0.00    +0.000    25.802
ATOM     27  C   UNL     1      27.554 -15.181  -5.588 -0.33 +0.00    +0.000    25.802
ATOM     28  C   UNL     1      28.765 -15.827  -5.276 -0.30 -0.00    +0.000    25.802
ATOM     29  C   UNL     1      31.766 -15.873  -1.394 -0.05 -0.00    +0.000    25.802
ATOM     30  H   UNL     1      31.088 -16.717  -3.990 +0.00 -0.00    +0.000    25.802
TER
ENDMDL
MODEL       86
USER    Run = 86
USER    Cluster Rank = 11
USER    Number of conformations in this cluster = 1
USER  
USER    RMSD from reference structure       = 28.878 A
USER  
USER    Estimated Free Energy of Binding    =  -11.13 kcal/mol  [=(1)+(2)+(3)-(4)]
USER    Estimated Inhibition Constant, Ki   =    6.94 nM (nanomolar)  [Temperature = 298.15 K]
USER    
USER    (1) Final Intermolecular Energy     =  -13.22 kcal/mol
USER        vdW + Hbond + desolv Energy     =  -13.22 kcal/mol
USER        Electrostatic Energy            =   +0.00 kcal/mol
USER    (2) Final Total Internal Energy     =   -1.21 kcal/mol
USER    (3) Torsional Free Energy           =   +2.09 kcal/mol
USER    (4) Unbound System's Energy  [=(2)] =   -1.21 kcal/mol
USER    
USER    
USER  
USER    DPF = ligand_dock.biased.dpf
USER    NEWDPF move	ligand.pdbqt
USER    NEWDPF about	0.578000 -0.033000 0.130000
USER    NEWDPF tran0	29.318295 -17.888428 -1.468484
USER    NEWDPF axisangle0	-0.235817 -0.835299 0.496655 150.925210
USER    NEWDPF quaternion0	-0.228267 -0.808556 0.480754 0.251012
USER    NEWDPF dihe0	116.58 41.64 -35.49 -102.70 138.81 48.15 39.12 
USER  
USER                              x       y       z    vdW   Elec        q     RMS 
ATOM      1  N   UNL     1      29.977 -18.228  -1.229 -0.24 -0.00    +0.000    28.878
ATOM      2  H   UNL     1      30.089 -18.456  -2.217 -0.02 -0.00    +0.000    28.878
ATOM      3  H   UNL     1      29.456 -18.953  -0.736 -0.42 -0.00    +0.000    28.878
ATOM      4  C   UNL     1      29.216 -16.976  -1.118 -0.28 -0.00    +0.000    28.878
ATOM      5  C   UNL     1      24.970 -17.793  -1.219 -0.61 -0.00    +0.000    28.878
ATOM      6  C   UNL     1      25.813 -18.489  -0.329 -0.56 -0.00    +0.000    28.878
ATOM      7  C   UNL     1      27.187 -18.231  -0.307 -0.24 -0.00    +0.000    28.878
ATOM      8  C   UNL     1      27.745 -17.279  -1.173 -0.34 -0.00    +0.000    28.878
ATOM      9  C   UNL     1      26.906 -16.562  -2.037 -0.35 -0.00    +0.000    28.878
ATOM     10  C   UNL     1      25.531 -16.817  -2.059 -0.51 -0.00    +0.000    28.878
ATOM     11  C   UNL     1      22.804 -18.599  -0.287 -0.82 -0.00    +0.000    28.878
ATOM     12  C   UNL     1      23.504 -18.017  -1.273 -0.76 -0.00    +0.000    28.878
ATOM     13  O   UNL     1      20.611 -17.863  -0.719 -2.34 -0.00    +0.000    28.878
ATOM     14  C   UNL     1      21.345 -18.817  -0.346 -0.83 -0.00    +0.000    28.878
ATOM     15  N   UNL     1      20.738 -20.060   0.030 -0.70 -0.00    +0.000    28.878
ATOM     16  O   UNL     1      19.409 -20.246  -0.144 -1.22 -0.00    +0.000    28.878
ATOM     17  H   UNL     1      21.290 -20.779   0.414 -0.57 -0.00    +0.000    28.878
ATOM     18  C   UNL     1      31.308 -18.131  -0.611 -0.18 -0.00    +0.000    28.878
ATOM     19  C   UNL     1      31.514 -19.165   0.506 -0.10 -0.00    +0.000    28.878
ATOM     20  C   UNL     1      31.687 -20.539  -0.078 -0.16 -0.00    +0.000    28.878
ATOM     21  C   UNL     1      32.620 -20.943  -1.033 -0.08 -0.00    +0.000    28.878
ATOM     22  N   UNL     1      32.434 -22.241  -1.367 -0.09 -0.00    +0.000    28.878
ATOM     23  C   UNL     1      31.377 -22.656  -0.648 -0.16 -0.00    +0.000    28.878
ATOM     24  C   UNL     1      30.890 -21.646   0.144 -0.23 -0.00    +0.000    28.878
ATOM     25  C   UNL     1      29.778 -21.830   0.967 -0.30 -0.00    +0.000    28.878
ATOM     26  C   UNL     1      29.166 -23.096   0.971 -0.45 -0.00    +0.000    28.878
ATOM     27  C   UNL     1      29.669 -24.137   0.160 -0.40 -0.00    +0.000    28.878
ATOM     28  C   UNL     1      30.789 -23.920  -0.665 -0.22 -0.00    +0.000    28.878
ATOM     29  C   UNL     1      33.702 -20.087  -1.614 -0.03 -0.00    +0.000    28.878
ATOM     30  H   UNL     1      32.963 -22.772  -2.006 +0.00 -0.00    +0.000    28.878
TER
ENDMDL


AVSFLD: # AVS field file
AVSFLD: #
AVSFLD: # Created by AutoDock
AVSFLD: #
AVSFLD: ndim=2           # number of dimensions in the field
AVSFLD: nspace=1         # number of physical coordinates
AVSFLD: veclen=7         # vector size
AVSFLD: dim1=30          # atoms
AVSFLD: dim2=11          # conformations
AVSFLD: data=Real       # data type (byte,integer,Real,double)
AVSFLD: field=uniform    # field coordinate layout
AVSFLD: label= x y z vdW Elec q RMS
AVSFLD: variable 1 file = ligand_dock.biased.dlg.pdb filetype = ascii offset = 5 stride = 12
AVSFLD: variable 2 file = ligand_dock.biased.dlg.pdb filetype = ascii offset = 6 stride = 12
AVSFLD: variable 3 file = ligand_dock.biased.dlg.pdb filetype = ascii offset = 7 stride = 12
AVSFLD: variable 4 file = ligand_dock.biased.dlg.pdb filetype = ascii offset = 8 stride = 12
AVSFLD: variable 5 file = ligand_dock.biased.dlg.pdb filetype = ascii offset = 9 stride = 12
AVSFLD: variable 6 file = ligand_dock.biased.dlg.pdb filetype = ascii offset = 10 stride = 12
AVSFLD: variable 7 file = ligand_dock.biased.dlg.pdb filetype = ascii offset = 11 stride = 12
AVSFLD: # end of file

>>> Closing the docking parameter file (DPF)...
This docking finished at:			11:19 37" a.m., 11/08/2024


________________________________________________________________________________

autodock4: Successful Completion on "ThinkStation-P620"

Real= 14m 19.25s,  CPU= 14m 18.99s,  System= 0.17s
________________________________________________________________________________

