REMARK  Name = 
REMARK  5 active torsions:
REMARK  status: ('A' for Active; 'I' for Inactive)
REMARK    1  A    between atoms: O_1  and  N_2
REMARK    2  A    between atoms: C_3  and  C_4
REMARK    3  A    between atoms: C_4  and  C_5
REMARK    4  A    between atoms: C_5  and  C_6
REMARK    5  A    between atoms: C_6  and  C_7
REMARK                            x       y       z     vdW  Elec       q    Type
REMARK                         _______ _______ _______ _____ _____    ______ ____
ROOT
ATOM      1  C   UNL     1       0.722  -0.050   0.545  0.00  0.00    +0.000 C 
ENDROOT
BRANCH   1   2
ATOM      2  C   UNL     1       1.906   0.365   1.423  0.00  0.00    +0.000 C 
BRANCH   2   4
ATOM      3  N   UNL     1       3.959  -0.414   0.145  0.00  0.00    +0.000 N 
ATOM      4  C   UNL     1       3.053  -0.583   1.238  0.00  0.00    +0.000 C 
ATOM      5  O   UNL     1       3.194  -1.554   2.028  0.00  0.00    +0.000 OA
ATOM      6  H   UNL     1       3.840   0.341  -0.475  0.00  0.00    +0.000 HD
BRANCH   3   7
ATOM      7  O   UNL     1       4.980  -1.283  -0.044  0.00  0.00    +0.000 OA
ATOM      8  H   UNL     1       5.490  -1.018  -0.826  0.00  0.00    +0.000 HD
ENDBRANCH   3   7
ENDBRANCH   2   4
ENDBRANCH   1   2
BRANCH   1   9
ATOM      9  C   UNL     1      -0.458   0.912   0.723  0.00  0.00    +0.000 C 
BRANCH   9  10
ATOM     10  C   UNL     1      -1.615   0.495  -0.145  0.00  0.00    +0.000 A 
ATOM     11  C   UNL     1      -2.573  -0.412   0.337  0.00  0.00    +0.000 A 
ATOM     12  C   UNL     1      -3.629  -0.823  -0.482  0.00  0.00    +0.000 A 
ATOM     13  C   UNL     1      -3.731  -0.340  -1.789  0.00  0.00    +0.000 A 
ATOM     14  C   UNL     1      -2.774   0.553  -2.281  0.00  0.00    +0.000 A 
ATOM     15  C   UNL     1      -1.716   0.966  -1.466  0.00  0.00    +0.000 A 
ENDBRANCH   9  10
ENDBRANCH   1   9
TORSDOF 5
