          AutoDock 4.2 Release 4.2.6   
         (C) 1989-2012 The Scripps Research Institute
        AutoDock comes with ABSOLUTELY NO WARRANTY.
        AutoDock is free software, and you are welcome
        to redistribute it under certain conditions;
        for details type 'autodock4 -C'

                     main.cc  $Revision: 1.213 $

                   Compiled on Feb 20 2022 at 09:48:33


This file was created at:			10:03 16" a.m., 11/08/2024
                   on host:		"ThinkStation-P620"
Current Working Directory = "/home/antonio/Documenti/buccheri/IDROSSAMICO HDAC/HDAC 2/P/Ligand_10"

      ________________________________________________________________

                   SETTING UP DEFAULT PARAMETER LIBRARY
      ________________________________________________________________


Random number generator was seeded with values 328167, 1731056596.
Docking parameter file (DPF) used for this docking:		ligand_dock.biased.dpf
DPF> autodock_parameter_version 4.2       # used by autodock to validate parameter set

	Autodock parameter version 4.2.
DPF> outlev 1                             # diagnostic output level

Output Level = 1  ADT-COMPATIBLE OUTPUT DURING DOCKING.
DPF> intelec                              # calculate internal electrostatics

Electrostatic energies will be calculated for all non-bonds between moving atoms.
DPF> seed pid time                        # seeds for random generator

Random number generator was seeded with values 328167, 1731056596.
DPF> ligand_types A C HD OA N             # atoms types in ligand

DPF> fld receptor.maps.fld                # grid_data_file

Opening Grid Map Dimensions file:		receptor.maps.fld
Grid Point Spacing =				0.375 Angstroms

Even Number of User-specified Grid Points =	70 x-points
						70 y-points
						70 z-points

Coordinates of Central Grid Point of Maps =	(24.757, -16.735, 0.794)
Macromolecule file used to create Grid Maps =	receptor.pdbqt
Grid Parameter file used to create Grid Maps =	receptor.gpf
Minimum coordinates in grid = (11.632, -29.860, -12.331)
Maximum coordinates in grid = (37.882, -3.610, 13.919)

DPF> map receptor.A.map                   # atom-specific affinity map

DPF> map receptor.C.map                   # atom-specific affinity map

DPF> map receptor.HD.biased.map

DPF> map receptor.OA.biased.map

DPF> map receptor.N.map                   # atom-specific affinity map

DPF> elecmap receptor.e.map               # electrostatics map

DPF> desolvmap receptor.d.map             # desolvation map

DPF> move ligand.pdbqt                    # small molecule

1,4-interactions will be _ignored_ in the non-bonded internal energy calculation.

Ligand PDBQT file = "ligand.pdbqt"

INPUT LIGAND PDBQT FILE:
________________________

INPUT-LIGAND-PDBQT: REMARK  Name = 
INPUT-LIGAND-PDBQT: REMARK  5 active torsions:
INPUT-LIGAND-PDBQT: REMARK  status: ('A' for Active; 'I' for Inactive)
INPUT-LIGAND-PDBQT: REMARK    1  A    between atoms: O_1  and  N_2
INPUT-LIGAND-PDBQT: REMARK    2  A    between atoms: C_3  and  C_4
INPUT-LIGAND-PDBQT: REMARK    3  A    between atoms: C_4  and  C_5
INPUT-LIGAND-PDBQT: REMARK    4  A    between atoms: C_5  and  C_6
INPUT-LIGAND-PDBQT: REMARK    5  A    between atoms: C_6  and  C_7
INPUT-LIGAND-PDBQT: REMARK                            x       y       z     vdW  Elec       q    Type
INPUT-LIGAND-PDBQT: REMARK                         _______ _______ _______ _____ _____    ______ ____
INPUT-LIGAND-PDBQT: ROOT
INPUT-LIGAND-PDBQT: ATOM      1  C   UNL     1       0.722  -0.050   0.545  0.00  0.00    +0.000 C 
INPUT-LIGAND-PDBQT: ENDROOT
INPUT-LIGAND-PDBQT: BRANCH   1   2
INPUT-LIGAND-PDBQT: ATOM      2  C   UNL     1       1.906   0.365   1.423  0.00  0.00    +0.000 C 
INPUT-LIGAND-PDBQT: BRANCH   2   4
INPUT-LIGAND-PDBQT: ATOM      3  N   UNL     1       3.959  -0.414   0.145  0.00  0.00    +0.000 N 
INPUT-LIGAND-PDBQT: ATOM      4  C   UNL     1       3.053  -0.583   1.238  0.00  0.00    +0.000 C 
INPUT-LIGAND-PDBQT: ATOM      5  O   UNL     1       3.194  -1.554   2.028  0.00  0.00    +0.000 OA
INPUT-LIGAND-PDBQT: ATOM      6  H   UNL     1       3.840   0.341  -0.475  0.00  0.00    +0.000 HD
INPUT-LIGAND-PDBQT: BRANCH   3   7
INPUT-LIGAND-PDBQT: ATOM      7  O   UNL     1       4.980  -1.283  -0.044  0.00  0.00    +0.000 OA
INPUT-LIGAND-PDBQT: ATOM      8  H   UNL     1       5.490  -1.018  -0.826  0.00  0.00    +0.000 HD
INPUT-LIGAND-PDBQT: ENDBRANCH   3   7
INPUT-LIGAND-PDBQT: ENDBRANCH   2   4
INPUT-LIGAND-PDBQT: ENDBRANCH   1   2
INPUT-LIGAND-PDBQT: BRANCH   1   9
INPUT-LIGAND-PDBQT: ATOM      9  C   UNL     1      -0.458   0.912   0.723  0.00  0.00    +0.000 C 
INPUT-LIGAND-PDBQT: BRANCH   9  10
INPUT-LIGAND-PDBQT: ATOM     10  C   UNL     1      -1.615   0.495  -0.145  0.00  0.00    +0.000 A 
INPUT-LIGAND-PDBQT: ATOM     11  C   UNL     1      -2.573  -0.412   0.337  0.00  0.00    +0.000 A 
INPUT-LIGAND-PDBQT: ATOM     12  C   UNL     1      -3.629  -0.823  -0.482  0.00  0.00    +0.000 A 
INPUT-LIGAND-PDBQT: ATOM     13  C   UNL     1      -3.731  -0.340  -1.789  0.00  0.00    +0.000 A 
INPUT-LIGAND-PDBQT: ATOM     14  C   UNL     1      -2.774   0.553  -2.281  0.00  0.00    +0.000 A 
INPUT-LIGAND-PDBQT: ATOM     15  C   UNL     1      -1.716   0.966  -1.466  0.00  0.00    +0.000 A 
INPUT-LIGAND-PDBQT: ENDBRANCH   9  10
INPUT-LIGAND-PDBQT: ENDBRANCH   1   9
INPUT-LIGAND-PDBQT: TORSDOF 5
________________________________________________________________________________

Total charge on ligand                               =	+0.000 e
REMARK  Name = 
REMARK  5 active torsions:
REMARK  status: ('A' for Active; 'I' for Inactive)
REMARK    1  A    between atoms: O_1  and  N_2
REMARK    2  A    between atoms: C_3  and  C_4
REMARK    3  A    between atoms: C_4  and  C_5
REMARK    4  A    between atoms: C_5  and  C_6
REMARK    5  A    between atoms: C_6  and  C_7
REMARK                            x       y       z     vdW  Elec       q    Type
REMARK                         _______ _______ _______ _____ _____    ______ ____


Number of Rotatable Bonds in Small Molecule =	5 torsions
Number of atoms in ligand:  15

Number of non-hydrogen atoms in ligand:  13

Number of vibrational degrees of freedom of ligand:  39


Number of torsional degrees of freedom = 5
Estimated loss of torsional free energy upon binding = +1.4915 kcal/mol


DPF> about 0.710 -0.190 -0.071            # small molecule center

Small molecule center of rotation =	(+0.710, -0.190, -0.071)

DPF> tran0 random                         # initial coordinates/A or random

Initial translation =			(34.146, -20.892, 6.637) Angstroms
DPF> quaternion0 random                   # initial orientation

Each run will begin with a new, random initial orientation.
Initial quaternion,  (x,y,z,w) =	( -0.271, 0.902, 0.078, 0.326 ),
DPF> dihe0 random                         # initial dihedrals (relative) or random

DPF> torsdof 5                            # torsional degrees of freedom

Number of torsional degrees of freedom = 5
Free energy coefficient for torsional degrees of freedom = 0.2983, the factory default value.

Estimated loss of torsional free energy upon binding = +1.4915 kcal/mol

DPF> rmstol 2.0                           # cluster_tolerance/A

Maximum RMS tolerance for conformational cluster analysis = 2.00 Angstroms
DPF> extnrg 1000.0                        # external grid energy

External grid energy (beyond grid map walls) = 1000.00

DPF> e0max 0.0 10000                      # max initial energy; max number of retries

Using user-specified maximum number of retries for simanneal initialization, 10000 retries.
If the simanneal initial energy is greater than e0max, 0.000,
then a new, random initial state will be created.

DPF> ga_pop_size 150                      # number of individuals in population

A population of 150 individuals will be used
DPF> ga_num_evals 2500000                 # maximum number of energy evaluations

There will be at most 2500000 function evaluations used.
DPF> ga_num_generations 27000             # maximum number of generations

The GA will run for at most 27000 generations.
DPF> ga_elitism 1                         # number of top individuals to survive to next generation

The 1 best will be preserved each GA generation.
DPF> ga_mutation_rate 0.02                # rate of gene mutation

The mutation rate is 0.020000.
DPF> ga_crossover_rate 0.8                # rate of crossover

The crossover rate is 0.800000.
DPF> ga_window_size 10                    # 

The GA's selection window is 10 generations.
DPF> ga_cauchy_alpha 0.0                  # Alpha parameter of Cauchy distribution

The alpha parameter (for the Cauchy distribution) is being set to 0.000000.
DPF> ga_cauchy_beta 1.0                   # Beta parameter Cauchy distribution

The beta parameter (for the Cauchy distribution) is being set to 1.000000.
DPF> set_ga                               # set the above parameters for GA or LGA

DPF> sw_max_its 300                       # iterations of Solis & Wets local search

Solis & Wets algorithms will perform at most 300 iterations.
DPF> sw_max_succ 4                        # consecutive successes before changing rho

Solis & Wets algorithms expand rho every 4 in a row successes.
DPF> sw_max_fail 4                        # consecutive failures before changing rho

Solis & Wets algorithms contract rho every 4 in a row failures.
DPF> sw_rho 1.0                           # size of local search space to sample

rho is set to 1.000000.
DPF> sw_lb_rho 0.01                       # lower bound on rho

rho will never get smaller than 0.010000.
DPF> ls_search_freq 0.06                  # probability of performing local search on individual

Local search will be performed with frequency 0.060000.
DPF> set_psw1                             # set the above pseudo-Solis & Wets parameters

Creating a new Local Search object using the pseudo-Solis-Wets algorithm (pSW1) with the current settings.

DPF> unbound_model bound                  # state of unbound ligand

DPF> ga_run 100

centering ligand on specified point: 0.710 -0.190 -0.071
Furthest true ligand atom from "about" center is 4.910 Angstroms (maxrad).
Number of requested GA dockings = 100 runs
Unbound model to be used is 'same as bound' [AutoDock 4.2 default].

	BEGINNING GENETIC ALGORITHM DOCKING 1 of 100
Run: 1 Seed: 228209890 1031143080 [ Run 1 of 100 GA/GALS ]
Beginning LAMARCKIAN GENETIC ALGORITHM (LGA), with a maximum of 2500000 energy evaluations.

Final-Value: -11.319


	FINAL GENETIC ALGORITHM DOCKED STATE
	_______________________________________________


Detailed state:  trans 23.318 -17.683 -1.325 quatxyzw 0.123539 0.209859 -0.928877 -0.279078 center 0.710 -0.190 -0.071 ntor 5 -169.1902 81.6744 -100.8583 -6.4198 -23.5349
State:	 23.318 -17.683  -1.325   0.129  0.219 -0.967 -147.590   -169.19   81.67 -100.86   -6.42  -23.53

DOCKED: MODEL        1
DOCKED: USER    Run = 1
DOCKED: USER    DPF = ligand_dock.biased.dpf
DOCKED: USER  
DOCKED: USER    Estimated Free Energy of Binding    =   -9.01 kcal/mol  [=(1)+(2)+(3)-(4)]
DOCKED: USER    Estimated Inhibition Constant, Ki   =  249.66 nM (nanomolar)  [Temperature = 298.15 K]
DOCKED: USER    
DOCKED: USER    (1) Final Intermolecular Energy     =  -10.50 kcal/mol
DOCKED: USER        vdW + Hbond + desolv Energy     =  -10.50 kcal/mol
DOCKED: USER        Electrostatic Energy            =   +0.00 kcal/mol
DOCKED: USER    (2) Final Total Internal Energy     =   -0.82 kcal/mol
DOCKED: USER    (3) Torsional Free Energy           =   +1.49 kcal/mol
DOCKED: USER    (4) Unbound System's Energy  [=(2)] =   -0.82 kcal/mol
DOCKED: USER    
DOCKED: USER    
DOCKED: USER    NEWDPF move ligand.pdbqt
DOCKED: USER    NEWDPF about 0.710000 -0.190000 -0.071000
DOCKED: USER    NEWDPF tran0 23.318002 -17.683462 -1.324749
DOCKED: USER    NEWDPF quaternion0 0.123539 0.209859 -0.928877 -0.279078
DOCKED: USER    NEWDPF axisangle0 0.128651 0.218542 -0.967310 -147.589684
DOCKED: USER    NEWDPF quat0 0.128651 0.218542 -0.967310 -147.589684
DOCKED: USER    NEWDPF dihe0 -169.19 81.67 -100.86 -6.42 -23.53 
DOCKED: USER  keepresnum = 1 
DOCKED: USER  
DOCKED: REMARK  Name = 
DOCKED: REMARK  5 active torsions:
DOCKED: REMARK  status: ('A' for Active; 'I' for Inactive)
DOCKED: REMARK    1  A    between atoms: O_1  and  N_2
DOCKED: REMARK    2  A    between atoms: C_3  and  C_4
DOCKED: REMARK    3  A    between atoms: C_4  and  C_5
DOCKED: REMARK    4  A    between atoms: C_5  and  C_6
DOCKED: REMARK    5  A    between atoms: C_6  and  C_7
DOCKED: REMARK                            x       y       z     vdW  Elec       q    Type
DOCKED: REMARK                         _______ _______ _______ _____ _____    ______ ____
DOCKED: USER                              x       y       z     vdW  Elec       q    Type
DOCKED: USER                           _______ _______ _______ _____ _____    ______ ____
DOCKED: ROOT
DOCKED: ATOM      1  C   UNL     1      23.319 -18.078  -0.831 -0.81 -0.00    +0.000 C 
DOCKED: ENDROOT
DOCKED: BRANCH   1   2
DOCKED: ATOM      2  C   UNL     1      22.493 -19.347  -0.601 -0.73 -0.00    +0.000 C 
DOCKED: BRANCH   2   4
DOCKED: ATOM      3  N   UNL     1      20.081 -20.107  -0.843 -0.75 -0.00    +0.000 N 
DOCKED: ATOM      4  C   UNL     1      21.028 -19.045  -0.704 -0.89 -0.00    +0.000 C 
DOCKED: ATOM      5  O   UNL     1      20.636 -17.847  -0.708 -2.34 -0.00    +0.000 OA
DOCKED: ATOM      6  H   UNL     1      20.393 -21.040  -0.848 -0.31 -0.00    +0.000 HD
DOCKED: BRANCH   3   7
DOCKED: ATOM      7  O   UNL     1      18.760 -19.839  -0.965 -0.78 -0.00    +0.000 OA
DOCKED: ATOM      8  H   UNL     1      18.634 -18.888  -1.112 -0.61 -0.00    +0.000 HD
DOCKED: ENDBRANCH   3   7
DOCKED: ENDBRANCH   2   4
DOCKED: ENDBRANCH   1   2
DOCKED: BRANCH   1   9
DOCKED: ATOM      9  C   UNL     1      24.808 -18.336  -0.574 -0.72 -0.00    +0.000 C 
DOCKED: BRANCH   9  10
DOCKED: ATOM     10  C   UNL     1      25.653 -17.337  -1.317 -0.54 -0.00    +0.000 A 
DOCKED: ATOM     11  C   UNL     1      25.080 -16.514  -2.301 -0.49 -0.00    +0.000 A 
DOCKED: ATOM     12  C   UNL     1      25.873 -15.610  -3.013 -0.48 -0.00    +0.000 A 
DOCKED: ATOM     13  C   UNL     1      27.244 -15.527  -2.756 -0.30 -0.00    +0.000 A 
DOCKED: ATOM     14  C   UNL     1      27.825 -16.352  -1.789 -0.30 -0.00    +0.000 A 
DOCKED: ATOM     15  C   UNL     1      27.036 -17.259  -1.075 -0.44 -0.00    +0.000 A 
DOCKED: ENDBRANCH   9  10
DOCKED: ENDBRANCH   1   9
DOCKED: TORSDOF 5
DOCKED: TER
DOCKED: ENDMDL
________________________________________________________________________________


	BEGINNING GENETIC ALGORITHM DOCKING 2 of 100
Run: 2 Seed: 1841822689 733688374 [ Run 2 of 100 GA/GALS ]
Beginning LAMARCKIAN GENETIC ALGORITHM (LGA), with a maximum of 2500000 energy evaluations.

Final-Value: -11.911


	FINAL GENETIC ALGORITHM DOCKED STATE
	_______________________________________________


Detailed state:  trans 23.919 -19.366 -1.478 quatxyzw -0.033971 -0.574535 -0.791769 -0.204591 center 0.710 -0.190 -0.071 ntor 5 170.2733 -31.8420 -105.9910 -8.3764 84.9346
State:	 23.919 -19.366  -1.478  -0.035 -0.587 -0.809 -156.389    170.27  -31.84 -105.99   -8.38   84.93

DOCKED: MODEL        2
DOCKED: USER    Run = 2
DOCKED: USER    DPF = ligand_dock.biased.dpf
DOCKED: USER  
DOCKED: USER    Estimated Free Energy of Binding    =   -9.48 kcal/mol  [=(1)+(2)+(3)-(4)]
DOCKED: USER    Estimated Inhibition Constant, Ki   =  112.14 nM (nanomolar)  [Temperature = 298.15 K]
DOCKED: USER    
DOCKED: USER    (1) Final Intermolecular Energy     =  -10.97 kcal/mol
DOCKED: USER        vdW + Hbond + desolv Energy     =  -10.97 kcal/mol
DOCKED: USER        Electrostatic Energy            =   +0.00 kcal/mol
DOCKED: USER    (2) Final Total Internal Energy     =   -0.94 kcal/mol
DOCKED: USER    (3) Torsional Free Energy           =   +1.49 kcal/mol
DOCKED: USER    (4) Unbound System's Energy  [=(2)] =   -0.94 kcal/mol
DOCKED: USER    
DOCKED: USER    
DOCKED: USER    NEWDPF move ligand.pdbqt
DOCKED: USER    NEWDPF about 0.710000 -0.190000 -0.071000
DOCKED: USER    NEWDPF tran0 23.919466 -19.366279 -1.478343
DOCKED: USER    NEWDPF quaternion0 -0.033971 -0.574535 -0.791769 -0.204591
DOCKED: USER    NEWDPF axisangle0 -0.034705 -0.586950 -0.808879 -156.388868
DOCKED: USER    NEWDPF quat0 -0.034705 -0.586950 -0.808879 -156.388868
DOCKED: USER    NEWDPF dihe0 170.27 -31.84 -105.99 -8.38 84.93 
DOCKED: USER  keepresnum = 1 
DOCKED: USER  
DOCKED: REMARK  Name = 
DOCKED: REMARK  5 active torsions:
DOCKED: REMARK  status: ('A' for Active; 'I' for Inactive)
DOCKED: REMARK    1  A    between atoms: O_1  and  N_2
DOCKED: REMARK    2  A    between atoms: C_3  and  C_4
DOCKED: REMARK    3  A    between atoms: C_4  and  C_5
DOCKED: REMARK    4  A    between atoms: C_5  and  C_6
DOCKED: REMARK    5  A    between atoms: C_6  and  C_7
DOCKED: REMARK                            x       y       z     vdW  Elec       q    Type
DOCKED: REMARK                         _______ _______ _______ _____ _____    ______ ____
DOCKED: USER                              x       y       z     vdW  Elec       q    Type
DOCKED: USER                           _______ _______ _______ _____ _____    ______ ____
DOCKED: ROOT
DOCKED: ATOM      1  C   UNL     1      23.848 -18.837  -1.142 -0.74 -0.00    +0.000 C 
DOCKED: ENDROOT
DOCKED: BRANCH   1   2
DOCKED: ATOM      2  C   UNL     1      22.757 -18.469  -0.131 -0.79 -0.00    +0.000 C 
DOCKED: BRANCH   2   4
DOCKED: ATOM      3  N   UNL     1      21.000 -19.696  -1.496 -0.75 -0.00    +0.000 N 
DOCKED: ATOM      4  C   UNL     1      21.404 -18.529  -0.776 -0.84 -0.00    +0.000 C 
DOCKED: ATOM      5  O   UNL     1      20.638 -17.531  -0.714 -2.12 +0.00    +0.000 OA
DOCKED: ATOM      6  H   UNL     1      21.605 -20.471  -1.549 -0.31 -0.00    +0.000 HD
DOCKED: BRANCH   3   7
DOCKED: ATOM      7  O   UNL     1      19.791 -19.746  -2.104 -1.81 -0.00    +0.000 OA
DOCKED: ATOM      8  H   UNL     1      19.260 -18.980  -1.832 -0.49 -0.00    +0.000 HD
DOCKED: ENDBRANCH   3   7
DOCKED: ENDBRANCH   2   4
DOCKED: ENDBRANCH   1   2
DOCKED: BRANCH   1   9
DOCKED: ATOM      9  C   UNL     1      25.243 -18.582  -0.560 -0.62 -0.00    +0.000 C 
DOCKED: BRANCH   9  10
DOCKED: ATOM     10  C   UNL     1      25.748 -17.226  -0.973 -0.55 -0.00    +0.000 A 
DOCKED: ATOM     11  C   UNL     1      25.155 -16.545  -2.049 -0.53 -0.00    +0.000 A 
DOCKED: ATOM     12  C   UNL     1      25.646 -15.299  -2.451 -0.44 -0.00    +0.000 A 
DOCKED: ATOM     13  C   UNL     1      26.737 -14.729  -1.791 -0.28 -0.00    +0.000 A 
DOCKED: ATOM     14  C   UNL     1      27.342 -15.407  -0.727 -0.28 -0.00    +0.000 A 
DOCKED: ATOM     15  C   UNL     1      26.855 -16.653  -0.322 -0.42 -0.00    +0.000 A 
DOCKED: ENDBRANCH   9  10
DOCKED: ENDBRANCH   1   9
DOCKED: TORSDOF 5
DOCKED: TER
DOCKED: ENDMDL
________________________________________________________________________________


	BEGINNING GENETIC ALGORITHM DOCKING 3 of 100
Run: 3 Seed: 1551722394 2047631410 [ Run 3 of 100 GA/GALS ]
Beginning LAMARCKIAN GENETIC ALGORITHM (LGA), with a maximum of 2500000 energy evaluations.

Final-Value: -11.162


	FINAL GENETIC ALGORITHM DOCKED STATE
	_______________________________________________


Detailed state:  trans 23.423 -18.215 0.286 quatxyzw -0.343522 0.912584 -0.220860 0.020097 center 0.710 -0.190 -0.071 ntor 5 164.7255 179.9912 69.1907 81.5464 51.3639
State:	 23.423 -18.215   0.286  -0.344  0.913 -0.221 177.697    164.73  179.99   69.19   81.55   51.36

DOCKED: MODEL        3
DOCKED: USER    Run = 3
DOCKED: USER    DPF = ligand_dock.biased.dpf
DOCKED: USER  
DOCKED: USER    Estimated Free Energy of Binding    =   -8.83 kcal/mol  [=(1)+(2)+(3)-(4)]
DOCKED: USER    Estimated Inhibition Constant, Ki   =  336.82 nM (nanomolar)  [Temperature = 298.15 K]
DOCKED: USER    
DOCKED: USER    (1) Final Intermolecular Energy     =  -10.32 kcal/mol
DOCKED: USER        vdW + Hbond + desolv Energy     =  -10.32 kcal/mol
DOCKED: USER        Electrostatic Energy            =   +0.00 kcal/mol
DOCKED: USER    (2) Final Total Internal Energy     =   -0.84 kcal/mol
DOCKED: USER    (3) Torsional Free Energy           =   +1.49 kcal/mol
DOCKED: USER    (4) Unbound System's Energy  [=(2)] =   -0.84 kcal/mol
DOCKED: USER    
DOCKED: USER    
DOCKED: USER    NEWDPF move ligand.pdbqt
DOCKED: USER    NEWDPF about 0.710000 -0.190000 -0.071000
DOCKED: USER    NEWDPF tran0 23.423403 -18.215108 0.285676
DOCKED: USER    NEWDPF quaternion0 -0.343522 0.912584 -0.220860 0.020097
DOCKED: USER    NEWDPF axisangle0 -0.343591 0.912768 -0.220904 177.696951
DOCKED: USER    NEWDPF quat0 -0.343591 0.912768 -0.220904 177.696951
DOCKED: USER    NEWDPF dihe0 164.73 179.99 69.19 81.55 51.36 
DOCKED: USER  keepresnum = 1 
DOCKED: USER  
DOCKED: REMARK  Name = 
DOCKED: REMARK  5 active torsions:
DOCKED: REMARK  status: ('A' for Active; 'I' for Inactive)
DOCKED: REMARK    1  A    between atoms: O_1  and  N_2
DOCKED: REMARK    2  A    between atoms: C_3  and  C_4
DOCKED: REMARK    3  A    between atoms: C_4  and  C_5
DOCKED: REMARK    4  A    between atoms: C_5  and  C_6
DOCKED: REMARK    5  A    between atoms: C_6  and  C_7
DOCKED: REMARK                            x       y       z     vdW  Elec       q    Type
DOCKED: REMARK                         _______ _______ _______ _____ _____    ______ ____
DOCKED: USER                              x       y       z     vdW  Elec       q    Type
DOCKED: USER                           _______ _______ _______ _____ _____    ______ ____
DOCKED: ROOT
DOCKED: ATOM      1  C   UNL     1      23.396 -18.386  -0.322 -0.80 -0.00    +0.000 C 
DOCKED: ENDROOT
DOCKED: BRANCH   1   2
DOCKED: ATOM      2  C   UNL     1      22.330 -19.207  -1.052 -0.77 -0.00    +0.000 C 
DOCKED: BRANCH   2   4
DOCKED: ATOM      3  N   UNL     1      20.464 -19.888   0.533 -0.69 -0.00    +0.000 N 
DOCKED: ATOM      4  C   UNL     1      20.980 -18.976  -0.440 -0.86 -0.00    +0.000 C 
DOCKED: ATOM      5  O   UNL     1      20.285 -17.995  -0.815 -2.19 -0.00    +0.000 OA
DOCKED: ATOM      6  H   UNL     1      21.008 -20.658   0.817 -0.59 -0.00    +0.000 HD
DOCKED: BRANCH   3   7
DOCKED: ATOM      7  O   UNL     1      19.235 -19.700   1.069 -0.76 -0.00    +0.000 OA
DOCKED: ATOM      8  H   UNL     1      18.935 -18.797   0.881 -0.32 -0.00    +0.000 HD
DOCKED: ENDBRANCH   3   7
DOCKED: ENDBRANCH   2   4
DOCKED: ENDBRANCH   1   2
DOCKED: BRANCH   1   9
DOCKED: ATOM      9  C   UNL     1      23.705 -17.090  -1.079 -0.69 -0.00    +0.000 C 
DOCKED: BRANCH   9  10
DOCKED: ATOM     10  C   UNL     1      25.189 -16.942  -1.290 -0.56 -0.00    +0.000 A 
DOCKED: ATOM     11  C   UNL     1      25.681 -16.122  -2.318 -0.48 -0.00    +0.000 A 
DOCKED: ATOM     12  C   UNL     1      27.058 -16.012  -2.533 -0.33 -0.00    +0.000 A 
DOCKED: ATOM     13  C   UNL     1      27.952 -16.725  -1.730 -0.32 -0.00    +0.000 A 
DOCKED: ATOM     14  C   UNL     1      27.469 -17.554  -0.713 -0.41 -0.00    +0.000 A 
DOCKED: ATOM     15  C   UNL     1      26.093 -17.668  -0.495 -0.56 -0.00    +0.000 A 
DOCKED: ENDBRANCH   9  10
DOCKED: ENDBRANCH   1   9
DOCKED: TORSDOF 5
DOCKED: TER
DOCKED: ENDMDL
________________________________________________________________________________


	BEGINNING GENETIC ALGORITHM DOCKING 4 of 100
Run: 4 Seed: 241110183 79881666 [ Run 4 of 100 GA/GALS ]
Beginning LAMARCKIAN GENETIC ALGORITHM (LGA), with a maximum of 2500000 energy evaluations.

Final-Value: -11.358


	FINAL GENETIC ALGORITHM DOCKED STATE
	_______________________________________________


Detailed state:  trans 23.425 -19.246 -0.036 quatxyzw -0.390844 0.912588 0.105777 -0.056881 center 0.710 -0.190 -0.071 ntor 5 -150.4959 152.4945 25.4818 111.7279 67.4319
State:	 23.425 -19.246  -0.036  -0.391  0.914  0.106 -173.478   -150.50  152.49   25.48  111.73   67.43

DOCKED: MODEL        4
DOCKED: USER    Run = 4
DOCKED: USER    DPF = ligand_dock.biased.dpf
DOCKED: USER  
DOCKED: USER    Estimated Free Energy of Binding    =   -9.11 kcal/mol  [=(1)+(2)+(3)-(4)]
DOCKED: USER    Estimated Inhibition Constant, Ki   =  210.64 nM (nanomolar)  [Temperature = 298.15 K]
DOCKED: USER    
DOCKED: USER    (1) Final Intermolecular Energy     =  -10.60 kcal/mol
DOCKED: USER        vdW + Hbond + desolv Energy     =  -10.60 kcal/mol
DOCKED: USER        Electrostatic Energy            =   +0.00 kcal/mol
DOCKED: USER    (2) Final Total Internal Energy     =   -0.76 kcal/mol
DOCKED: USER    (3) Torsional Free Energy           =   +1.49 kcal/mol
DOCKED: USER    (4) Unbound System's Energy  [=(2)] =   -0.76 kcal/mol
DOCKED: USER    
DOCKED: USER    
DOCKED: USER    NEWDPF move ligand.pdbqt
DOCKED: USER    NEWDPF about 0.710000 -0.190000 -0.071000
DOCKED: USER    NEWDPF tran0 23.424536 -19.245853 -0.035547
DOCKED: USER    NEWDPF quaternion0 -0.390844 0.912588 0.105777 -0.056881
DOCKED: USER    NEWDPF axisangle0 -0.391477 0.914068 0.105949 -173.478366
DOCKED: USER    NEWDPF quat0 -0.391477 0.914068 0.105949 -173.478366
DOCKED: USER    NEWDPF dihe0 -150.50 152.49 25.48 111.73 67.43 
DOCKED: USER  keepresnum = 1 
DOCKED: USER  
DOCKED: REMARK  Name = 
DOCKED: REMARK  5 active torsions:
DOCKED: REMARK  status: ('A' for Active; 'I' for Inactive)
DOCKED: REMARK    1  A    between atoms: O_1  and  N_2
DOCKED: REMARK    2  A    between atoms: C_3  and  C_4
DOCKED: REMARK    3  A    between atoms: C_4  and  C_5
DOCKED: REMARK    4  A    between atoms: C_5  and  C_6
DOCKED: REMARK    5  A    between atoms: C_6  and  C_7
DOCKED: REMARK                            x       y       z     vdW  Elec       q    Type
DOCKED: REMARK                         _______ _______ _______ _____ _____    ______ ____
DOCKED: USER                              x       y       z     vdW  Elec       q    Type
DOCKED: USER                           _______ _______ _______ _____ _____    ______ ____
DOCKED: ROOT
DOCKED: ATOM      1  C   UNL     1      23.328 -19.014  -0.615 -0.77 -0.00    +0.000 C 
DOCKED: ENDROOT
DOCKED: BRANCH   1   2
DOCKED: ATOM      2  C   UNL     1      22.231 -19.357  -1.627 -0.44 -0.00    +0.000 C 
DOCKED: BRANCH   2   4
DOCKED: ATOM      3  N   UNL     1      19.863 -20.021  -0.989 -0.75 -0.00    +0.000 N 
DOCKED: ATOM      4  C   UNL     1      20.880 -19.019  -1.070 -0.87 -0.00    +0.000 C 
DOCKED: ATOM      5  O   UNL     1      20.631 -17.839  -0.707 -2.34 -0.00    +0.000 OA
DOCKED: ATOM      6  H   UNL     1      20.059 -20.940  -1.282 -0.56 -0.00    +0.000 HD
DOCKED: BRANCH   3   7
DOCKED: ATOM      7  O   UNL     1      18.632 -19.716  -0.513 -0.84 -0.00    +0.000 OA
DOCKED: ATOM      8  H   UNL     1      18.433 -18.785  -0.704 -0.58 -0.00    +0.000 HD
DOCKED: ENDBRANCH   3   7
DOCKED: ENDBRANCH   2   4
DOCKED: ENDBRANCH   1   2
DOCKED: BRANCH   1   9
DOCKED: ATOM      9  C   UNL     1      23.446 -17.497  -0.425 -0.72 -0.00    +0.000 C 
DOCKED: BRANCH   9  10
DOCKED: ATOM     10  C   UNL     1      24.758 -16.998  -0.966 -0.58 -0.00    +0.000 A 
DOCKED: ATOM     11  C   UNL     1      24.788 -16.138  -2.076 -0.42 -0.00    +0.000 A 
DOCKED: ATOM     12  C   UNL     1      26.009 -15.701  -2.597 -0.45 -0.00    +0.000 A 
DOCKED: ATOM     13  C   UNL     1      27.209 -16.125  -2.020 -0.32 -0.00    +0.000 A 
DOCKED: ATOM     14  C   UNL     1      27.189 -16.992  -0.923 -0.42 -0.00    +0.000 A 
DOCKED: ATOM     15  C   UNL     1      25.970 -17.432  -0.399 -0.55 -0.00    +0.000 A 
DOCKED: ENDBRANCH   9  10
DOCKED: ENDBRANCH   1   9
DOCKED: TORSDOF 5
DOCKED: TER
DOCKED: ENDMDL
________________________________________________________________________________


	BEGINNING GENETIC ALGORITHM DOCKING 5 of 100
Run: 5 Seed: 2013936454 1342863428 [ Run 5 of 100 GA/GALS ]
Beginning LAMARCKIAN GENETIC ALGORITHM (LGA), with a maximum of 2500000 energy evaluations.

Final-Value: -11.294


	FINAL GENETIC ALGORITHM DOCKED STATE
	_______________________________________________


Detailed state:  trans 23.310 -17.865 0.203 quatxyzw 0.218705 0.749850 -0.604496 -0.156452 center 0.710 -0.190 -0.071 ntor 5 -155.6255 147.9853 -146.3972 1.9641 -85.1249
State:	 23.310 -17.865   0.203   0.221  0.759 -0.612 -161.998   -155.63  147.99 -146.40    1.96  -85.12

DOCKED: MODEL        5
DOCKED: USER    Run = 5
DOCKED: USER    DPF = ligand_dock.biased.dpf
DOCKED: USER  
DOCKED: USER    Estimated Free Energy of Binding    =   -8.99 kcal/mol  [=(1)+(2)+(3)-(4)]
DOCKED: USER    Estimated Inhibition Constant, Ki   =  258.19 nM (nanomolar)  [Temperature = 298.15 K]
DOCKED: USER    
DOCKED: USER    (1) Final Intermolecular Energy     =  -10.48 kcal/mol
DOCKED: USER        vdW + Hbond + desolv Energy     =  -10.48 kcal/mol
DOCKED: USER        Electrostatic Energy            =   +0.00 kcal/mol
DOCKED: USER    (2) Final Total Internal Energy     =   -0.82 kcal/mol
DOCKED: USER    (3) Torsional Free Energy           =   +1.49 kcal/mol
DOCKED: USER    (4) Unbound System's Energy  [=(2)] =   -0.82 kcal/mol
DOCKED: USER    
DOCKED: USER    
DOCKED: USER    NEWDPF move ligand.pdbqt
DOCKED: USER    NEWDPF about 0.710000 -0.190000 -0.071000
DOCKED: USER    NEWDPF tran0 23.309916 -17.865438 0.202849
DOCKED: USER    NEWDPF quaternion0 0.218705 0.749850 -0.604496 -0.156452
DOCKED: USER    NEWDPF axisangle0 0.221432 0.759199 -0.612033 -161.998021
DOCKED: USER    NEWDPF quat0 0.221432 0.759199 -0.612033 -161.998021
DOCKED: USER    NEWDPF dihe0 -155.63 147.99 -146.40 1.96 -85.12 
DOCKED: USER  keepresnum = 1 
DOCKED: USER  
DOCKED: REMARK  Name = 
DOCKED: REMARK  5 active torsions:
DOCKED: REMARK  status: ('A' for Active; 'I' for Inactive)
DOCKED: REMARK    1  A    between atoms: O_1  and  N_2
DOCKED: REMARK    2  A    between atoms: C_3  and  C_4
DOCKED: REMARK    3  A    between atoms: C_4  and  C_5
DOCKED: REMARK    4  A    between atoms: C_5  and  C_6
DOCKED: REMARK    5  A    between atoms: C_6  and  C_7
DOCKED: REMARK                            x       y       z     vdW  Elec       q    Type
DOCKED: REMARK                         _______ _______ _______ _____ _____    ______ ____
DOCKED: USER                              x       y       z     vdW  Elec       q    Type
DOCKED: USER                           _______ _______ _______ _____ _____    ______ ____
DOCKED: ROOT
DOCKED: ATOM      1  C   UNL     1      23.354 -18.440  -0.056 -0.74 -0.00    +0.000 C 
DOCKED: ENDROOT
DOCKED: BRANCH   1   2
DOCKED: ATOM      2  C   UNL     1      22.529 -19.060  -1.188 -0.78 -0.00    +0.000 C 
DOCKED: BRANCH   2   4
DOCKED: ATOM      3  N   UNL     1      20.155 -19.944  -1.000 -0.79 -0.00    +0.000 N 
DOCKED: ATOM      4  C   UNL     1      21.065 -18.843  -0.949 -0.85 -0.00    +0.000 C 
DOCKED: ATOM      5  O   UNL     1      20.632 -17.678  -0.741 -2.22 -0.00    +0.000 OA
DOCKED: ATOM      6  H   UNL     1      20.496 -20.851  -1.172 -0.33 -0.00    +0.000 HD
DOCKED: BRANCH   3   7
DOCKED: ATOM      7  O   UNL     1      18.828 -19.751  -0.813 -0.91 -0.00    +0.000 OA
DOCKED: ATOM      8  H   UNL     1      18.600 -18.835  -1.038 -0.60 -0.00    +0.000 HD
DOCKED: ENDBRANCH   3   7
DOCKED: ENDBRANCH   2   4
DOCKED: ENDBRANCH   1   2
DOCKED: BRANCH   1   9
DOCKED: ATOM      9  C   UNL     1      24.855 -18.611  -0.313 -0.62 -0.00    +0.000 C 
DOCKED: BRANCH   9  10
DOCKED: ATOM     10  C   UNL     1      25.418 -17.387  -0.986 -0.58 -0.00    +0.000 A 
DOCKED: ATOM     11  C   UNL     1      24.893 -16.947  -2.212 -0.50 -0.00    +0.000 A 
DOCKED: ATOM     12  C   UNL     1      25.438 -15.830  -2.851 -0.47 -0.00    +0.000 A 
DOCKED: ATOM     13  C   UNL     1      26.517 -15.151  -2.278 -0.34 -0.00    +0.000 A 
DOCKED: ATOM     14  C   UNL     1      27.054 -15.591  -1.064 -0.31 -0.00    +0.000 A 
DOCKED: ATOM     15  C   UNL     1      26.512 -16.708  -0.422 -0.44 -0.00    +0.000 A 
DOCKED: ENDBRANCH   9  10
DOCKED: ENDBRANCH   1   9
DOCKED: TORSDOF 5
DOCKED: TER
DOCKED: ENDMDL
________________________________________________________________________________


	BEGINNING GENETIC ALGORITHM DOCKING 6 of 100
Run: 6 Seed: 752496990 1116277152 [ Run 6 of 100 GA/GALS ]
Beginning LAMARCKIAN GENETIC ALGORITHM (LGA), with a maximum of 2500000 energy evaluations.

Final-Value: -11.139


	FINAL GENETIC ALGORITHM DOCKED STATE
	_______________________________________________


Detailed state:  trans 23.530 -17.884 0.485 quatxyzw 0.273715 0.878738 -0.368131 -0.131830 center 0.710 -0.190 -0.071 ntor 5 -160.1795 167.1146 14.1560 -14.4093 -123.5131
State:	 23.530 -17.884   0.485   0.276  0.886 -0.371 -164.849   -160.18  167.11   14.16  -14.41 -123.51

DOCKED: MODEL        6
DOCKED: USER    Run = 6
DOCKED: USER    DPF = ligand_dock.biased.dpf
DOCKED: USER  
DOCKED: USER    Estimated Free Energy of Binding    =   -8.96 kcal/mol  [=(1)+(2)+(3)-(4)]
DOCKED: USER    Estimated Inhibition Constant, Ki   =  268.62 nM (nanomolar)  [Temperature = 298.15 K]
DOCKED: USER    
DOCKED: USER    (1) Final Intermolecular Energy     =  -10.46 kcal/mol
DOCKED: USER        vdW + Hbond + desolv Energy     =  -10.46 kcal/mol
DOCKED: USER        Electrostatic Energy            =   +0.00 kcal/mol
DOCKED: USER    (2) Final Total Internal Energy     =   -0.68 kcal/mol
DOCKED: USER    (3) Torsional Free Energy           =   +1.49 kcal/mol
DOCKED: USER    (4) Unbound System's Energy  [=(2)] =   -0.68 kcal/mol
DOCKED: USER    
DOCKED: USER    
DOCKED: USER    NEWDPF move ligand.pdbqt
DOCKED: USER    NEWDPF about 0.710000 -0.190000 -0.071000
DOCKED: USER    NEWDPF tran0 23.529647 -17.883692 0.484926
DOCKED: USER    NEWDPF quaternion0 0.273715 0.878738 -0.368131 -0.131830
DOCKED: USER    NEWDPF axisangle0 0.276125 0.886475 -0.371372 -164.849349
DOCKED: USER    NEWDPF quat0 0.276125 0.886475 -0.371372 -164.849349
DOCKED: USER    NEWDPF dihe0 -160.18 167.11 14.16 -14.41 -123.51 
DOCKED: USER  keepresnum = 1 
DOCKED: USER  
DOCKED: REMARK  Name = 
DOCKED: REMARK  5 active torsions:
DOCKED: REMARK  status: ('A' for Active; 'I' for Inactive)
DOCKED: REMARK    1  A    between atoms: O_1  and  N_2
DOCKED: REMARK    2  A    between atoms: C_3  and  C_4
DOCKED: REMARK    3  A    between atoms: C_4  and  C_5
DOCKED: REMARK    4  A    between atoms: C_5  and  C_6
DOCKED: REMARK    5  A    between atoms: C_6  and  C_7
DOCKED: REMARK                            x       y       z     vdW  Elec       q    Type
DOCKED: REMARK                         _______ _______ _______ _____ _____    ______ ____
DOCKED: USER                              x       y       z     vdW  Elec       q    Type
DOCKED: USER                           _______ _______ _______ _____ _____    ______ ____
DOCKED: ROOT
DOCKED: ATOM      1  C   UNL     1      23.619 -18.241  -0.028 -0.75 -0.00    +0.000 C 
DOCKED: ENDROOT
DOCKED: BRANCH   1   2
DOCKED: ATOM      2  C   UNL     1      22.920 -18.177  -1.389 -0.69 -0.00    +0.000 C 
DOCKED: BRANCH   2   4
DOCKED: ATOM      3  N   UNL     1      20.946 -19.734  -1.754 -0.71 -0.00    +0.000 N 
DOCKED: ATOM      4  C   UNL     1      21.464 -18.502  -1.246 -0.48 -0.00    +0.000 C 
DOCKED: ATOM      5  O   UNL     1      20.688 -17.668  -0.709 -2.20 -0.00    +0.000 OA
DOCKED: ATOM      6  H   UNL     1      21.554 -20.380  -2.181 -0.52 -0.00    +0.000 HD
DOCKED: BRANCH   3   7
DOCKED: ATOM      7  O   UNL     1      19.627 -20.021  -1.653 -1.51 -0.00    +0.000 OA
DOCKED: ATOM      8  H   UNL     1      19.127 -19.201  -1.510 -0.53 -0.00    +0.000 HD
DOCKED: ENDBRANCH   3   7
DOCKED: ENDBRANCH   2   4
DOCKED: ENDBRANCH   1   2
DOCKED: BRANCH   1   9
DOCKED: ATOM      9  C   UNL     1      25.143 -18.265  -0.194 -0.68 -0.00    +0.000 C 
DOCKED: BRANCH   9  10
DOCKED: ATOM     10  C   UNL     1      25.608 -17.070  -0.982 -0.55 -0.00    +0.000 A 
DOCKED: ATOM     11  C   UNL     1      26.201 -15.977  -0.329 -0.31 -0.00    +0.000 A 
DOCKED: ATOM     12  C   UNL     1      26.603 -14.854  -1.059 -0.30 -0.00    +0.000 A 
DOCKED: ATOM     13  C   UNL     1      26.406 -14.809  -2.441 -0.34 -0.00    +0.000 A 
DOCKED: ATOM     14  C   UNL     1      25.804 -15.888  -3.097 -0.48 -0.00    +0.000 A 
DOCKED: ATOM     15  C   UNL     1      25.400 -17.012  -2.371 -0.42 -0.00    +0.000 A 
DOCKED: ENDBRANCH   9  10
DOCKED: ENDBRANCH   1   9
DOCKED: TORSDOF 5
DOCKED: TER
DOCKED: ENDMDL
________________________________________________________________________________


	BEGINNING GENETIC ALGORITHM DOCKING 7 of 100
Run: 7 Seed: 1344550372 894350448 [ Run 7 of 100 GA/GALS ]
Beginning LAMARCKIAN GENETIC ALGORITHM (LGA), with a maximum of 2500000 energy evaluations.

Final-Value: -11.390


	FINAL GENETIC ALGORITHM DOCKED STATE
	_______________________________________________


Detailed state:  trans 23.591 -17.558 -2.107 quatxyzw -0.011748 0.051287 0.950614 0.305882 center 0.710 -0.190 -0.071 ntor 5 178.5646 26.6069 -143.9441 4.9121 35.5222
State:	 23.591 -17.558  -2.107  -0.012  0.054  0.998 144.377    178.56   26.61 -143.94    4.91   35.52

DOCKED: MODEL        7
DOCKED: USER    Run = 7
DOCKED: USER    DPF = ligand_dock.biased.dpf
DOCKED: USER  
DOCKED: USER    Estimated Free Energy of Binding    =   -9.05 kcal/mol  [=(1)+(2)+(3)-(4)]
DOCKED: USER    Estimated Inhibition Constant, Ki   =  232.12 nM (nanomolar)  [Temperature = 298.15 K]
DOCKED: USER    
DOCKED: USER    (1) Final Intermolecular Energy     =  -10.54 kcal/mol
DOCKED: USER        vdW + Hbond + desolv Energy     =  -10.54 kcal/mol
DOCKED: USER        Electrostatic Energy            =   +0.00 kcal/mol
DOCKED: USER    (2) Final Total Internal Energy     =   -0.85 kcal/mol
DOCKED: USER    (3) Torsional Free Energy           =   +1.49 kcal/mol
DOCKED: USER    (4) Unbound System's Energy  [=(2)] =   -0.85 kcal/mol
DOCKED: USER    
DOCKED: USER    
DOCKED: USER    NEWDPF move ligand.pdbqt
DOCKED: USER    NEWDPF about 0.710000 -0.190000 -0.071000
DOCKED: USER    NEWDPF tran0 23.590666 -17.558052 -2.106584
DOCKED: USER    NEWDPF quaternion0 -0.011748 0.051287 0.950614 0.305882
DOCKED: USER    NEWDPF axisangle0 -0.012339 0.053869 0.998472 144.377489
DOCKED: USER    NEWDPF quat0 -0.012339 0.053869 0.998472 144.377489
DOCKED: USER    NEWDPF dihe0 178.56 26.61 -143.94 4.91 35.52 
DOCKED: USER  keepresnum = 1 
DOCKED: USER  
DOCKED: REMARK  Name = 
DOCKED: REMARK  5 active torsions:
DOCKED: REMARK  status: ('A' for Active; 'I' for Inactive)
DOCKED: REMARK    1  A    between atoms: O_1  and  N_2
DOCKED: REMARK    2  A    between atoms: C_3  and  C_4
DOCKED: REMARK    3  A    between atoms: C_4  and  C_5
DOCKED: REMARK    4  A    between atoms: C_5  and  C_6
DOCKED: REMARK    5  A    between atoms: C_6  and  C_7
DOCKED: REMARK                            x       y       z     vdW  Elec       q    Type
DOCKED: REMARK                         _______ _______ _______ _____ _____    ______ ____
DOCKED: USER                              x       y       z     vdW  Elec       q    Type
DOCKED: USER                           _______ _______ _______ _____ _____    ______ ____
DOCKED: ROOT
DOCKED: ATOM      1  C   UNL     1      23.629 -17.622  -1.479 -0.69 -0.00    +0.000 C 
DOCKED: ENDROOT
DOCKED: BRANCH   1   2
DOCKED: ATOM      2  C   UNL     1      22.861 -18.568  -0.552 -0.83 -0.00    +0.000 C 
DOCKED: BRANCH   2   4
DOCKED: ATOM      3  N   UNL     1      20.813 -19.734  -1.502 -0.78 -0.00    +0.000 N 
DOCKED: ATOM      4  C   UNL     1      21.403 -18.577  -0.904 -0.82 -0.00    +0.000 C 
DOCKED: ATOM      5  O   UNL     1      20.707 -17.547  -0.706 -2.12 +0.00    +0.000 OA
DOCKED: ATOM      6  H   UNL     1      21.363 -20.534  -1.663 -0.31 -0.00    +0.000 HD
DOCKED: BRANCH   3   7
DOCKED: ATOM      7  O   UNL     1      19.504 -19.739  -1.848 -1.66 -0.00    +0.000 OA
DOCKED: ATOM      8  H   UNL     1      19.102 -18.890  -1.604 -0.56 -0.00    +0.000 HD
DOCKED: ENDBRANCH   3   7
DOCKED: ENDBRANCH   2   4
DOCKED: ENDBRANCH   1   2
DOCKED: BRANCH   1   9
DOCKED: ATOM      9  C   UNL     1      25.137 -17.696  -1.212 -0.68 -0.00    +0.000 C 
DOCKED: BRANCH   9  10
DOCKED: ATOM     10  C   UNL     1      25.771 -16.342  -1.388 -0.48 -0.00    +0.000 A 
DOCKED: ATOM     11  C   UNL     1      25.613 -15.635  -2.592 -0.47 -0.00    +0.000 A 
DOCKED: ATOM     12  C   UNL     1      26.229 -14.392  -2.765 -0.34 -0.00    +0.000 A 
DOCKED: ATOM     13  C   UNL     1      27.014 -13.851  -1.744 -0.20 -0.00    +0.000 A 
DOCKED: ATOM     14  C   UNL     1      27.187 -14.554  -0.548 -0.25 -0.00    +0.000 A 
DOCKED: ATOM     15  C   UNL     1      26.573 -15.797  -0.370 -0.34 -0.00    +0.000 A 
DOCKED: ENDBRANCH   9  10
DOCKED: ENDBRANCH   1   9
DOCKED: TORSDOF 5
DOCKED: TER
DOCKED: ENDMDL
________________________________________________________________________________


	BEGINNING GENETIC ALGORITHM DOCKING 8 of 100
Run: 8 Seed: 1995966190 1692211476 [ Run 8 of 100 GA/GALS ]
Beginning LAMARCKIAN GENETIC ALGORITHM (LGA), with a maximum of 2500000 energy evaluations.

Final-Value: -11.073


	FINAL GENETIC ALGORITHM DOCKED STATE
	_______________________________________________


Detailed state:  trans 23.695 -19.217 -1.982 quatxyzw 0.169402 -0.582717 -0.463694 -0.645548 center 0.710 -0.190 -0.071 ntor 5 -164.0240 34.5097 -136.3262 -98.5160 -74.8531
State:	 23.695 -19.217  -1.982   0.222 -0.763 -0.607 -99.586   -164.02   34.51 -136.33  -98.52  -74.85

DOCKED: MODEL        8
DOCKED: USER    Run = 8
DOCKED: USER    DPF = ligand_dock.biased.dpf
DOCKED: USER  
DOCKED: USER    Estimated Free Energy of Binding    =   -8.71 kcal/mol  [=(1)+(2)+(3)-(4)]
DOCKED: USER    Estimated Inhibition Constant, Ki   =  415.46 nM (nanomolar)  [Temperature = 298.15 K]
DOCKED: USER    
DOCKED: USER    (1) Final Intermolecular Energy     =  -10.20 kcal/mol
DOCKED: USER        vdW + Hbond + desolv Energy     =  -10.20 kcal/mol
DOCKED: USER        Electrostatic Energy            =   +0.00 kcal/mol
DOCKED: USER    (2) Final Total Internal Energy     =   -0.88 kcal/mol
DOCKED: USER    (3) Torsional Free Energy           =   +1.49 kcal/mol
DOCKED: USER    (4) Unbound System's Energy  [=(2)] =   -0.88 kcal/mol
DOCKED: USER    
DOCKED: USER    
DOCKED: USER    NEWDPF move ligand.pdbqt
DOCKED: USER    NEWDPF about 0.710000 -0.190000 -0.071000
DOCKED: USER    NEWDPF tran0 23.695411 -19.216823 -1.982050
DOCKED: USER    NEWDPF quaternion0 0.169402 -0.582717 -0.463694 -0.645548
DOCKED: USER    NEWDPF axisangle0 0.221812 -0.762998 -0.607152 -99.586494
DOCKED: USER    NEWDPF quat0 0.221812 -0.762998 -0.607152 -99.586494
DOCKED: USER    NEWDPF dihe0 -164.02 34.51 -136.33 -98.52 -74.85 
DOCKED: USER  keepresnum = 1 
DOCKED: USER  
DOCKED: REMARK  Name = 
DOCKED: REMARK  5 active torsions:
DOCKED: REMARK  status: ('A' for Active; 'I' for Inactive)
DOCKED: REMARK    1  A    between atoms: O_1  and  N_2
DOCKED: REMARK    2  A    between atoms: C_3  and  C_4
DOCKED: REMARK    3  A    between atoms: C_4  and  C_5
DOCKED: REMARK    4  A    between atoms: C_5  and  C_6
DOCKED: REMARK    5  A    between atoms: C_6  and  C_7
DOCKED: REMARK                            x       y       z     vdW  Elec       q    Type
DOCKED: REMARK                         _______ _______ _______ _____ _____    ______ ____
DOCKED: USER                              x       y       z     vdW  Elec       q    Type
DOCKED: USER                           _______ _______ _______ _____ _____    ______ ____
DOCKED: ROOT
DOCKED: ATOM      1  C   UNL     1      23.190 -18.956  -1.706 -0.67 -0.00    +0.000 C 
DOCKED: ENDROOT
DOCKED: BRANCH   1   2
DOCKED: ATOM      2  C   UNL     1      22.429 -19.404  -0.455 -0.63 -0.00    +0.000 C 
DOCKED: BRANCH   2   4
DOCKED: ATOM      3  N   UNL     1      19.981 -20.075  -0.571 -0.76 -0.00    +0.000 N 
DOCKED: ATOM      4  C   UNL     1      20.977 -19.049  -0.571 -0.88 -0.00    +0.000 C 
DOCKED: ATOM      5  O   UNL     1      20.637 -17.843  -0.706 -2.34 -0.00    +0.000 OA
DOCKED: ATOM      6  H   UNL     1      20.251 -21.017  -0.474 -0.23 -0.00    +0.000 HD
DOCKED: BRANCH   3   7
DOCKED: ATOM      7  O   UNL     1      18.670 -19.764  -0.704 -0.86 -0.00    +0.000 OA
DOCKED: ATOM      8  H   UNL     1      18.586 -18.856  -1.036 -0.60 -0.00    +0.000 HD
DOCKED: ENDBRANCH   3   7
DOCKED: ENDBRANCH   2   4
DOCKED: ENDBRANCH   1   2
DOCKED: BRANCH   1   9
DOCKED: ATOM      9  C   UNL     1      23.543 -17.467  -1.632 -0.45 -0.00    +0.000 C 
DOCKED: BRANCH   9  10
DOCKED: ATOM     10  C   UNL     1      25.006 -17.285  -1.328 -0.60 -0.00    +0.000 A 
DOCKED: ATOM     11  C   UNL     1      25.611 -18.012  -0.290 -0.61 -0.00    +0.000 A 
DOCKED: ATOM     12  C   UNL     1      26.962 -17.818   0.012 -0.38 -0.00    +0.000 A 
DOCKED: ATOM     13  C   UNL     1      27.716 -16.892  -0.713 -0.37 -0.00    +0.000 A 
DOCKED: ATOM     14  C   UNL     1      27.118 -16.155  -1.740 -0.34 -0.00    +0.000 A 
DOCKED: ATOM     15  C   UNL     1      25.767 -16.344  -2.044 -0.49 -0.00    +0.000 A 
DOCKED: ENDBRANCH   9  10
DOCKED: ENDBRANCH   1   9
DOCKED: TORSDOF 5
DOCKED: TER
DOCKED: ENDMDL
________________________________________________________________________________


	BEGINNING GENETIC ALGORITHM DOCKING 9 of 100
Run: 9 Seed: 1893799319 1245941189 [ Run 9 of 100 GA/GALS ]
Beginning LAMARCKIAN GENETIC ALGORITHM (LGA), with a maximum of 2500000 energy evaluations.

Final-Value: -11.268


	FINAL GENETIC ALGORITHM DOCKED STATE
	_______________________________________________


Detailed state:  trans 22.967 -18.348 0.450 quatxyzw 0.297285 0.842963 -0.390493 0.220339 center 0.710 -0.190 -0.071 ntor 5 -178.0161 -3.0059 -175.3437 -83.0479 -73.1019
State:	 22.967 -18.348   0.450   0.305  0.864 -0.400 154.542   -178.02   -3.01 -175.34  -83.05  -73.10

DOCKED: MODEL        9
DOCKED: USER    Run = 9
DOCKED: USER    DPF = ligand_dock.biased.dpf
DOCKED: USER  
DOCKED: USER    Estimated Free Energy of Binding    =   -8.86 kcal/mol  [=(1)+(2)+(3)-(4)]
DOCKED: USER    Estimated Inhibition Constant, Ki   =  320.59 nM (nanomolar)  [Temperature = 298.15 K]
DOCKED: USER    
DOCKED: USER    (1) Final Intermolecular Energy     =  -10.35 kcal/mol
DOCKED: USER        vdW + Hbond + desolv Energy     =  -10.35 kcal/mol
DOCKED: USER        Electrostatic Energy            =   +0.00 kcal/mol
DOCKED: USER    (2) Final Total Internal Energy     =   -0.92 kcal/mol
DOCKED: USER    (3) Torsional Free Energy           =   +1.49 kcal/mol
DOCKED: USER    (4) Unbound System's Energy  [=(2)] =   -0.92 kcal/mol
DOCKED: USER    
DOCKED: USER    
DOCKED: USER    NEWDPF move ligand.pdbqt
DOCKED: USER    NEWDPF about 0.710000 -0.190000 -0.071000
DOCKED: USER    NEWDPF tran0 22.967217 -18.347776 0.449584
DOCKED: USER    NEWDPF quaternion0 0.297285 0.842963 -0.390493 0.220339
DOCKED: USER    NEWDPF axisangle0 0.304775 0.864203 -0.400332 154.542053
DOCKED: USER    NEWDPF quat0 0.304775 0.864203 -0.400332 154.542053
DOCKED: USER    NEWDPF dihe0 -178.02 -3.01 -175.34 -83.05 -73.10 
DOCKED: USER  keepresnum = 1 
DOCKED: USER  
DOCKED: REMARK  Name = 
DOCKED: REMARK  5 active torsions:
DOCKED: REMARK  status: ('A' for Active; 'I' for Inactive)
DOCKED: REMARK    1  A    between atoms: O_1  and  N_2
DOCKED: REMARK    2  A    between atoms: C_3  and  C_4
DOCKED: REMARK    3  A    between atoms: C_4  and  C_5
DOCKED: REMARK    4  A    between atoms: C_5  and  C_6
DOCKED: REMARK    5  A    between atoms: C_6  and  C_7
DOCKED: REMARK                            x       y       z     vdW  Elec       q    Type
DOCKED: REMARK                         _______ _______ _______ _____ _____    ______ ____
DOCKED: USER                              x       y       z     vdW  Elec       q    Type
DOCKED: USER                           _______ _______ _______ _____ _____    ______ ____
DOCKED: ROOT
DOCKED: ATOM      1  C   UNL     1      22.633 -18.592  -0.028 -0.78 -0.00    +0.000 C 
DOCKED: ENDROOT
DOCKED: BRANCH   1   2
DOCKED: ATOM      2  C   UNL     1      21.380 -18.043  -0.715 -0.75 -0.00    +0.000 C 
DOCKED: BRANCH   2   4
DOCKED: ATOM      3  N   UNL     1      19.512 -19.471   0.248 -0.73 -0.00    +0.000 N 
DOCKED: ATOM      4  C   UNL     1      20.346 -19.120  -0.859 -0.89 -0.00    +0.000 C 
DOCKED: ATOM      5  O   UNL     1      20.241 -19.742  -1.949 -1.86 -0.00    +0.000 OA
DOCKED: ATOM      6  H   UNL     1      19.604 -18.988   1.100 -0.27 -0.00    +0.000 HD
DOCKED: BRANCH   3   7
DOCKED: ATOM      7  O   UNL     1      18.597 -20.462   0.133 -0.83 -0.00    +0.000 OA
DOCKED: ATOM      8  H   UNL     1      18.654 -20.855  -0.753 -0.40 -0.00    +0.000 HD
DOCKED: ENDBRANCH   3   7
DOCKED: ENDBRANCH   2   4
DOCKED: ENDBRANCH   1   2
DOCKED: BRANCH   1   9
DOCKED: ATOM      9  C   UNL     1      23.699 -18.982  -1.058 -0.77 -0.00    +0.000 C 
DOCKED: BRANCH   9  10
DOCKED: ATOM     10  C   UNL     1      24.829 -17.987  -1.051 -0.64 -0.00    +0.000 A 
DOCKED: ATOM     11  C   UNL     1      24.756 -16.825  -1.836 -0.56 -0.00    +0.000 A 
DOCKED: ATOM     12  C   UNL     1      25.820 -15.918  -1.853 -0.46 -0.00    +0.000 A 
DOCKED: ATOM     13  C   UNL     1      26.967 -16.169  -1.095 -0.37 -0.00    +0.000 A 
DOCKED: ATOM     14  C   UNL     1      27.053 -17.331  -0.321 -0.45 -0.00    +0.000 A 
DOCKED: ATOM     15  C   UNL     1      25.991 -18.240  -0.302 -0.59 -0.00    +0.000 A 
DOCKED: ENDBRANCH   9  10
DOCKED: ENDBRANCH   1   9
DOCKED: TORSDOF 5
DOCKED: TER
DOCKED: ENDMDL
________________________________________________________________________________


	BEGINNING GENETIC ALGORITHM DOCKING 10 of 100
Run: 10 Seed: 1291753330 1724883305 [ Run 10 of 100 GA/GALS ]
Beginning LAMARCKIAN GENETIC ALGORITHM (LGA), with a maximum of 2500000 energy evaluations.

Final-Value: -11.750


	FINAL GENETIC ALGORITHM DOCKED STATE
	_______________________________________________


Detailed state:  trans 24.000 -18.481 -1.985 quatxyzw -0.011271 0.446606 0.837487 0.314693 center 0.710 -0.190 -0.071 ntor 5 176.6900 -17.1150 -59.0166 -8.1636 39.0011
State:	 24.000 -18.481  -1.985  -0.012  0.471  0.882 143.315    176.69  -17.12  -59.02   -8.16   39.00

DOCKED: MODEL       10
DOCKED: USER    Run = 10
DOCKED: USER    DPF = ligand_dock.biased.dpf
DOCKED: USER  
DOCKED: USER    Estimated Free Energy of Binding    =   -9.39 kcal/mol  [=(1)+(2)+(3)-(4)]
DOCKED: USER    Estimated Inhibition Constant, Ki   =  131.95 nM (nanomolar)  [Temperature = 298.15 K]
DOCKED: USER    
DOCKED: USER    (1) Final Intermolecular Energy     =  -10.88 kcal/mol
DOCKED: USER        vdW + Hbond + desolv Energy     =  -10.88 kcal/mol
DOCKED: USER        Electrostatic Energy            =   +0.00 kcal/mol
DOCKED: USER    (2) Final Total Internal Energy     =   -0.87 kcal/mol
DOCKED: USER    (3) Torsional Free Energy           =   +1.49 kcal/mol
DOCKED: USER    (4) Unbound System's Energy  [=(2)] =   -0.87 kcal/mol
DOCKED: USER    
DOCKED: USER    
DOCKED: USER    NEWDPF move ligand.pdbqt
DOCKED: USER    NEWDPF about 0.710000 -0.190000 -0.071000
DOCKED: USER    NEWDPF tran0 24.000030 -18.480508 -1.984756
DOCKED: USER    NEWDPF quaternion0 -0.011271 0.446606 0.837487 0.314693
DOCKED: USER    NEWDPF axisangle0 -0.011874 0.470511 0.882314 143.315455
DOCKED: USER    NEWDPF quat0 -0.011874 0.470511 0.882314 143.315455
DOCKED: USER    NEWDPF dihe0 176.69 -17.12 -59.02 -8.16 39.00 
DOCKED: USER  keepresnum = 1 
DOCKED: USER  
DOCKED: REMARK  Name = 
DOCKED: REMARK  5 active torsions:
DOCKED: REMARK  status: ('A' for Active; 'I' for Inactive)
DOCKED: REMARK    1  A    between atoms: O_1  and  N_2
DOCKED: REMARK    2  A    between atoms: C_3  and  C_4
DOCKED: REMARK    3  A    between atoms: C_4  and  C_5
DOCKED: REMARK    4  A    between atoms: C_5  and  C_6
DOCKED: REMARK    5  A    between atoms: C_6  and  C_7
DOCKED: REMARK                            x       y       z     vdW  Elec       q    Type
DOCKED: REMARK                         _______ _______ _______ _____ _____    ______ ____
DOCKED: USER                              x       y       z     vdW  Elec       q    Type
DOCKED: USER                           _______ _______ _______ _____ _____    ______ ____
DOCKED: ROOT
DOCKED: ATOM      1  C   UNL     1      23.878 -18.087  -1.506 -0.74 -0.00    +0.000 C 
DOCKED: ENDROOT
DOCKED: BRANCH   1   2
DOCKED: ATOM      2  C   UNL     1      22.880 -18.240  -0.354 -0.83 -0.00    +0.000 C 
DOCKED: BRANCH   2   4
DOCKED: ATOM      3  N   UNL     1      21.142 -19.588  -1.626 -0.68 -0.00    +0.000 N 
DOCKED: ATOM      4  C   UNL     1      21.489 -18.414  -0.887 -0.80 -0.00    +0.000 C 
DOCKED: ATOM      5  O   UNL     1      20.635 -17.504  -0.713 -2.10 +0.00    +0.000 OA
DOCKED: ATOM      6  H   UNL     1      21.814 -20.292  -1.767 -0.43 -0.00    +0.000 HD
DOCKED: BRANCH   3   7
DOCKED: ATOM      7  O   UNL     1      19.896 -19.739  -2.133 -1.89 -0.00    +0.000 OA
DOCKED: ATOM      8  H   UNL     1      19.343 -18.987  -1.864 -0.43 -0.00    +0.000 HD
DOCKED: ENDBRANCH   3   7
DOCKED: ENDBRANCH   2   4
DOCKED: ENDBRANCH   1   2
DOCKED: BRANCH   1   9
DOCKED: ATOM      9  C   UNL     1      25.268 -17.709  -0.982 -0.68 -0.00    +0.000 C 
DOCKED: BRANCH   9  10
DOCKED: ATOM     10  C   UNL     1      25.922 -16.706  -1.895 -0.48 -0.00    +0.000 A 
DOCKED: ATOM     11  C   UNL     1      25.140 -15.800  -2.630 -0.44 -0.00    +0.000 A 
DOCKED: ATOM     12  C   UNL     1      25.747 -14.891  -3.501 -0.49 -0.00    +0.000 A 
DOCKED: ATOM     13  C   UNL     1      27.136 -14.887  -3.653 -0.33 -0.00    +0.000 A 
DOCKED: ATOM     14  C   UNL     1      27.921 -15.795  -2.935 -0.26 -0.00    +0.000 A 
DOCKED: ATOM     15  C   UNL     1      27.318 -16.706  -2.063 -0.30 -0.00    +0.000 A 
DOCKED: ENDBRANCH   9  10
DOCKED: ENDBRANCH   1   9
DOCKED: TORSDOF 5
DOCKED: TER
DOCKED: ENDMDL
________________________________________________________________________________


	BEGINNING GENETIC ALGORITHM DOCKING 11 of 100
Run: 11 Seed: 860057210 326866197 [ Run 11 of 100 GA/GALS ]
Beginning LAMARCKIAN GENETIC ALGORITHM (LGA), with a maximum of 2500000 energy evaluations.

Final-Value: -11.723


	FINAL GENETIC ALGORITHM DOCKED STATE
	_______________________________________________


Detailed state:  trans 23.973 -18.203 -2.044 quatxyzw -0.103193 0.344441 0.845229 0.395348 center 0.710 -0.190 -0.071 ntor 5 177.7470 1.4358 54.2398 -20.9451 27.0074
State:	 23.973 -18.203  -2.044  -0.112  0.375  0.920 133.425    177.75    1.44   54.24  -20.95   27.01

DOCKED: MODEL       11
DOCKED: USER    Run = 11
DOCKED: USER    DPF = ligand_dock.biased.dpf
DOCKED: USER  
DOCKED: USER    Estimated Free Energy of Binding    =   -9.37 kcal/mol  [=(1)+(2)+(3)-(4)]
DOCKED: USER    Estimated Inhibition Constant, Ki   =  135.19 nM (nanomolar)  [Temperature = 298.15 K]
DOCKED: USER    
DOCKED: USER    (1) Final Intermolecular Energy     =  -10.86 kcal/mol
DOCKED: USER        vdW + Hbond + desolv Energy     =  -10.86 kcal/mol
DOCKED: USER        Electrostatic Energy            =   +0.00 kcal/mol
DOCKED: USER    (2) Final Total Internal Energy     =   -0.86 kcal/mol
DOCKED: USER    (3) Torsional Free Energy           =   +1.49 kcal/mol
DOCKED: USER    (4) Unbound System's Energy  [=(2)] =   -0.86 kcal/mol
DOCKED: USER    
DOCKED: USER    
DOCKED: USER    NEWDPF move ligand.pdbqt
DOCKED: USER    NEWDPF about 0.710000 -0.190000 -0.071000
DOCKED: USER    NEWDPF tran0 23.972962 -18.202873 -2.043559
DOCKED: USER    NEWDPF quaternion0 -0.103193 0.344441 0.845229 0.395348
DOCKED: USER    NEWDPF axisangle0 -0.112345 0.374991 0.920196 133.424701
DOCKED: USER    NEWDPF quat0 -0.112345 0.374991 0.920196 133.424701
DOCKED: USER    NEWDPF dihe0 177.75 1.44 54.24 -20.95 27.01 
DOCKED: USER  keepresnum = 1 
DOCKED: USER  
DOCKED: REMARK  Name = 
DOCKED: REMARK  5 active torsions:
DOCKED: REMARK  status: ('A' for Active; 'I' for Inactive)
DOCKED: REMARK    1  A    between atoms: O_1  and  N_2
DOCKED: REMARK    2  A    between atoms: C_3  and  C_4
DOCKED: REMARK    3  A    between atoms: C_4  and  C_5
DOCKED: REMARK    4  A    between atoms: C_5  and  C_6
DOCKED: REMARK    5  A    between atoms: C_6  and  C_7
DOCKED: REMARK                            x       y       z     vdW  Elec       q    Type
DOCKED: REMARK                         _______ _______ _______ _____ _____    ______ ____
DOCKED: USER                              x       y       z     vdW  Elec       q    Type
DOCKED: USER                           _______ _______ _______ _____ _____    ______ ____
DOCKED: ROOT
DOCKED: ATOM      1  C   UNL     1      23.773 -17.966  -1.493 -0.74 -0.00    +0.000 C 
DOCKED: ENDROOT
DOCKED: BRANCH   1   2
DOCKED: ATOM      2  C   UNL     1      22.840 -18.589  -0.450 -0.83 -0.00    +0.000 C 
DOCKED: BRANCH   2   4
DOCKED: ATOM      3  N   UNL     1      21.004 -19.728  -1.787 -0.68 -0.00    +0.000 N 
DOCKED: ATOM      4  C   UNL     1      21.434 -18.637  -0.968 -0.82 -0.00    +0.000 C 
DOCKED: ATOM      5  O   UNL     1      20.642 -17.692  -0.712 -2.23 -0.00    +0.000 OA
DOCKED: ATOM      6  H   UNL     1      21.629 -20.460  -1.992 -0.46 -0.00    +0.000 HD
DOCKED: BRANCH   3   7
DOCKED: ATOM      7  O   UNL     1      19.744 -19.763  -2.281 -1.66 -0.00    +0.000 OA
DOCKED: ATOM      8  H   UNL     1      19.248 -18.993  -1.959 -0.44 -0.00    +0.000 HD
DOCKED: ENDBRANCH   3   7
DOCKED: ENDBRANCH   2   4
DOCKED: ENDBRANCH   1   2
DOCKED: BRANCH   1   9
DOCKED: ATOM      9  C   UNL     1      25.054 -17.438  -0.838 -0.68 -0.00    +0.000 C 
DOCKED: BRANCH   9  10
DOCKED: ATOM     10  C   UNL     1      25.633 -16.307  -1.645 -0.49 -0.00    +0.000 A 
DOCKED: ATOM     11  C   UNL     1      26.236 -15.212  -1.004 -0.35 -0.00    +0.000 A 
DOCKED: ATOM     12  C   UNL     1      26.743 -14.148  -1.755 -0.24 -0.00    +0.000 A 
DOCKED: ATOM     13  C   UNL     1      26.645 -14.163  -3.148 -0.31 -0.00    +0.000 A 
DOCKED: ATOM     14  C   UNL     1      26.034 -15.243  -3.794 -0.51 -0.00    +0.000 A 
DOCKED: ATOM     15  C   UNL     1      25.524 -16.309  -3.047 -0.41 -0.00    +0.000 A 
DOCKED: ENDBRANCH   9  10
DOCKED: ENDBRANCH   1   9
DOCKED: TORSDOF 5
DOCKED: TER
DOCKED: ENDMDL
________________________________________________________________________________


	BEGINNING GENETIC ALGORITHM DOCKING 12 of 100
Run: 12 Seed: 1023140626 349454055 [ Run 12 of 100 GA/GALS ]
Beginning LAMARCKIAN GENETIC ALGORITHM (LGA), with a maximum of 2500000 energy evaluations.

Final-Value: -11.550


	FINAL GENETIC ALGORITHM DOCKED STATE
	_______________________________________________


Detailed state:  trans 23.703 -17.240 -1.963 quatxyzw 0.151193 -0.018843 -0.895313 -0.418570 center 0.710 -0.190 -0.071 ntor 5 178.4495 45.6452 115.3775 -19.5399 -31.5357
State:	 23.703 -17.240  -1.963   0.166 -0.021 -0.986 -130.511    178.45   45.65  115.38  -19.54  -31.54

DOCKED: MODEL       12
DOCKED: USER    Run = 12
DOCKED: USER    DPF = ligand_dock.biased.dpf
DOCKED: USER  
DOCKED: USER    Estimated Free Energy of Binding    =   -9.22 kcal/mol  [=(1)+(2)+(3)-(4)]
DOCKED: USER    Estimated Inhibition Constant, Ki   =  175.57 nM (nanomolar)  [Temperature = 298.15 K]
DOCKED: USER    
DOCKED: USER    (1) Final Intermolecular Energy     =  -10.71 kcal/mol
DOCKED: USER        vdW + Hbond + desolv Energy     =  -10.71 kcal/mol
DOCKED: USER        Electrostatic Energy            =   +0.00 kcal/mol
DOCKED: USER    (2) Final Total Internal Energy     =   -0.84 kcal/mol
DOCKED: USER    (3) Torsional Free Energy           =   +1.49 kcal/mol
DOCKED: USER    (4) Unbound System's Energy  [=(2)] =   -0.84 kcal/mol
DOCKED: USER    
DOCKED: USER    
DOCKED: USER    NEWDPF move ligand.pdbqt
DOCKED: USER    NEWDPF about 0.710000 -0.190000 -0.071000
DOCKED: USER    NEWDPF tran0 23.702765 -17.240336 -1.962853
DOCKED: USER    NEWDPF quaternion0 0.151193 -0.018843 -0.895313 -0.418570
DOCKED: USER    NEWDPF axisangle0 0.166479 -0.020749 -0.985827 -130.511303
DOCKED: USER    NEWDPF quat0 0.166479 -0.020749 -0.985827 -130.511303
DOCKED: USER    NEWDPF dihe0 178.45 45.65 115.38 -19.54 -31.54 
DOCKED: USER  keepresnum = 1 
DOCKED: USER  
DOCKED: REMARK  Name = 
DOCKED: REMARK  5 active torsions:
DOCKED: REMARK  status: ('A' for Active; 'I' for Inactive)
DOCKED: REMARK    1  A    between atoms: O_1  and  N_2
DOCKED: REMARK    2  A    between atoms: C_3  and  C_4
DOCKED: REMARK    3  A    between atoms: C_4  and  C_5
DOCKED: REMARK    4  A    between atoms: C_5  and  C_6
DOCKED: REMARK    5  A    between atoms: C_6  and  C_7
DOCKED: REMARK                            x       y       z     vdW  Elec       q    Type
DOCKED: REMARK                         _______ _______ _______ _____ _____    ______ ____
DOCKED: USER                              x       y       z     vdW  Elec       q    Type
DOCKED: USER                           _______ _______ _______ _____ _____    ______ ____
DOCKED: ROOT
DOCKED: ATOM      1  C   UNL     1      23.623 -17.397  -1.356 -0.68 -0.00    +0.000 C 
DOCKED: ENDROOT
DOCKED: BRANCH   1   2
DOCKED: ATOM      2  C   UNL     1      22.965 -18.642  -0.754 -0.83 -0.00    +0.000 C 
DOCKED: BRANCH   2   4
DOCKED: ATOM      3  N   UNL     1      20.832 -19.758  -1.565 -0.75 -0.00    +0.000 N 
DOCKED: ATOM      4  C   UNL     1      21.485 -18.621  -0.995 -0.82 -0.00    +0.000 C 
DOCKED: ATOM      5  O   UNL     1      20.824 -17.582  -0.730 -2.12 -0.00    +0.000 OA
DOCKED: ATOM      6  H   UNL     1      21.353 -20.564  -1.779 -0.32 -0.00    +0.000 HD
DOCKED: BRANCH   3   7
DOCKED: ATOM      7  O   UNL     1      19.500 -19.735  -1.811 -1.66 -0.00    +0.000 OA
DOCKED: ATOM      8  H   UNL     1      19.132 -18.884  -1.523 -0.56 -0.00    +0.000 HD
DOCKED: ENDBRANCH   3   7
DOCKED: ENDBRANCH   2   4
DOCKED: ENDBRANCH   1   2
DOCKED: BRANCH   1   9
DOCKED: ATOM      9  C   UNL     1      25.000 -17.147  -0.731 -0.65 -0.00    +0.000 C 
DOCKED: BRANCH   9  10
DOCKED: ATOM     10  C   UNL     1      25.926 -16.508  -1.732 -0.48 -0.00    +0.000 A 
DOCKED: ATOM     11  C   UNL     1      27.318 -16.638  -1.595 -0.36 -0.00    +0.000 A 
DOCKED: ATOM     12  C   UNL     1      28.176 -16.017  -2.507 -0.25 -0.00    +0.000 A 
DOCKED: ATOM     13  C   UNL     1      27.653 -15.254  -3.554 -0.29 -0.00    +0.000 A 
DOCKED: ATOM     14  C   UNL     1      26.269 -15.109  -3.690 -0.47 -0.00    +0.000 A 
DOCKED: ATOM     15  C   UNL     1      25.407 -15.727  -2.780 -0.47 -0.00    +0.000 A 
DOCKED: ENDBRANCH   9  10
DOCKED: ENDBRANCH   1   9
DOCKED: TORSDOF 5
DOCKED: TER
DOCKED: ENDMDL
________________________________________________________________________________


	BEGINNING GENETIC ALGORITHM DOCKING 13 of 100
Run: 13 Seed: 679200170 1005642209 [ Run 13 of 100 GA/GALS ]
Beginning LAMARCKIAN GENETIC ALGORITHM (LGA), with a maximum of 2500000 energy evaluations.

Final-Value: -11.822


	FINAL GENETIC ALGORITHM DOCKED STATE
	_______________________________________________


Detailed state:  trans 24.079 -18.853 -1.670 quatxyzw -0.034917 0.522421 0.791578 0.315058 center 0.710 -0.190 -0.071 ntor 5 161.9843 -20.0957 -98.9194 -17.9756 51.1203
State:	 24.079 -18.853  -1.670  -0.037  0.550  0.834 143.271    161.98  -20.10  -98.92  -17.98   51.12

DOCKED: MODEL       13
DOCKED: USER    Run = 13
DOCKED: USER    DPF = ligand_dock.biased.dpf
DOCKED: USER  
DOCKED: USER    Estimated Free Energy of Binding    =   -9.48 kcal/mol  [=(1)+(2)+(3)-(4)]
DOCKED: USER    Estimated Inhibition Constant, Ki   =  113.42 nM (nanomolar)  [Temperature = 298.15 K]
DOCKED: USER    
DOCKED: USER    (1) Final Intermolecular Energy     =  -10.97 kcal/mol
DOCKED: USER        vdW + Hbond + desolv Energy     =  -10.97 kcal/mol
DOCKED: USER        Electrostatic Energy            =   +0.00 kcal/mol
DOCKED: USER    (2) Final Total Internal Energy     =   -0.86 kcal/mol
DOCKED: USER    (3) Torsional Free Energy           =   +1.49 kcal/mol
DOCKED: USER    (4) Unbound System's Energy  [=(2)] =   -0.86 kcal/mol
DOCKED: USER    
DOCKED: USER    
DOCKED: USER    NEWDPF move ligand.pdbqt
DOCKED: USER    NEWDPF about 0.710000 -0.190000 -0.071000
DOCKED: USER    NEWDPF tran0 24.078589 -18.853315 -1.669664
DOCKED: USER    NEWDPF quaternion0 -0.034917 0.522421 0.791578 0.315058
DOCKED: USER    NEWDPF axisangle0 -0.036791 0.550455 0.834054 143.271380
DOCKED: USER    NEWDPF quat0 -0.036791 0.550455 0.834054 143.271380
DOCKED: USER    NEWDPF dihe0 161.98 -20.10 -98.92 -17.98 51.12 
DOCKED: USER  keepresnum = 1 
DOCKED: USER  
DOCKED: REMARK  Name = 
DOCKED: REMARK  5 active torsions:
DOCKED: REMARK  status: ('A' for Active; 'I' for Inactive)
DOCKED: REMARK    1  A    between atoms: O_1  and  N_2
DOCKED: REMARK    2  A    between atoms: C_3  and  C_4
DOCKED: REMARK    3  A    between atoms: C_4  and  C_5
DOCKED: REMARK    4  A    between atoms: C_5  and  C_6
DOCKED: REMARK    5  A    between atoms: C_6  and  C_7
DOCKED: REMARK                            x       y       z     vdW  Elec       q    Type
DOCKED: REMARK                         _______ _______ _______ _____ _____    ______ ____
DOCKED: USER                              x       y       z     vdW  Elec       q    Type
DOCKED: USER                           _______ _______ _______ _____ _____    ______ ____
DOCKED: ROOT
DOCKED: ATOM      1  C   UNL     1      23.897 -18.400  -1.269 -0.77 -0.00    +0.000 C 
DOCKED: ENDROOT
DOCKED: BRANCH   1   2
DOCKED: ATOM      2  C   UNL     1      22.805 -18.433  -0.196 -0.81 -0.00    +0.000 C 
DOCKED: BRANCH   2   4
DOCKED: ATOM      3  N   UNL     1      21.094 -19.669  -1.609 -0.69 -0.00    +0.000 N 
DOCKED: ATOM      4  C   UNL     1      21.450 -18.524  -0.830 -0.83 -0.00    +0.000 C 
DOCKED: ATOM      5  O   UNL     1      20.637 -17.570  -0.707 -2.14 +0.00    +0.000 OA
DOCKED: ATOM      6  H   UNL     1      21.735 -20.409  -1.710 -0.38 -0.00    +0.000 HD
DOCKED: BRANCH   3   7
DOCKED: ATOM      7  O   UNL     1      19.882 -19.746  -2.208 -1.89 -0.00    +0.000 OA
DOCKED: ATOM      8  H   UNL     1      19.277 -19.107  -1.797 -0.46 -0.00    +0.000 HD
DOCKED: ENDBRANCH   3   7
DOCKED: ENDBRANCH   2   4
DOCKED: ENDBRANCH   1   2
DOCKED: BRANCH   1   9
DOCKED: ATOM      9  C   UNL     1      25.216 -17.871  -0.695 -0.70 -0.00    +0.000 C 
DOCKED: BRANCH   9  10
DOCKED: ATOM     10  C   UNL     1      25.761 -16.763  -1.557 -0.51 -0.00    +0.000 A 
DOCKED: ATOM     11  C   UNL     1      25.191 -16.495  -2.812 -0.34 -0.00    +0.000 A 
DOCKED: ATOM     12  C   UNL     1      25.718 -15.487  -3.625 -0.51 -0.00    +0.000 A 
DOCKED: ATOM     13  C   UNL     1      26.823 -14.747  -3.196 -0.33 -0.00    +0.000 A 
DOCKED: ATOM     14  C   UNL     1      27.404 -15.016  -1.953 -0.24 -0.00    +0.000 A 
DOCKED: ATOM     15  C   UNL     1      26.881 -16.024  -1.137 -0.36 -0.00    +0.000 A 
DOCKED: ENDBRANCH   9  10
DOCKED: ENDBRANCH   1   9
DOCKED: TORSDOF 5
DOCKED: TER
DOCKED: ENDMDL
________________________________________________________________________________


	BEGINNING GENETIC ALGORITHM DOCKING 14 of 100
Run: 14 Seed: 866243275 833912918 [ Run 14 of 100 GA/GALS ]
Beginning LAMARCKIAN GENETIC ALGORITHM (LGA), with a maximum of 2500000 energy evaluations.

Final-Value: -11.849


	FINAL GENETIC ALGORITHM DOCKED STATE
	_______________________________________________


Detailed state:  trans 23.572 -18.645 -1.650 quatxyzw 0.030011 -0.445944 -0.878357 -0.169475 center 0.710 -0.190 -0.071 ntor 5 179.1433 -41.0185 101.9457 17.3457 40.7127
State:	 23.572 -18.645  -1.650   0.030 -0.452 -0.891 -160.485    179.14  -41.02  101.95   17.35   40.71

DOCKED: MODEL       14
DOCKED: USER    Run = 14
DOCKED: USER    DPF = ligand_dock.biased.dpf
DOCKED: USER  
DOCKED: USER    Estimated Free Energy of Binding    =   -9.48 kcal/mol  [=(1)+(2)+(3)-(4)]
DOCKED: USER    Estimated Inhibition Constant, Ki   =  112.26 nM (nanomolar)  [Temperature = 298.15 K]
DOCKED: USER    
DOCKED: USER    (1) Final Intermolecular Energy     =  -10.97 kcal/mol
DOCKED: USER        vdW + Hbond + desolv Energy     =  -10.97 kcal/mol
DOCKED: USER        Electrostatic Energy            =   +0.00 kcal/mol
DOCKED: USER    (2) Final Total Internal Energy     =   -0.88 kcal/mol
DOCKED: USER    (3) Torsional Free Energy           =   +1.49 kcal/mol
DOCKED: USER    (4) Unbound System's Energy  [=(2)] =   -0.88 kcal/mol
DOCKED: USER    
DOCKED: USER    
DOCKED: USER    NEWDPF move ligand.pdbqt
DOCKED: USER    NEWDPF about 0.710000 -0.190000 -0.071000
DOCKED: USER    NEWDPF tran0 23.572224 -18.644979 -1.649999
DOCKED: USER    NEWDPF quaternion0 0.030011 -0.445944 -0.878357 -0.169475
DOCKED: USER    NEWDPF axisangle0 0.030452 -0.452489 -0.891250 -160.485420
DOCKED: USER    NEWDPF quat0 0.030452 -0.452489 -0.891250 -160.485420
DOCKED: USER    NEWDPF dihe0 179.14 -41.02 101.95 17.35 40.71 
DOCKED: USER  keepresnum = 1 
DOCKED: USER  
DOCKED: REMARK  Name = 
DOCKED: REMARK  5 active torsions:
DOCKED: REMARK  status: ('A' for Active; 'I' for Inactive)
DOCKED: REMARK    1  A    between atoms: O_1  and  N_2
DOCKED: REMARK    2  A    between atoms: C_3  and  C_4
DOCKED: REMARK    3  A    between atoms: C_4  and  C_5
DOCKED: REMARK    4  A    between atoms: C_5  and  C_6
DOCKED: REMARK    5  A    between atoms: C_6  and  C_7
DOCKED: REMARK                            x       y       z     vdW  Elec       q    Type
DOCKED: REMARK                         _______ _______ _______ _____ _____    ______ ____
DOCKED: USER                              x       y       z     vdW  Elec       q    Type
DOCKED: USER                           _______ _______ _______ _____ _____    ______ ____
DOCKED: ROOT
DOCKED: ATOM      1  C   UNL     1      23.473 -18.249  -1.168 -0.80 -0.00    +0.000 C 
DOCKED: ENDROOT
DOCKED: BRANCH   1   2
DOCKED: ATOM      2  C   UNL     1      22.293 -18.180  -0.195 -0.82 -0.00    +0.000 C 
DOCKED: BRANCH   2   4
DOCKED: ATOM      3  N   UNL     1      21.017 -19.724  -1.757 -0.68 -0.00    +0.000 N 
DOCKED: ATOM      4  C   UNL     1      21.025 -18.596  -0.879 -0.82 -0.00    +0.000 C 
DOCKED: ATOM      5  O   UNL     1      19.974 -17.924  -0.707 -1.95 -0.00    +0.000 OA
DOCKED: ATOM      6  H   UNL     1      21.843 -20.241  -1.895 -0.47 -0.00    +0.000 HD
DOCKED: BRANCH   3   7
DOCKED: ATOM      7  O   UNL     1      19.882 -20.088  -2.400 -1.73 -0.00    +0.000 OA
DOCKED: ATOM      8  H   UNL     1      19.161 -19.490  -2.147 -0.48 -0.00    +0.000 HD
DOCKED: ENDBRANCH   3   7
DOCKED: ENDBRANCH   2   4
DOCKED: ENDBRANCH   1   2
DOCKED: BRANCH   1   9
DOCKED: ATOM      9  C   UNL     1      24.808 -18.252  -0.414 -0.73 -0.00    +0.000 C 
DOCKED: BRANCH   9  10
DOCKED: ATOM     10  C   UNL     1      25.816 -17.386  -1.120 -0.54 -0.00    +0.000 A 
DOCKED: ATOM     11  C   UNL     1      27.167 -17.415  -0.739 -0.45 -0.00    +0.000 A 
DOCKED: ATOM     12  C   UNL     1      28.097 -16.586  -1.374 -0.31 -0.00    +0.000 A 
DOCKED: ATOM     13  C   UNL     1      27.683 -15.717  -2.387 -0.26 -0.00    +0.000 A 
DOCKED: ATOM     14  C   UNL     1      26.337 -15.673  -2.764 -0.42 -0.00    +0.000 A 
DOCKED: ATOM     15  C   UNL     1      25.404 -16.499  -2.130 -0.52 -0.00    +0.000 A 
DOCKED: ENDBRANCH   9  10
DOCKED: ENDBRANCH   1   9
DOCKED: TORSDOF 5
DOCKED: TER
DOCKED: ENDMDL
________________________________________________________________________________


	BEGINNING GENETIC ALGORITHM DOCKING 15 of 100
Run: 15 Seed: 909726113 141378429 [ Run 15 of 100 GA/GALS ]
Beginning LAMARCKIAN GENETIC ALGORITHM (LGA), with a maximum of 2500000 energy evaluations.

Final-Value: -11.536


	FINAL GENETIC ALGORITHM DOCKED STATE
	_______________________________________________


Detailed state:  trans 24.187 -18.157 -1.883 quatxyzw -0.179179 0.546476 0.588636 0.568126 center 0.710 -0.190 -0.071 ntor 5 178.6602 2.5994 -176.1006 -60.1769 -29.5829
State:	 24.187 -18.157  -1.883  -0.218  0.664  0.715 110.761    178.66    2.60 -176.10  -60.18  -29.58

DOCKED: MODEL       15
DOCKED: USER    Run = 15
DOCKED: USER    DPF = ligand_dock.biased.dpf
DOCKED: USER  
DOCKED: USER    Estimated Free Energy of Binding    =   -9.18 kcal/mol  [=(1)+(2)+(3)-(4)]
DOCKED: USER    Estimated Inhibition Constant, Ki   =  185.91 nM (nanomolar)  [Temperature = 298.15 K]
DOCKED: USER    
DOCKED: USER    (1) Final Intermolecular Energy     =  -10.67 kcal/mol
DOCKED: USER        vdW + Hbond + desolv Energy     =  -10.67 kcal/mol
DOCKED: USER        Electrostatic Energy            =   +0.00 kcal/mol
DOCKED: USER    (2) Final Total Internal Energy     =   -0.86 kcal/mol
DOCKED: USER    (3) Torsional Free Energy           =   +1.49 kcal/mol
DOCKED: USER    (4) Unbound System's Energy  [=(2)] =   -0.86 kcal/mol
DOCKED: USER    
DOCKED: USER    
DOCKED: USER    NEWDPF move ligand.pdbqt
DOCKED: USER    NEWDPF about 0.710000 -0.190000 -0.071000
DOCKED: USER    NEWDPF tran0 24.186519 -18.157329 -1.883152
DOCKED: USER    NEWDPF quaternion0 -0.179179 0.546476 0.588636 0.568126
DOCKED: USER    NEWDPF axisangle0 -0.217729 0.664052 0.715282 110.760755
DOCKED: USER    NEWDPF quat0 -0.217729 0.664052 0.715282 110.760755
DOCKED: USER    NEWDPF dihe0 178.66 2.60 -176.10 -60.18 -29.58 
DOCKED: USER  keepresnum = 1 
DOCKED: USER  
DOCKED: REMARK  Name = 
DOCKED: REMARK  5 active torsions:
DOCKED: REMARK  status: ('A' for Active; 'I' for Inactive)
DOCKED: REMARK    1  A    between atoms: O_1  and  N_2
DOCKED: REMARK    2  A    between atoms: C_3  and  C_4
DOCKED: REMARK    3  A    between atoms: C_4  and  C_5
DOCKED: REMARK    4  A    between atoms: C_5  and  C_6
DOCKED: REMARK    5  A    between atoms: C_6  and  C_7
DOCKED: REMARK                            x       y       z     vdW  Elec       q    Type
DOCKED: REMARK                         _______ _______ _______ _____ _____    ______ ____
DOCKED: USER                              x       y       z     vdW  Elec       q    Type
DOCKED: USER                           _______ _______ _______ _____ _____    ______ ____
DOCKED: ROOT
DOCKED: ATOM      1  C   UNL     1      23.737 -17.863  -1.551 -0.70 -0.00    +0.000 C 
DOCKED: ENDROOT
DOCKED: BRANCH   1   2
DOCKED: ATOM      2  C   UNL     1      22.859 -18.400  -0.417 -0.83 -0.00    +0.000 C 
DOCKED: BRANCH   2   4
DOCKED: ATOM      3  N   UNL     1      21.010 -19.732  -1.540 -0.73 -0.00    +0.000 N 
DOCKED: ATOM      4  C   UNL     1      21.438 -18.541  -0.876 -0.82 -0.00    +0.000 C 
DOCKED: ATOM      5  O   UNL     1      20.631 -17.588  -0.709 -2.16 +0.00    +0.000 OA
DOCKED: ATOM      6  H   UNL     1      21.646 -20.470  -1.676 -0.36 -0.00    +0.000 HD
DOCKED: BRANCH   3   7
DOCKED: ATOM      7  O   UNL     1      19.736 -19.854  -1.981 -1.73 -0.00    +0.000 OA
DOCKED: ATOM      8  H   UNL     1      19.236 -19.055  -1.752 -0.49 -0.00    +0.000 HD
DOCKED: ENDBRANCH   3   7
DOCKED: ENDBRANCH   2   4
DOCKED: ENDBRANCH   1   2
DOCKED: BRANCH   1   9
DOCKED: ATOM      9  C   UNL     1      24.386 -16.531  -1.160 -0.55 -0.00    +0.000 C 
DOCKED: BRANCH   9  10
DOCKED: ATOM     10  C   UNL     1      25.710 -16.364  -1.856 -0.49 -0.00    +0.000 A 
DOCKED: ATOM     11  C   UNL     1      26.884 -16.879  -1.282 -0.42 -0.00    +0.000 A 
DOCKED: ATOM     12  C   UNL     1      28.117 -16.694  -1.915 -0.29 -0.00    +0.000 A 
DOCKED: ATOM     13  C   UNL     1      28.189 -15.988  -3.118 -0.25 -0.00    +0.000 A 
DOCKED: ATOM     14  C   UNL     1      27.027 -15.461  -3.690 -0.37 -0.00    +0.000 A 
DOCKED: ATOM     15  C   UNL     1      25.792 -15.642  -3.060 -0.49 -0.00    +0.000 A 
DOCKED: ENDBRANCH   9  10
DOCKED: ENDBRANCH   1   9
DOCKED: TORSDOF 5
DOCKED: TER
DOCKED: ENDMDL
________________________________________________________________________________


	BEGINNING GENETIC ALGORITHM DOCKING 16 of 100
Run: 16 Seed: 1149095661 1277849983 [ Run 16 of 100 GA/GALS ]
Beginning LAMARCKIAN GENETIC ALGORITHM (LGA), with a maximum of 2500000 energy evaluations.

Final-Value: -10.996


	FINAL GENETIC ALGORITHM DOCKED STATE
	_______________________________________________


Detailed state:  trans 23.949 -19.352 -0.518 quatxyzw -0.005894 0.860627 0.496340 -0.113723 center 0.710 -0.190 -0.071 ntor 5 -165.8205 -119.1316 -22.6843 38.7032 100.5902
State:	 23.949 -19.352  -0.518  -0.006  0.866  0.500 -166.940   -165.82 -119.13  -22.68   38.70  100.59

DOCKED: MODEL       16
DOCKED: USER    Run = 16
DOCKED: USER    DPF = ligand_dock.biased.dpf
DOCKED: USER  
DOCKED: USER    Estimated Free Energy of Binding    =   -8.67 kcal/mol  [=(1)+(2)+(3)-(4)]
DOCKED: USER    Estimated Inhibition Constant, Ki   =  445.07 nM (nanomolar)  [Temperature = 298.15 K]
DOCKED: USER    
DOCKED: USER    (1) Final Intermolecular Energy     =  -10.16 kcal/mol
DOCKED: USER        vdW + Hbond + desolv Energy     =  -10.16 kcal/mol
DOCKED: USER        Electrostatic Energy            =   +0.00 kcal/mol
DOCKED: USER    (2) Final Total Internal Energy     =   -0.84 kcal/mol
DOCKED: USER    (3) Torsional Free Energy           =   +1.49 kcal/mol
DOCKED: USER    (4) Unbound System's Energy  [=(2)] =   -0.84 kcal/mol
DOCKED: USER    
DOCKED: USER    
DOCKED: USER    NEWDPF move ligand.pdbqt
DOCKED: USER    NEWDPF about 0.710000 -0.190000 -0.071000
DOCKED: USER    NEWDPF tran0 23.948954 -19.351533 -0.518455
DOCKED: USER    NEWDPF quaternion0 -0.005894 0.860627 0.496340 -0.113723
DOCKED: USER    NEWDPF axisangle0 -0.005933 0.866247 0.499581 -166.940060
DOCKED: USER    NEWDPF quat0 -0.005933 0.866247 0.499581 -166.940060
DOCKED: USER    NEWDPF dihe0 -165.82 -119.13 -22.68 38.70 100.59 
DOCKED: USER  keepresnum = 1 
DOCKED: USER  
DOCKED: REMARK  Name = 
DOCKED: REMARK  5 active torsions:
DOCKED: REMARK  status: ('A' for Active; 'I' for Inactive)
DOCKED: REMARK    1  A    between atoms: O_1  and  N_2
DOCKED: REMARK    2  A    between atoms: C_3  and  C_4
DOCKED: REMARK    3  A    between atoms: C_4  and  C_5
DOCKED: REMARK    4  A    between atoms: C_5  and  C_6
DOCKED: REMARK    5  A    between atoms: C_6  and  C_7
DOCKED: REMARK                            x       y       z     vdW  Elec       q    Type
DOCKED: REMARK                         _______ _______ _______ _____ _____    ______ ____
DOCKED: USER                              x       y       z     vdW  Elec       q    Type
DOCKED: USER                           _______ _______ _______ _____ _____    ______ ____
DOCKED: ROOT
DOCKED: ATOM      1  C   UNL     1      24.037 -18.752  -0.698 -0.76 -0.00    +0.000 C 
DOCKED: ENDROOT
DOCKED: BRANCH   1   2
DOCKED: ATOM      2  C   UNL     1      22.999 -17.669  -1.005 -0.75 -0.00    +0.000 C 
DOCKED: BRANCH   2   4
DOCKED: ATOM      3  N   UNL     1      21.443 -19.572  -1.645 -0.57 -0.00    +0.000 N 
DOCKED: ATOM      4  C   UNL     1      21.627 -18.267  -1.091 -0.70 -0.00    +0.000 C 
DOCKED: ATOM      5  O   UNL     1      20.630 -17.599  -0.709 -2.16 +0.00    +0.000 OA
DOCKED: ATOM      6  H   UNL     1      22.224 -20.087  -1.951 -0.50 -0.00    +0.000 HD
DOCKED: BRANCH   3   7
DOCKED: ATOM      7  O   UNL     1      20.203 -20.107  -1.752 -1.75 -0.00    +0.000 OA
DOCKED: ATOM      8  H   UNL     1      19.539 -19.411  -1.624 -0.23 -0.00    +0.000 HD
DOCKED: ENDBRANCH   3   7
DOCKED: ENDBRANCH   2   4
DOCKED: ENDBRANCH   1   2
DOCKED: BRANCH   1   9
DOCKED: ATOM      9  C   UNL     1      25.102 -18.233   0.275 -0.53 -0.00    +0.000 C 
DOCKED: BRANCH   9  10
DOCKED: ATOM     10  C   UNL     1      26.118 -17.394  -0.453 -0.54 -0.00    +0.000 A 
DOCKED: ATOM     11  C   UNL     1      25.744 -16.169  -1.030 -0.45 -0.00    +0.000 A 
DOCKED: ATOM     12  C   UNL     1      26.681 -15.406  -1.733 -0.33 -0.00    +0.000 A 
DOCKED: ATOM     13  C   UNL     1      27.994 -15.864  -1.873 -0.25 -0.00    +0.000 A 
DOCKED: ATOM     14  C   UNL     1      28.371 -17.088  -1.313 -0.30 -0.00    +0.000 A 
DOCKED: ATOM     15  C   UNL     1      27.437 -17.855  -0.610 -0.35 -0.00    +0.000 A 
DOCKED: ENDBRANCH   9  10
DOCKED: ENDBRANCH   1   9
DOCKED: TORSDOF 5
DOCKED: TER
DOCKED: ENDMDL
________________________________________________________________________________


	BEGINNING GENETIC ALGORITHM DOCKING 17 of 100
Run: 17 Seed: 309829099 1946712704 [ Run 17 of 100 GA/GALS ]
Beginning LAMARCKIAN GENETIC ALGORITHM (LGA), with a maximum of 2500000 energy evaluations.

Final-Value: -11.373


	FINAL GENETIC ALGORITHM DOCKED STATE
	_______________________________________________


Detailed state:  trans 23.075 -17.323 -1.065 quatxyzw -0.366844 -0.277003 0.833477 0.306612 center 0.710 -0.190 -0.071 ntor 5 -171.0174 116.7151 -81.9345 -48.3505 -59.2538
State:	 23.075 -17.323  -1.065  -0.385 -0.291  0.876 144.290   -171.02  116.72  -81.93  -48.35  -59.25

DOCKED: MODEL       17
DOCKED: USER    Run = 17
DOCKED: USER    DPF = ligand_dock.biased.dpf
DOCKED: USER  
DOCKED: USER    Estimated Free Energy of Binding    =   -9.04 kcal/mol  [=(1)+(2)+(3)-(4)]
DOCKED: USER    Estimated Inhibition Constant, Ki   =  237.28 nM (nanomolar)  [Temperature = 298.15 K]
DOCKED: USER    
DOCKED: USER    (1) Final Intermolecular Energy     =  -10.53 kcal/mol
DOCKED: USER        vdW + Hbond + desolv Energy     =  -10.53 kcal/mol
DOCKED: USER        Electrostatic Energy            =   +0.00 kcal/mol
DOCKED: USER    (2) Final Total Internal Energy     =   -0.84 kcal/mol
DOCKED: USER    (3) Torsional Free Energy           =   +1.49 kcal/mol
DOCKED: USER    (4) Unbound System's Energy  [=(2)] =   -0.84 kcal/mol
DOCKED: USER    
DOCKED: USER    
DOCKED: USER    NEWDPF move ligand.pdbqt
DOCKED: USER    NEWDPF about 0.710000 -0.190000 -0.071000
DOCKED: USER    NEWDPF tran0 23.074942 -17.322545 -1.065461
DOCKED: USER    NEWDPF quaternion0 -0.366844 -0.277003 0.833477 0.306612
DOCKED: USER    NEWDPF axisangle0 -0.385408 -0.291020 0.875653 144.289616
DOCKED: USER    NEWDPF quat0 -0.385408 -0.291020 0.875653 144.289616
DOCKED: USER    NEWDPF dihe0 -171.02 116.72 -81.93 -48.35 -59.25 
DOCKED: USER  keepresnum = 1 
DOCKED: USER  
DOCKED: REMARK  Name = 
DOCKED: REMARK  5 active torsions:
DOCKED: REMARK  status: ('A' for Active; 'I' for Inactive)
DOCKED: REMARK    1  A    between atoms: O_1  and  N_2
DOCKED: REMARK    2  A    between atoms: C_3  and  C_4
DOCKED: REMARK    3  A    between atoms: C_4  and  C_5
DOCKED: REMARK    4  A    between atoms: C_5  and  C_6
DOCKED: REMARK    5  A    between atoms: C_6  and  C_7
DOCKED: REMARK                            x       y       z     vdW  Elec       q    Type
DOCKED: REMARK                         _______ _______ _______ _____ _____    ______ ____
DOCKED: USER                              x       y       z     vdW  Elec       q    Type
DOCKED: USER                           _______ _______ _______ _____ _____    ______ ____
DOCKED: ROOT
DOCKED: ATOM      1  C   UNL     1      22.896 -17.841  -0.752 -0.81 -0.00    +0.000 C 
DOCKED: ENDROOT
DOCKED: BRANCH   1   2
DOCKED: ATOM      2  C   UNL     1      22.162 -19.082  -1.269 -0.74 -0.00    +0.000 C 
DOCKED: BRANCH   2   4
DOCKED: ATOM      3  N   UNL     1      19.886 -20.166  -0.951 -0.66 -0.00    +0.000 N 
DOCKED: ATOM      4  C   UNL     1      20.697 -18.988  -0.965 -0.89 -0.00    +0.000 C 
DOCKED: ATOM      5  O   UNL     1      20.173 -17.861  -0.761 -2.13 -0.00    +0.000 OA
DOCKED: ATOM      6  H   UNL     1      20.298 -21.043  -1.120 -0.47 -0.00    +0.000 HD
DOCKED: BRANCH   3   7
DOCKED: ATOM      7  O   UNL     1      18.557 -20.084  -0.706 -0.84 -0.00    +0.000 OA
DOCKED: ATOM      8  H   UNL     1      18.286 -19.153  -0.701 -0.57 -0.00    +0.000 HD
DOCKED: ENDBRANCH   3   7
DOCKED: ENDBRANCH   2   4
DOCKED: ENDBRANCH   1   2
DOCKED: BRANCH   1   9
DOCKED: ATOM      9  C   UNL     1      24.146 -18.234   0.045 -0.70 -0.00    +0.000 C 
DOCKED: BRANCH   9  10
DOCKED: ATOM     10  C   UNL     1      25.379 -17.640  -0.581 -0.60 -0.00    +0.000 A 
DOCKED: ATOM     11  C   UNL     1      25.268 -16.736  -1.650 -0.54 -0.00    +0.000 A 
DOCKED: ATOM     12  C   UNL     1      26.416 -16.211  -2.251 -0.41 -0.00    +0.000 A 
DOCKED: ATOM     13  C   UNL     1      27.681 -16.591  -1.796 -0.32 -0.00    +0.000 A 
DOCKED: ATOM     14  C   UNL     1      27.801 -17.501  -0.741 -0.36 -0.00    +0.000 A 
DOCKED: ATOM     15  C   UNL     1      26.656 -18.029  -0.138 -0.51 -0.00    +0.000 A 
DOCKED: ENDBRANCH   9  10
DOCKED: ENDBRANCH   1   9
DOCKED: TORSDOF 5
DOCKED: TER
DOCKED: ENDMDL
________________________________________________________________________________


	BEGINNING GENETIC ALGORITHM DOCKING 18 of 100
Run: 18 Seed: 1119244690 505998826 [ Run 18 of 100 GA/GALS ]
Beginning LAMARCKIAN GENETIC ALGORITHM (LGA), with a maximum of 2500000 energy evaluations.

Final-Value: -11.273


	FINAL GENETIC ALGORITHM DOCKED STATE
	_______________________________________________


Detailed state:  trans 23.310 -16.771 -1.290 quatxyzw -0.128665 0.418192 -0.877494 -0.196381 center 0.710 -0.190 -0.071 ntor 5 173.3746 57.8040 -171.2465 40.8348 37.9731
State:	 23.310 -16.771  -1.290  -0.131  0.426 -0.895 -157.349    173.37   57.80 -171.25   40.83   37.97

DOCKED: MODEL       18
DOCKED: USER    Run = 18
DOCKED: USER    DPF = ligand_dock.biased.dpf
DOCKED: USER  
DOCKED: USER    Estimated Free Energy of Binding    =   -8.95 kcal/mol  [=(1)+(2)+(3)-(4)]
DOCKED: USER    Estimated Inhibition Constant, Ki   =  276.18 nM (nanomolar)  [Temperature = 298.15 K]
DOCKED: USER    
DOCKED: USER    (1) Final Intermolecular Energy     =  -10.44 kcal/mol
DOCKED: USER        vdW + Hbond + desolv Energy     =  -10.44 kcal/mol
DOCKED: USER        Electrostatic Energy            =   +0.00 kcal/mol
DOCKED: USER    (2) Final Total Internal Energy     =   -0.83 kcal/mol
DOCKED: USER    (3) Torsional Free Energy           =   +1.49 kcal/mol
DOCKED: USER    (4) Unbound System's Energy  [=(2)] =   -0.83 kcal/mol
DOCKED: USER    
DOCKED: USER    
DOCKED: USER    NEWDPF move ligand.pdbqt
DOCKED: USER    NEWDPF about 0.710000 -0.190000 -0.071000
DOCKED: USER    NEWDPF tran0 23.309691 -16.770521 -1.290037
DOCKED: USER    NEWDPF quaternion0 -0.128665 0.418192 -0.877494 -0.196381
DOCKED: USER    NEWDPF axisangle0 -0.131220 0.426497 -0.894920 -157.349161
DOCKED: USER    NEWDPF quat0 -0.131220 0.426497 -0.894920 -157.349161
DOCKED: USER    NEWDPF dihe0 173.37 57.80 -171.25 40.83 37.97 
DOCKED: USER  keepresnum = 1 
DOCKED: USER  
DOCKED: REMARK  Name = 
DOCKED: REMARK  5 active torsions:
DOCKED: REMARK  status: ('A' for Active; 'I' for Inactive)
DOCKED: REMARK    1  A    between atoms: O_1  and  N_2
DOCKED: REMARK    2  A    between atoms: C_3  and  C_4
DOCKED: REMARK    3  A    between atoms: C_4  and  C_5
DOCKED: REMARK    4  A    between atoms: C_5  and  C_6
DOCKED: REMARK    5  A    between atoms: C_6  and  C_7
DOCKED: REMARK                            x       y       z     vdW  Elec       q    Type
DOCKED: REMARK                         _______ _______ _______ _____ _____    ______ ____
DOCKED: USER                              x       y       z     vdW  Elec       q    Type
DOCKED: USER                           _______ _______ _______ _____ _____    ______ ____
DOCKED: ROOT
DOCKED: ATOM      1  C   UNL     1      23.572 -17.277  -1.019 -0.72 -0.00    +0.000 C 
DOCKED: ENDROOT
DOCKED: BRANCH   1   2
DOCKED: ATOM      2  C   UNL     1      22.960 -18.650  -0.730 -0.83 -0.00    +0.000 C 
DOCKED: BRANCH   2   4
DOCKED: ATOM      3  N   UNL     1      20.841 -19.757  -1.590 -0.74 -0.00    +0.000 N 
DOCKED: ATOM      4  C   UNL     1      21.483 -18.630  -0.988 -0.82 -0.00    +0.000 C 
DOCKED: ATOM      5  O   UNL     1      20.814 -17.600  -0.708 -2.14 -0.00    +0.000 OA
DOCKED: ATOM      6  H   UNL     1      21.368 -20.557  -1.815 -0.34 -0.00    +0.000 HD
DOCKED: BRANCH   3   7
DOCKED: ATOM      7  O   UNL     1      19.512 -19.734  -1.851 -1.67 -0.00    +0.000 OA
DOCKED: ATOM      8  H   UNL     1      19.123 -18.927  -1.478 -0.56 -0.00    +0.000 HD
DOCKED: ENDBRANCH   3   7
DOCKED: ENDBRANCH   2   4
DOCKED: ENDBRANCH   1   2
DOCKED: BRANCH   1   9
DOCKED: ATOM      9  C   UNL     1      24.920 -17.416  -1.736 -0.66 -0.00    +0.000 C 
DOCKED: BRANCH   9  10
DOCKED: ATOM     10  C   UNL     1      25.891 -16.377  -1.243 -0.47 -0.00    +0.000 A 
DOCKED: ATOM     11  C   UNL     1      25.862 -15.074  -1.766 -0.37 -0.00    +0.000 A 
DOCKED: ATOM     12  C   UNL     1      26.785 -14.119  -1.330 -0.24 -0.00    +0.000 A 
DOCKED: ATOM     13  C   UNL     1      27.749 -14.460  -0.378 -0.21 -0.00    +0.000 A 
DOCKED: ATOM     14  C   UNL     1      27.793 -15.759   0.138 -0.26 -0.00    +0.000 A 
DOCKED: ATOM     15  C   UNL     1      26.872 -16.717  -0.295 -0.42 -0.00    +0.000 A 
DOCKED: ENDBRANCH   9  10
DOCKED: ENDBRANCH   1   9
DOCKED: TORSDOF 5
DOCKED: TER
DOCKED: ENDMDL
________________________________________________________________________________


	BEGINNING GENETIC ALGORITHM DOCKING 19 of 100
Run: 19 Seed: 111991176 1237086059 [ Run 19 of 100 GA/GALS ]
Beginning LAMARCKIAN GENETIC ALGORITHM (LGA), with a maximum of 2500000 energy evaluations.

Final-Value: -11.107


	FINAL GENETIC ALGORITHM DOCKED STATE
	_______________________________________________


Detailed state:  trans 23.743 -18.292 0.065 quatxyzw 0.344517 -0.904106 0.233529 -0.096769 center 0.710 -0.190 -0.071 ntor 5 -178.1272 169.3889 -93.0367 87.1681 28.1235
State:	 23.743 -18.292   0.065   0.346 -0.908  0.235 -168.894   -178.13  169.39  -93.04   87.17   28.12

DOCKED: MODEL       19
DOCKED: USER    Run = 19
DOCKED: USER    DPF = ligand_dock.biased.dpf
DOCKED: USER  
DOCKED: USER    Estimated Free Energy of Binding    =   -8.74 kcal/mol  [=(1)+(2)+(3)-(4)]
DOCKED: USER    Estimated Inhibition Constant, Ki   =  393.48 nM (nanomolar)  [Temperature = 298.15 K]
DOCKED: USER    
DOCKED: USER    (1) Final Intermolecular Energy     =  -10.23 kcal/mol
DOCKED: USER        vdW + Hbond + desolv Energy     =  -10.23 kcal/mol
DOCKED: USER        Electrostatic Energy            =   +0.00 kcal/mol
DOCKED: USER    (2) Final Total Internal Energy     =   -0.88 kcal/mol
DOCKED: USER    (3) Torsional Free Energy           =   +1.49 kcal/mol
DOCKED: USER    (4) Unbound System's Energy  [=(2)] =   -0.88 kcal/mol
DOCKED: USER    
DOCKED: USER    
DOCKED: USER    NEWDPF move ligand.pdbqt
DOCKED: USER    NEWDPF about 0.710000 -0.190000 -0.071000
DOCKED: USER    NEWDPF tran0 23.743437 -18.292057 0.064671
DOCKED: USER    NEWDPF quaternion0 0.344517 -0.904106 0.233529 -0.096769
DOCKED: USER    NEWDPF axisangle0 0.346142 -0.908369 0.234630 -168.893674
DOCKED: USER    NEWDPF quat0 0.346142 -0.908369 0.234630 -168.893674
DOCKED: USER    NEWDPF dihe0 -178.13 169.39 -93.04 87.17 28.12 
DOCKED: USER  keepresnum = 1 
DOCKED: USER  
DOCKED: REMARK  Name = 
DOCKED: REMARK  5 active torsions:
DOCKED: REMARK  status: ('A' for Active; 'I' for Inactive)
DOCKED: REMARK    1  A    between atoms: O_1  and  N_2
DOCKED: REMARK    2  A    between atoms: C_3  and  C_4
DOCKED: REMARK    3  A    between atoms: C_4  and  C_5
DOCKED: REMARK    4  A    between atoms: C_5  and  C_6
DOCKED: REMARK    5  A    between atoms: C_6  and  C_7
DOCKED: REMARK                            x       y       z     vdW  Elec       q    Type
DOCKED: REMARK                         _______ _______ _______ _____ _____    ______ ____
DOCKED: USER                              x       y       z     vdW  Elec       q    Type
DOCKED: USER                           _______ _______ _______ _____ _____    ______ ____
DOCKED: ROOT
DOCKED: ATOM      1  C   UNL     1      23.632 -18.509  -0.518 -0.80 -0.00    +0.000 C 
DOCKED: ENDROOT
DOCKED: BRANCH   1   2
DOCKED: ATOM      2  C   UNL     1      22.462 -19.351  -1.034 -0.72 -0.00    +0.000 C 
DOCKED: BRANCH   2   4
DOCKED: ATOM      3  N   UNL     1      20.579 -19.777   0.617 -0.67 -0.00    +0.000 N 
DOCKED: ATOM      4  C   UNL     1      21.184 -18.936  -0.368 -0.84 -0.00    +0.000 C 
DOCKED: ATOM      5  O   UNL     1      20.624 -17.860  -0.707 -2.35 -0.00    +0.000 OA
DOCKED: ATOM      6  H   UNL     1      21.015 -20.621   0.873 -0.59 -0.00    +0.000 HD
DOCKED: BRANCH   3   7
DOCKED: ATOM      7  O   UNL     1      19.411 -19.421   1.202 -0.72 -0.00    +0.000 OA
DOCKED: ATOM      8  H   UNL     1      19.100 -18.584   0.822 -0.34 -0.00    +0.000 HD
DOCKED: ENDBRANCH   3   7
DOCKED: ENDBRANCH   2   4
DOCKED: ENDBRANCH   1   2
DOCKED: BRANCH   1   9
DOCKED: ATOM      9  C   UNL     1      23.865 -17.285  -1.412 -0.68 -0.00    +0.000 C 
DOCKED: BRANCH   9  10
DOCKED: ATOM     10  C   UNL     1      25.310 -16.865  -1.367 -0.55 -0.00    +0.000 A 
DOCKED: ATOM     11  C   UNL     1      26.212 -17.517  -0.510 -0.54 -0.00    +0.000 A 
DOCKED: ATOM     12  C   UNL     1      27.546 -17.104  -0.446 -0.39 -0.00    +0.000 A 
DOCKED: ATOM     13  C   UNL     1      27.987 -16.034  -1.229 -0.28 -0.00    +0.000 A 
DOCKED: ATOM     14  C   UNL     1      27.092 -15.372  -2.075 -0.29 -0.00    +0.000 A 
DOCKED: ATOM     15  C   UNL     1      25.757 -15.780  -2.141 -0.46 -0.00    +0.000 A 
DOCKED: ENDBRANCH   9  10
DOCKED: ENDBRANCH   1   9
DOCKED: TORSDOF 5
DOCKED: TER
DOCKED: ENDMDL
________________________________________________________________________________


	BEGINNING GENETIC ALGORITHM DOCKING 20 of 100
Run: 20 Seed: 613296937 107038992 [ Run 20 of 100 GA/GALS ]
Beginning LAMARCKIAN GENETIC ALGORITHM (LGA), with a maximum of 2500000 energy evaluations.

Final-Value: -11.147


	FINAL GENETIC ALGORITHM DOCKED STATE
	_______________________________________________


Detailed state:  trans 23.072 -17.435 -0.353 quatxyzw 0.211175 -0.658337 0.718814 0.072830 center 0.710 -0.190 -0.071 ntor 5 -170.1082 98.1319 178.2382 60.8573 31.9931
State:	 23.072 -17.435  -0.353   0.212 -0.660  0.721 171.647   -170.11   98.13  178.24   60.86   31.99

DOCKED: MODEL       20
DOCKED: USER    Run = 20
DOCKED: USER    DPF = ligand_dock.biased.dpf
DOCKED: USER  
DOCKED: USER    Estimated Free Energy of Binding    =   -8.82 kcal/mol  [=(1)+(2)+(3)-(4)]
DOCKED: USER    Estimated Inhibition Constant, Ki   =  341.86 nM (nanomolar)  [Temperature = 298.15 K]
DOCKED: USER    
DOCKED: USER    (1) Final Intermolecular Energy     =  -10.31 kcal/mol
DOCKED: USER        vdW + Hbond + desolv Energy     =  -10.31 kcal/mol
DOCKED: USER        Electrostatic Energy            =   +0.00 kcal/mol
DOCKED: USER    (2) Final Total Internal Energy     =   -0.83 kcal/mol
DOCKED: USER    (3) Torsional Free Energy           =   +1.49 kcal/mol
DOCKED: USER    (4) Unbound System's Energy  [=(2)] =   -0.83 kcal/mol
DOCKED: USER    
DOCKED: USER    
DOCKED: USER    NEWDPF move ligand.pdbqt
DOCKED: USER    NEWDPF about 0.710000 -0.190000 -0.071000
DOCKED: USER    NEWDPF tran0 23.072434 -17.435272 -0.353206
DOCKED: USER    NEWDPF quaternion0 0.211175 -0.658337 0.718814 0.072830
DOCKED: USER    NEWDPF axisangle0 0.211738 -0.660090 0.720728 171.646958
DOCKED: USER    NEWDPF quat0 0.211738 -0.660090 0.720728 171.646958
DOCKED: USER    NEWDPF dihe0 -170.11 98.13 178.24 60.86 31.99 
DOCKED: USER  keepresnum = 1 
DOCKED: USER  
DOCKED: REMARK  Name = 
DOCKED: REMARK  5 active torsions:
DOCKED: REMARK  status: ('A' for Active; 'I' for Inactive)
DOCKED: REMARK    1  A    between atoms: O_1  and  N_2
DOCKED: REMARK    2  A    between atoms: C_3  and  C_4
DOCKED: REMARK    3  A    between atoms: C_4  and  C_5
DOCKED: REMARK    4  A    between atoms: C_5  and  C_6
DOCKED: REMARK    5  A    between atoms: C_6  and  C_7
DOCKED: REMARK                            x       y       z     vdW  Elec       q    Type
DOCKED: REMARK                         _______ _______ _______ _____ _____    ______ ____
DOCKED: USER                              x       y       z     vdW  Elec       q    Type
DOCKED: USER                           _______ _______ _______ _____ _____    ______ ____
DOCKED: ROOT
DOCKED: ATOM      1  C   UNL     1      23.283 -18.021  -0.460 -0.80 -0.00    +0.000 C 
DOCKED: ENDROOT
DOCKED: BRANCH   1   2
DOCKED: ATOM      2  C   UNL     1      22.496 -19.329  -0.581 -0.73 -0.00    +0.000 C 
DOCKED: BRANCH   2   4
DOCKED: ATOM      3  N   UNL     1      20.091 -20.127  -0.760 -0.75 -0.00    +0.000 N 
DOCKED: ATOM      4  C   UNL     1      21.026 -19.049  -0.673 -0.89 -0.00    +0.000 C 
DOCKED: ATOM      5  O   UNL     1      20.619 -17.858  -0.713 -2.34 -0.00    +0.000 OA
DOCKED: ATOM      6  H   UNL     1      20.414 -21.056  -0.737 -0.26 -0.00    +0.000 HD
DOCKED: BRANCH   3   7
DOCKED: ATOM      7  O   UNL     1      18.764 -19.881  -0.872 -0.84 -0.00    +0.000 OA
DOCKED: ATOM      8  H   UNL     1      18.624 -18.935  -1.036 -0.59 -0.00    +0.000 HD
DOCKED: ENDBRANCH   3   7
DOCKED: ENDBRANCH   2   4
DOCKED: ENDBRANCH   1   2
DOCKED: BRANCH   1   9
DOCKED: ATOM      9  C   UNL     1      24.250 -17.850  -1.638 -0.70 -0.00    +0.000 C 
DOCKED: BRANCH   9  10
DOCKED: ATOM     10  C   UNL     1      25.483 -17.104  -1.205 -0.56 -0.00    +0.000 A 
DOCKED: ATOM     11  C   UNL     1      25.554 -15.708  -1.346 -0.43 -0.00    +0.000 A 
DOCKED: ATOM     12  C   UNL     1      26.713 -15.020  -0.973 -0.30 -0.00    +0.000 A 
DOCKED: ATOM     13  C   UNL     1      27.811 -15.720  -0.466 -0.28 -0.00    +0.000 A 
DOCKED: ATOM     14  C   UNL     1      27.753 -17.111  -0.335 -0.34 -0.00    +0.000 A 
DOCKED: ATOM     15  C   UNL     1      26.597 -17.803  -0.707 -0.51 -0.00    +0.000 A 
DOCKED: ENDBRANCH   9  10
DOCKED: ENDBRANCH   1   9
DOCKED: TORSDOF 5
DOCKED: TER
DOCKED: ENDMDL
________________________________________________________________________________


	BEGINNING GENETIC ALGORITHM DOCKING 21 of 100
Run: 21 Seed: 2103674928 1059932598 [ Run 21 of 100 GA/GALS ]
Beginning LAMARCKIAN GENETIC ALGORITHM (LGA), with a maximum of 2500000 energy evaluations.

Final-Value: -11.749


	FINAL GENETIC ALGORITHM DOCKED STATE
	_______________________________________________


Detailed state:  trans 23.942 -18.323 -1.889 quatxyzw -0.041874 0.366424 0.874461 0.315117 center 0.710 -0.190 -0.071 ntor 5 177.5009 -3.3903 -74.4371 -6.3676 23.8575
State:	 23.942 -18.323  -1.889  -0.044  0.386  0.921 143.264    177.50   -3.39  -74.44   -6.37   23.86

DOCKED: MODEL       21
DOCKED: USER    Run = 21
DOCKED: USER    DPF = ligand_dock.biased.dpf
DOCKED: USER  
DOCKED: USER    Estimated Free Energy of Binding    =   -9.40 kcal/mol  [=(1)+(2)+(3)-(4)]
DOCKED: USER    Estimated Inhibition Constant, Ki   =  127.77 nM (nanomolar)  [Temperature = 298.15 K]
DOCKED: USER    
DOCKED: USER    (1) Final Intermolecular Energy     =  -10.90 kcal/mol
DOCKED: USER        vdW + Hbond + desolv Energy     =  -10.90 kcal/mol
DOCKED: USER        Electrostatic Energy            =   +0.00 kcal/mol
DOCKED: USER    (2) Final Total Internal Energy     =   -0.85 kcal/mol
DOCKED: USER    (3) Torsional Free Energy           =   +1.49 kcal/mol
DOCKED: USER    (4) Unbound System's Energy  [=(2)] =   -0.85 kcal/mol
DOCKED: USER    
DOCKED: USER    
DOCKED: USER    NEWDPF move ligand.pdbqt
DOCKED: USER    NEWDPF about 0.710000 -0.190000 -0.071000
DOCKED: USER    NEWDPF tran0 23.941976 -18.323059 -1.888613
DOCKED: USER    NEWDPF quaternion0 -0.041874 0.366424 0.874461 0.315117
DOCKED: USER    NEWDPF axisangle0 -0.044121 0.386094 0.921404 143.264281
DOCKED: USER    NEWDPF quat0 -0.044121 0.386094 0.921404 143.264281
DOCKED: USER    NEWDPF dihe0 177.50 -3.39 -74.44 -6.37 23.86 
DOCKED: USER  keepresnum = 1 
DOCKED: USER  
DOCKED: REMARK  Name = 
DOCKED: REMARK  5 active torsions:
DOCKED: REMARK  status: ('A' for Active; 'I' for Inactive)
DOCKED: REMARK    1  A    between atoms: O_1  and  N_2
DOCKED: REMARK    2  A    between atoms: C_3  and  C_4
DOCKED: REMARK    3  A    between atoms: C_4  and  C_5
DOCKED: REMARK    4  A    between atoms: C_5  and  C_6
DOCKED: REMARK    5  A    between atoms: C_6  and  C_7
DOCKED: REMARK                            x       y       z     vdW  Elec       q    Type
DOCKED: REMARK                         _______ _______ _______ _____ _____    ______ ____
DOCKED: USER                              x       y       z     vdW  Elec       q    Type
DOCKED: USER                           _______ _______ _______ _____ _____    ______ ____
DOCKED: ROOT
DOCKED: ATOM      1  C   UNL     1      23.818 -18.026  -1.345 -0.77 -0.00    +0.000 C 
DOCKED: ENDROOT
DOCKED: BRANCH   1   2
DOCKED: ATOM      2  C   UNL     1      22.822 -18.397  -0.242 -0.81 -0.00    +0.000 C 
DOCKED: BRANCH   2   4
DOCKED: ATOM      3  N   UNL     1      21.043 -19.713  -1.491 -0.73 -0.00    +0.000 N 
DOCKED: ATOM      4  C   UNL     1      21.438 -18.521  -0.806 -0.84 -0.00    +0.000 C 
DOCKED: ATOM      5  O   UNL     1      20.635 -17.556  -0.708 -2.13 +0.00    +0.000 OA
DOCKED: ATOM      6  H   UNL     1      21.677 -20.461  -1.573 -0.32 -0.00    +0.000 HD
DOCKED: BRANCH   3   7
DOCKED: ATOM      7  O   UNL     1      19.805 -19.820  -2.027 -1.80 -0.00    +0.000 OA
DOCKED: ATOM      8  H   UNL     1      19.294 -19.020  -1.827 -0.46 -0.00    +0.000 HD
DOCKED: ENDBRANCH   3   7
DOCKED: ENDBRANCH   2   4
DOCKED: ENDBRANCH   1   2
DOCKED: BRANCH   1   9
DOCKED: ATOM      9  C   UNL     1      25.206 -17.743  -0.760 -0.69 -0.00    +0.000 C 
DOCKED: BRANCH   9  10
DOCKED: ATOM     10  C   UNL     1      25.996 -16.853  -1.681 -0.48 -0.00    +0.000 A 
DOCKED: ATOM     11  C   UNL     1      25.356 -16.164  -2.724 -0.45 -0.00    +0.000 A 
DOCKED: ATOM     12  C   UNL     1      26.097 -15.364  -3.599 -0.49 -0.00    +0.000 A 
DOCKED: ATOM     13  C   UNL     1      27.481 -15.254  -3.446 -0.30 -0.00    +0.000 A 
DOCKED: ATOM     14  C   UNL     1      28.128 -15.947  -2.418 -0.24 -0.00    +0.000 A 
DOCKED: ATOM     15  C   UNL     1      27.392 -16.749  -1.542 -0.36 -0.00    +0.000 A 
DOCKED: ENDBRANCH   9  10
DOCKED: ENDBRANCH   1   9
DOCKED: TORSDOF 5
DOCKED: TER
DOCKED: ENDMDL
________________________________________________________________________________


	BEGINNING GENETIC ALGORITHM DOCKING 22 of 100
Run: 22 Seed: 1128104629 1978482099 [ Run 22 of 100 GA/GALS ]
Beginning LAMARCKIAN GENETIC ALGORITHM (LGA), with a maximum of 2500000 energy evaluations.

Final-Value: -11.544


	FINAL GENETIC ALGORITHM DOCKED STATE
	_______________________________________________


Detailed state:  trans 23.170 -19.006 0.254 quatxyzw 0.354376 -0.930500 0.014901 0.091457 center 0.710 -0.190 -0.071 ntor 5 -162.0861 156.2036 45.8385 98.7723 67.3793
State:	 23.170 -19.006   0.254   0.356 -0.934  0.015 169.505   -162.09  156.20   45.84   98.77   67.38

DOCKED: MODEL       22
DOCKED: USER    Run = 22
DOCKED: USER    DPF = ligand_dock.biased.dpf
DOCKED: USER  
DOCKED: USER    Estimated Free Energy of Binding    =   -9.19 kcal/mol  [=(1)+(2)+(3)-(4)]
DOCKED: USER    Estimated Inhibition Constant, Ki   =  183.60 nM (nanomolar)  [Temperature = 298.15 K]
DOCKED: USER    
DOCKED: USER    (1) Final Intermolecular Energy     =  -10.68 kcal/mol
DOCKED: USER        vdW + Hbond + desolv Energy     =  -10.68 kcal/mol
DOCKED: USER        Electrostatic Energy            =   +0.00 kcal/mol
DOCKED: USER    (2) Final Total Internal Energy     =   -0.86 kcal/mol
DOCKED: USER    (3) Torsional Free Energy           =   +1.49 kcal/mol
DOCKED: USER    (4) Unbound System's Energy  [=(2)] =   -0.86 kcal/mol
DOCKED: USER    
DOCKED: USER    
DOCKED: USER    NEWDPF move ligand.pdbqt
DOCKED: USER    NEWDPF about 0.710000 -0.190000 -0.071000
DOCKED: USER    NEWDPF tran0 23.169639 -19.006416 0.253739
DOCKED: USER    NEWDPF quaternion0 0.354376 -0.930500 0.014901 0.091457
DOCKED: USER    NEWDPF axisangle0 0.355868 -0.934417 0.014964 169.505147
DOCKED: USER    NEWDPF quat0 0.355868 -0.934417 0.014964 169.505147
DOCKED: USER    NEWDPF dihe0 -162.09 156.20 45.84 98.77 67.38 
DOCKED: USER  keepresnum = 1 
DOCKED: USER  
DOCKED: REMARK  Name = 
DOCKED: REMARK  5 active torsions:
DOCKED: REMARK  status: ('A' for Active; 'I' for Inactive)
DOCKED: REMARK    1  A    between atoms: O_1  and  N_2
DOCKED: REMARK    2  A    between atoms: C_3  and  C_4
DOCKED: REMARK    3  A    between atoms: C_4  and  C_5
DOCKED: REMARK    4  A    between atoms: C_5  and  C_6
DOCKED: REMARK    5  A    between atoms: C_6  and  C_7
DOCKED: REMARK                            x       y       z     vdW  Elec       q    Type
DOCKED: REMARK                         _______ _______ _______ _____ _____    ______ ____
DOCKED: USER                              x       y       z     vdW  Elec       q    Type
DOCKED: USER                           _______ _______ _______ _____ _____    ______ ____
DOCKED: ROOT
DOCKED: ATOM      1  C   UNL     1      23.180 -18.887  -0.367 -0.76 -0.00    +0.000 C 
DOCKED: ENDROOT
DOCKED: BRANCH   1   2
DOCKED: ATOM      2  C   UNL     1      22.200 -19.328  -1.457 -0.61 -0.00    +0.000 C 
DOCKED: BRANCH   2   4
DOCKED: ATOM      3  N   UNL     1      19.841 -20.111  -0.929 -0.72 -0.00    +0.000 N 
DOCKED: ATOM      4  C   UNL     1      20.788 -19.045  -1.037 -0.88 -0.00    +0.000 C 
DOCKED: ATOM      5  O   UNL     1      20.428 -17.859  -0.816 -2.25 -0.00    +0.000 OA
DOCKED: ATOM      6  H   UNL     1      20.124 -21.036  -1.111 -0.52 -0.00    +0.000 HD
DOCKED: BRANCH   3   7
DOCKED: ATOM      7  O   UNL     1      18.558 -19.859  -0.578 -0.81 -0.00    +0.000 OA
DOCKED: ATOM      8  H   UNL     1      18.365 -18.917  -0.709 -0.60 -0.00    +0.000 HD
DOCKED: ENDBRANCH   3   7
DOCKED: ENDBRANCH   2   4
DOCKED: ENDBRANCH   1   2
DOCKED: BRANCH   1   9
DOCKED: ATOM      9  C   UNL     1      23.445 -17.379  -0.442 -0.69 -0.00    +0.000 C 
DOCKED: BRANCH   9  10
DOCKED: ATOM     10  C   UNL     1      24.868 -17.112  -0.852 -0.58 -0.00    +0.000 A 
DOCKED: ATOM     11  C   UNL     1      25.155 -16.148  -1.833 -0.50 -0.00    +0.000 A 
DOCKED: ATOM     12  C   UNL     1      26.475 -15.925  -2.236 -0.39 -0.00    +0.000 A 
DOCKED: ATOM     13  C   UNL     1      27.515 -16.667  -1.671 -0.34 -0.00    +0.000 A 
DOCKED: ATOM     14  C   UNL     1      27.237 -17.637  -0.704 -0.43 -0.00    +0.000 A 
DOCKED: ATOM     15  C   UNL     1      25.918 -17.865  -0.298 -0.59 -0.00    +0.000 A 
DOCKED: ENDBRANCH   9  10
DOCKED: ENDBRANCH   1   9
DOCKED: TORSDOF 5
DOCKED: TER
DOCKED: ENDMDL
________________________________________________________________________________


	BEGINNING GENETIC ALGORITHM DOCKING 23 of 100
Run: 23 Seed: 586430343 174570955 [ Run 23 of 100 GA/GALS ]
Beginning LAMARCKIAN GENETIC ALGORITHM (LGA), with a maximum of 2500000 energy evaluations.

Final-Value: -11.489


	FINAL GENETIC ALGORITHM DOCKED STATE
	_______________________________________________


Detailed state:  trans 23.705 -17.280 0.094 quatxyzw -0.326756 -0.673390 0.625860 0.219264 center 0.710 -0.190 -0.071 ntor 5 -158.8307 120.0236 -96.8043 -22.9839 -96.4359
State:	 23.705 -17.280   0.094  -0.335 -0.690  0.641 154.668   -158.83  120.02  -96.80  -22.98  -96.44

DOCKED: MODEL       23
DOCKED: USER    Run = 23
DOCKED: USER    DPF = ligand_dock.biased.dpf
DOCKED: USER  
DOCKED: USER    Estimated Free Energy of Binding    =   -9.20 kcal/mol  [=(1)+(2)+(3)-(4)]
DOCKED: USER    Estimated Inhibition Constant, Ki   =  179.10 nM (nanomolar)  [Temperature = 298.15 K]
DOCKED: USER    
DOCKED: USER    (1) Final Intermolecular Energy     =  -10.70 kcal/mol
DOCKED: USER        vdW + Hbond + desolv Energy     =  -10.70 kcal/mol
DOCKED: USER        Electrostatic Energy            =   +0.00 kcal/mol
DOCKED: USER    (2) Final Total Internal Energy     =   -0.79 kcal/mol
DOCKED: USER    (3) Torsional Free Energy           =   +1.49 kcal/mol
DOCKED: USER    (4) Unbound System's Energy  [=(2)] =   -0.79 kcal/mol
DOCKED: USER    
DOCKED: USER    
DOCKED: USER    NEWDPF move ligand.pdbqt
DOCKED: USER    NEWDPF about 0.710000 -0.190000 -0.071000
DOCKED: USER    NEWDPF tran0 23.704546 -17.279732 0.094433
DOCKED: USER    NEWDPF quaternion0 -0.326756 -0.673390 0.625860 0.219264
DOCKED: USER    NEWDPF axisangle0 -0.334905 -0.690185 0.641469 154.668442
DOCKED: USER    NEWDPF quat0 -0.334905 -0.690185 0.641469 154.668442
DOCKED: USER    NEWDPF dihe0 -158.83 120.02 -96.80 -22.98 -96.44 
DOCKED: USER  keepresnum = 1 
DOCKED: USER  
DOCKED: REMARK  Name = 
DOCKED: REMARK  5 active torsions:
DOCKED: REMARK  status: ('A' for Active; 'I' for Inactive)
DOCKED: REMARK    1  A    between atoms: O_1  and  N_2
DOCKED: REMARK    2  A    between atoms: C_3  and  C_4
DOCKED: REMARK    3  A    between atoms: C_4  and  C_5
DOCKED: REMARK    4  A    between atoms: C_5  and  C_6
DOCKED: REMARK    5  A    between atoms: C_6  and  C_7
DOCKED: REMARK                            x       y       z     vdW  Elec       q    Type
DOCKED: REMARK                         _______ _______ _______ _____ _____    ______ ____
DOCKED: USER                              x       y       z     vdW  Elec       q    Type
DOCKED: USER                           _______ _______ _______ _____ _____    ______ ____
DOCKED: ROOT
DOCKED: ATOM      1  C   UNL     1      23.726 -17.885  -0.086 -0.69 -0.00    +0.000 C 
DOCKED: ENDROOT
DOCKED: BRANCH   1   2
DOCKED: ATOM      2  C   UNL     1      23.106 -18.553  -1.316 -0.78 -0.00    +0.000 C 
DOCKED: BRANCH   2   4
DOCKED: ATOM      3  N   UNL     1      20.889 -19.657  -1.885 -0.67 -0.00    +0.000 N 
DOCKED: ATOM      4  C   UNL     1      21.619 -18.666  -1.157 -0.73 -0.00    +0.000 C 
DOCKED: ATOM      5  O   UNL     1      21.008 -17.859  -0.407 -1.98 -0.00    +0.000 OA
DOCKED: ATOM      6  H   UNL     1      21.369 -20.280  -2.476 -0.56 -0.00    +0.000 HD
DOCKED: BRANCH   3   7
DOCKED: ATOM      7  O   UNL     1      19.543 -19.745  -1.767 -1.67 -0.00    +0.000 OA
DOCKED: ATOM      8  H   UNL     1      19.190 -18.902  -1.442 -0.51 -0.00    +0.000 HD
DOCKED: ENDBRANCH   3   7
DOCKED: ENDBRANCH   2   4
DOCKED: ENDBRANCH   1   2
DOCKED: BRANCH   1   9
DOCKED: ATOM      9  C   UNL     1      25.208 -18.253   0.050 -0.65 -0.00    +0.000 C 
DOCKED: BRANCH   9  10
DOCKED: ATOM     10  C   UNL     1      26.056 -17.358  -0.813 -0.54 -0.00    +0.000 A 
DOCKED: ATOM     11  C   UNL     1      25.455 -16.471  -1.721 -0.52 -0.00    +0.000 A 
DOCKED: ATOM     12  C   UNL     1      26.245 -15.663  -2.545 -0.42 -0.00    +0.000 A 
DOCKED: ATOM     13  C   UNL     1      27.639 -15.743  -2.476 -0.27 -0.00    +0.000 A 
DOCKED: ATOM     14  C   UNL     1      28.245 -16.633  -1.584 -0.30 -0.00    +0.000 A 
DOCKED: ATOM     15  C   UNL     1      27.459 -17.443  -0.759 -0.41 -0.00    +0.000 A 
DOCKED: ENDBRANCH   9  10
DOCKED: ENDBRANCH   1   9
DOCKED: TORSDOF 5
DOCKED: TER
DOCKED: ENDMDL
________________________________________________________________________________


	BEGINNING GENETIC ALGORITHM DOCKING 24 of 100
Run: 24 Seed: 942295459 1031829921 [ Run 24 of 100 GA/GALS ]
Beginning LAMARCKIAN GENETIC ALGORITHM (LGA), with a maximum of 2500000 energy evaluations.

Final-Value: -11.287


	FINAL GENETIC ALGORITHM DOCKED STATE
	_______________________________________________


Detailed state:  trans 23.445 -17.096 -0.577 quatxyzw 0.026416 0.540615 -0.805313 -0.241887 center 0.710 -0.190 -0.071 ntor 5 -170.0217 91.5571 175.5043 22.6162 -45.7130
State:	 23.445 -17.096  -0.577   0.027  0.557 -0.830 -152.004   -170.02   91.56  175.50   22.62  -45.71

DOCKED: MODEL       24
DOCKED: USER    Run = 24
DOCKED: USER    DPF = ligand_dock.biased.dpf
DOCKED: USER  
DOCKED: USER    Estimated Free Energy of Binding    =   -8.93 kcal/mol  [=(1)+(2)+(3)-(4)]
DOCKED: USER    Estimated Inhibition Constant, Ki   =  284.14 nM (nanomolar)  [Temperature = 298.15 K]
DOCKED: USER    
DOCKED: USER    (1) Final Intermolecular Energy     =  -10.42 kcal/mol
DOCKED: USER        vdW + Hbond + desolv Energy     =  -10.42 kcal/mol
DOCKED: USER        Electrostatic Energy            =   +0.00 kcal/mol
DOCKED: USER    (2) Final Total Internal Energy     =   -0.86 kcal/mol
DOCKED: USER    (3) Torsional Free Energy           =   +1.49 kcal/mol
DOCKED: USER    (4) Unbound System's Energy  [=(2)] =   -0.86 kcal/mol
DOCKED: USER    
DOCKED: USER    
DOCKED: USER    NEWDPF move ligand.pdbqt
DOCKED: USER    NEWDPF about 0.710000 -0.190000 -0.071000
DOCKED: USER    NEWDPF tran0 23.444565 -17.096130 -0.577169
DOCKED: USER    NEWDPF quaternion0 0.026416 0.540615 -0.805313 -0.241887
DOCKED: USER    NEWDPF axisangle0 0.027224 0.557160 -0.829959 -152.004065
DOCKED: USER    NEWDPF quat0 0.027224 0.557160 -0.829959 -152.004065
DOCKED: USER    NEWDPF dihe0 -170.02 91.56 175.50 22.62 -45.71 
DOCKED: USER  keepresnum = 1 
DOCKED: USER  
DOCKED: REMARK  Name = 
DOCKED: REMARK  5 active torsions:
DOCKED: REMARK  status: ('A' for Active; 'I' for Inactive)
DOCKED: REMARK    1  A    between atoms: O_1  and  N_2
DOCKED: REMARK    2  A    between atoms: C_3  and  C_4
DOCKED: REMARK    3  A    between atoms: C_4  and  C_5
DOCKED: REMARK    4  A    between atoms: C_5  and  C_6
DOCKED: REMARK    5  A    between atoms: C_6  and  C_7
DOCKED: REMARK                            x       y       z     vdW  Elec       q    Type
DOCKED: REMARK                         _______ _______ _______ _____ _____    ______ ____
DOCKED: USER                              x       y       z     vdW  Elec       q    Type
DOCKED: USER                           _______ _______ _______ _____ _____    ______ ____
DOCKED: ROOT
DOCKED: ATOM      1  C   UNL     1      23.627 -17.686  -0.446 -0.74 -0.00    +0.000 C 
DOCKED: ENDROOT
DOCKED: BRANCH   1   2
DOCKED: ATOM      2  C   UNL     1      22.949 -19.014  -0.798 -0.82 -0.00    +0.000 C 
DOCKED: BRANCH   2   4
DOCKED: ATOM      3  N   UNL     1      20.641 -19.907  -1.369 -0.75 -0.00    +0.000 N 
DOCKED: ATOM      4  C   UNL     1      21.468 -18.824  -0.938 -0.84 -0.00    +0.000 C 
DOCKED: ATOM      5  O   UNL     1      20.959 -17.695  -0.710 -2.14 -0.00    +0.000 OA
DOCKED: ATOM      6  H   UNL     1      21.044 -20.786  -1.554 -0.18 -0.00    +0.000 HD
DOCKED: BRANCH   3   7
DOCKED: ATOM      7  O   UNL     1      19.307 -19.735  -1.524 -1.33 -0.00    +0.000 OA
DOCKED: ATOM      8  H   UNL     1      19.092 -18.791  -1.457 -0.58 -0.00    +0.000 HD
DOCKED: ENDBRANCH   3   7
DOCKED: ENDBRANCH   2   4
DOCKED: ENDBRANCH   1   2
DOCKED: BRANCH   1   9
DOCKED: ATOM      9  C   UNL     1      25.109 -17.705  -0.839 -0.70 -0.00    +0.000 C 
DOCKED: BRANCH   9  10
DOCKED: ATOM     10  C   UNL     1      25.484 -16.430  -1.546 -0.51 -0.00    +0.000 A 
DOCKED: ATOM     11  C   UNL     1      25.487 -16.372  -2.950 -0.43 -0.00    +0.000 A 
DOCKED: ATOM     12  C   UNL     1      25.867 -15.197  -3.605 -0.51 -0.00    +0.000 A 
DOCKED: ATOM     13  C   UNL     1      26.254 -14.076  -2.867 -0.31 -0.00    +0.000 A 
DOCKED: ATOM     14  C   UNL     1      26.265 -14.130  -1.470 -0.23 -0.00    +0.000 A 
DOCKED: ATOM     15  C   UNL     1      25.888 -15.303  -0.810 -0.35 -0.00    +0.000 A 
DOCKED: ENDBRANCH   9  10
DOCKED: ENDBRANCH   1   9
DOCKED: TORSDOF 5
DOCKED: TER
DOCKED: ENDMDL
________________________________________________________________________________


	BEGINNING GENETIC ALGORITHM DOCKING 25 of 100
Run: 25 Seed: 1934312235 1988022932 [ Run 25 of 100 GA/GALS ]
Beginning LAMARCKIAN GENETIC ALGORITHM (LGA), with a maximum of 2500000 energy evaluations.

Final-Value: -11.661


	FINAL GENETIC ALGORITHM DOCKED STATE
	_______________________________________________


Detailed state:  trans 23.490 -17.104 -1.259 quatxyzw 0.003253 -0.181895 0.963707 0.195380 center 0.710 -0.190 -0.071 ntor 5 165.1047 36.9123 -117.1922 35.9017 -7.1323
State:	 23.490 -17.104  -1.259   0.003 -0.185  0.983 157.466    165.10   36.91 -117.19   35.90   -7.13

DOCKED: MODEL       25
DOCKED: USER    Run = 25
DOCKED: USER    DPF = ligand_dock.biased.dpf
DOCKED: USER  
DOCKED: USER    Estimated Free Energy of Binding    =   -9.35 kcal/mol  [=(1)+(2)+(3)-(4)]
DOCKED: USER    Estimated Inhibition Constant, Ki   =  139.56 nM (nanomolar)  [Temperature = 298.15 K]
DOCKED: USER    
DOCKED: USER    (1) Final Intermolecular Energy     =  -10.84 kcal/mol
DOCKED: USER        vdW + Hbond + desolv Energy     =  -10.84 kcal/mol
DOCKED: USER        Electrostatic Energy            =   +0.00 kcal/mol
DOCKED: USER    (2) Final Total Internal Energy     =   -0.82 kcal/mol
DOCKED: USER    (3) Torsional Free Energy           =   +1.49 kcal/mol
DOCKED: USER    (4) Unbound System's Energy  [=(2)] =   -0.82 kcal/mol
DOCKED: USER    
DOCKED: USER    
DOCKED: USER    NEWDPF move ligand.pdbqt
DOCKED: USER    NEWDPF about 0.710000 -0.190000 -0.071000
DOCKED: USER    NEWDPF tran0 23.490348 -17.104033 -1.258773
DOCKED: USER    NEWDPF quaternion0 0.003253 -0.181895 0.963707 0.195380
DOCKED: USER    NEWDPF axisangle0 0.003316 -0.185469 0.982644 157.466197
DOCKED: USER    NEWDPF quat0 0.003316 -0.185469 0.982644 157.466197
DOCKED: USER    NEWDPF dihe0 165.10 36.91 -117.19 35.90 -7.13 
DOCKED: USER  keepresnum = 1 
DOCKED: USER  
DOCKED: REMARK  Name = 
DOCKED: REMARK  5 active torsions:
DOCKED: REMARK  status: ('A' for Active; 'I' for Inactive)
DOCKED: REMARK    1  A    between atoms: O_1  and  N_2
DOCKED: REMARK    2  A    between atoms: C_3  and  C_4
DOCKED: REMARK    3  A    between atoms: C_4  and  C_5
DOCKED: REMARK    4  A    between atoms: C_5  and  C_6
DOCKED: REMARK    5  A    between atoms: C_6  and  C_7
DOCKED: REMARK                            x       y       z     vdW  Elec       q    Type
DOCKED: REMARK                         _______ _______ _______ _____ _____    ______ ____
DOCKED: USER                              x       y       z     vdW  Elec       q    Type
DOCKED: USER                           _______ _______ _______ _____ _____    ______ ____
DOCKED: ROOT
DOCKED: ATOM      1  C   UNL     1      23.579 -17.444  -0.734 -0.75 -0.00    +0.000 C 
DOCKED: ENDROOT
DOCKED: BRANCH   1   2
DOCKED: ATOM      2  C   UNL     1      22.710 -18.554  -0.136 -0.79 -0.00    +0.000 C 
DOCKED: BRANCH   2   4
DOCKED: ATOM      3  N   UNL     1      20.896 -19.728  -1.473 -0.77 -0.00    +0.000 N 
DOCKED: ATOM      4  C   UNL     1      21.357 -18.564  -0.783 -0.85 -0.00    +0.000 C 
DOCKED: ATOM      5  O   UNL     1      20.641 -17.528  -0.750 -2.12 +0.00    +0.000 OA
DOCKED: ATOM      6  H   UNL     1      21.463 -20.533  -1.504 -0.25 -0.00    +0.000 HD
DOCKED: BRANCH   3   7
DOCKED: ATOM      7  O   UNL     1      19.688 -19.735  -2.083 -1.72 -0.00    +0.000 OA
DOCKED: ATOM      8  H   UNL     1      19.164 -18.980  -1.771 -0.55 -0.00    +0.000 HD
DOCKED: ENDBRANCH   3   7
DOCKED: ENDBRANCH   2   4
DOCKED: ENDBRANCH   1   2
DOCKED: BRANCH   1   9
DOCKED: ATOM      9  C   UNL     1      25.044 -17.885  -0.829 -0.71 -0.00    +0.000 C 
DOCKED: BRANCH   9  10
DOCKED: ATOM     10  C   UNL     1      25.857 -16.860  -1.574 -0.50 -0.00    +0.000 A 
DOCKED: ATOM     11  C   UNL     1      25.254 -16.048  -2.549 -0.47 -0.00    +0.000 A 
DOCKED: ATOM     12  C   UNL     1      26.017 -15.119  -3.263 -0.46 -0.00    +0.000 A 
DOCKED: ATOM     13  C   UNL     1      27.387 -15.001  -3.016 -0.27 -0.00    +0.000 A 
DOCKED: ATOM     14  C   UNL     1      27.998 -15.815  -2.057 -0.25 -0.00    +0.000 A 
DOCKED: ATOM     15  C   UNL     1      27.239 -16.746  -1.341 -0.39 -0.00    +0.000 A 
DOCKED: ENDBRANCH   9  10
DOCKED: ENDBRANCH   1   9
DOCKED: TORSDOF 5
DOCKED: TER
DOCKED: ENDMDL
________________________________________________________________________________


	BEGINNING GENETIC ALGORITHM DOCKING 26 of 100
Run: 26 Seed: 2084273694 2006965813 [ Run 26 of 100 GA/GALS ]
Beginning LAMARCKIAN GENETIC ALGORITHM (LGA), with a maximum of 2500000 energy evaluations.

Final-Value: -11.250


	FINAL GENETIC ALGORITHM DOCKED STATE
	_______________________________________________


Detailed state:  trans 23.201 -16.568 -0.638 quatxyzw 0.193849 -0.469488 0.858709 0.067990 center 0.710 -0.190 -0.071 ntor 5 162.2806 48.5323 -142.8849 81.6345 48.2771
State:	 23.201 -16.568  -0.638   0.194 -0.471  0.861 172.203    162.28   48.53 -142.88   81.63   48.28

DOCKED: MODEL       26
DOCKED: USER    Run = 26
DOCKED: USER    DPF = ligand_dock.biased.dpf
DOCKED: USER  
DOCKED: USER    Estimated Free Energy of Binding    =   -8.92 kcal/mol  [=(1)+(2)+(3)-(4)]
DOCKED: USER    Estimated Inhibition Constant, Ki   =  288.23 nM (nanomolar)  [Temperature = 298.15 K]
DOCKED: USER    
DOCKED: USER    (1) Final Intermolecular Energy     =  -10.41 kcal/mol
DOCKED: USER        vdW + Hbond + desolv Energy     =  -10.41 kcal/mol
DOCKED: USER        Electrostatic Energy            =   +0.00 kcal/mol
DOCKED: USER    (2) Final Total Internal Energy     =   -0.84 kcal/mol
DOCKED: USER    (3) Torsional Free Energy           =   +1.49 kcal/mol
DOCKED: USER    (4) Unbound System's Energy  [=(2)] =   -0.84 kcal/mol
DOCKED: USER    
DOCKED: USER    
DOCKED: USER    NEWDPF move ligand.pdbqt
DOCKED: USER    NEWDPF about 0.710000 -0.190000 -0.071000
DOCKED: USER    NEWDPF tran0 23.200937 -16.568450 -0.637665
DOCKED: USER    NEWDPF quaternion0 0.193849 -0.469488 0.858709 0.067990
DOCKED: USER    NEWDPF axisangle0 0.194299 -0.470577 0.860700 172.202950
DOCKED: USER    NEWDPF quat0 0.194299 -0.470577 0.860700 172.202950
DOCKED: USER    NEWDPF dihe0 162.28 48.53 -142.88 81.63 48.28 
DOCKED: USER  keepresnum = 1 
DOCKED: USER  
DOCKED: REMARK  Name = 
DOCKED: REMARK  5 active torsions:
DOCKED: REMARK  status: ('A' for Active; 'I' for Inactive)
DOCKED: REMARK    1  A    between atoms: O_1  and  N_2
DOCKED: REMARK    2  A    between atoms: C_3  and  C_4
DOCKED: REMARK    3  A    between atoms: C_4  and  C_5
DOCKED: REMARK    4  A    between atoms: C_5  and  C_6
DOCKED: REMARK    5  A    between atoms: C_6  and  C_7
DOCKED: REMARK                            x       y       z     vdW  Elec       q    Type
DOCKED: REMARK                         _______ _______ _______ _____ _____    ______ ____
DOCKED: USER                              x       y       z     vdW  Elec       q    Type
DOCKED: USER                           _______ _______ _______ _____ _____    ______ ____
DOCKED: ROOT
DOCKED: ATOM      1  C   UNL     1      23.425 -17.129  -0.453 -0.61 -0.00    +0.000 C 
DOCKED: ENDROOT
DOCKED: BRANCH   1   2
DOCKED: ATOM      2  C   UNL     1      22.662 -18.396  -0.055 -0.79 -0.00    +0.000 C 
DOCKED: BRANCH   2   4
DOCKED: ATOM      3  N   UNL     1      21.014 -19.719  -1.464 -0.75 -0.00    +0.000 N 
DOCKED: ATOM      4  C   UNL     1      21.377 -18.496  -0.820 -0.83 -0.00    +0.000 C 
DOCKED: ATOM      5  O   UNL     1      20.634 -17.484  -0.926 -2.10 -0.00    +0.000 OA
DOCKED: ATOM      6  H   UNL     1      21.602 -20.505  -1.386 -0.23 -0.00    +0.000 HD
DOCKED: BRANCH   3   7
DOCKED: ATOM      7  O   UNL     1      19.868 -19.807  -2.180 -1.86 -0.00    +0.000 OA
DOCKED: ATOM      8  H   UNL     1      19.278 -19.075  -1.939 -0.44 -0.00    +0.000 HD
DOCKED: ENDBRANCH   3   7
DOCKED: ENDBRANCH   2   4
DOCKED: ENDBRANCH   1   2
DOCKED: BRANCH   1   9
DOCKED: ATOM      9  C   UNL     1      24.513 -17.445  -1.485 -0.70 -0.00    +0.000 C 
DOCKED: BRANCH   9  10
DOCKED: ATOM     10  C   UNL     1      25.821 -16.817  -1.083 -0.51 -0.00    +0.000 A 
DOCKED: ATOM     11  C   UNL     1      25.894 -15.442  -0.809 -0.36 -0.00    +0.000 A 
DOCKED: ATOM     12  C   UNL     1      27.116 -14.855  -0.466 -0.27 -0.00    +0.000 A 
DOCKED: ATOM     13  C   UNL     1      28.274 -15.634  -0.404 -0.24 -0.00    +0.000 A 
DOCKED: ATOM     14  C   UNL     1      28.213 -17.001  -0.688 -0.32 -0.00    +0.000 A 
DOCKED: ATOM     15  C   UNL     1      26.993 -17.592  -1.032 -0.41 -0.00    +0.000 A 
DOCKED: ENDBRANCH   9  10
DOCKED: ENDBRANCH   1   9
DOCKED: TORSDOF 5
DOCKED: TER
DOCKED: ENDMDL
________________________________________________________________________________


	BEGINNING GENETIC ALGORITHM DOCKING 27 of 100
Run: 27 Seed: 1412860320 1865031104 [ Run 27 of 100 GA/GALS ]
Beginning LAMARCKIAN GENETIC ALGORITHM (LGA), with a maximum of 2500000 energy evaluations.

Final-Value: -11.627


	FINAL GENETIC ALGORITHM DOCKED STATE
	_______________________________________________


Detailed state:  trans 23.610 -17.411 -1.472 quatxyzw -0.041984 -0.004148 0.970447 0.237598 center 0.710 -0.190 -0.071 ntor 5 170.8017 31.4005 83.8047 20.1363 -8.9806
State:	 23.610 -17.411  -1.472  -0.043 -0.004  0.999 152.510    170.80   31.40   83.80   20.14   -8.98

DOCKED: MODEL       27
DOCKED: USER    Run = 27
DOCKED: USER    DPF = ligand_dock.biased.dpf
DOCKED: USER  
DOCKED: USER    Estimated Free Energy of Binding    =   -9.30 kcal/mol  [=(1)+(2)+(3)-(4)]
DOCKED: USER    Estimated Inhibition Constant, Ki   =  152.09 nM (nanomolar)  [Temperature = 298.15 K]
DOCKED: USER    
DOCKED: USER    (1) Final Intermolecular Energy     =  -10.79 kcal/mol
DOCKED: USER        vdW + Hbond + desolv Energy     =  -10.79 kcal/mol
DOCKED: USER        Electrostatic Energy            =   +0.00 kcal/mol
DOCKED: USER    (2) Final Total Internal Energy     =   -0.83 kcal/mol
DOCKED: USER    (3) Torsional Free Energy           =   +1.49 kcal/mol
DOCKED: USER    (4) Unbound System's Energy  [=(2)] =   -0.83 kcal/mol
DOCKED: USER    
DOCKED: USER    
DOCKED: USER    NEWDPF move ligand.pdbqt
DOCKED: USER    NEWDPF about 0.710000 -0.190000 -0.071000
DOCKED: USER    NEWDPF tran0 23.610043 -17.411023 -1.471598
DOCKED: USER    NEWDPF quaternion0 -0.041984 -0.004148 0.970447 0.237598
DOCKED: USER    NEWDPF axisangle0 -0.043222 -0.004270 0.999056 152.510340
DOCKED: USER    NEWDPF quat0 -0.043222 -0.004270 0.999056 152.510340
DOCKED: USER    NEWDPF dihe0 170.80 31.40 83.80 20.14 -8.98 
DOCKED: USER  keepresnum = 1 
DOCKED: USER  
DOCKED: REMARK  Name = 
DOCKED: REMARK  5 active torsions:
DOCKED: REMARK  status: ('A' for Active; 'I' for Inactive)
DOCKED: REMARK    1  A    between atoms: O_1  and  N_2
DOCKED: REMARK    2  A    between atoms: C_3  and  C_4
DOCKED: REMARK    3  A    between atoms: C_4  and  C_5
DOCKED: REMARK    4  A    between atoms: C_5  and  C_6
DOCKED: REMARK    5  A    between atoms: C_6  and  C_7
DOCKED: REMARK                            x       y       z     vdW  Elec       q    Type
DOCKED: REMARK                         _______ _______ _______ _____ _____    ______ ____
DOCKED: USER                              x       y       z     vdW  Elec       q    Type
DOCKED: USER                           _______ _______ _______ _____ _____    ______ ____
DOCKED: ROOT
DOCKED: ATOM      1  C   UNL     1      23.615 -17.558  -0.857 -0.76 -0.00    +0.000 C 
DOCKED: ENDROOT
DOCKED: BRANCH   1   2
DOCKED: ATOM      2  C   UNL     1      22.691 -18.496  -0.076 -0.79 -0.00    +0.000 C 
DOCKED: BRANCH   2   4
DOCKED: ATOM      3  N   UNL     1      20.835 -19.737  -1.289 -0.78 -0.00    +0.000 N 
DOCKED: ATOM      4  C   UNL     1      21.329 -18.530  -0.702 -0.85 -0.00    +0.000 C 
DOCKED: ATOM      5  O   UNL     1      20.634 -17.480  -0.744 -2.08 +0.00    +0.000 OA
DOCKED: ATOM      6  H   UNL     1      21.385 -20.553  -1.262 -0.18 -0.00    +0.000 HD
DOCKED: BRANCH   3   7
DOCKED: ATOM      7  O   UNL     1      19.618 -19.767  -1.882 -1.70 -0.00    +0.000 OA
DOCKED: ATOM      8  H   UNL     1      19.148 -18.938  -1.698 -0.55 -0.00    +0.000 HD
DOCKED: ENDBRANCH   3   7
DOCKED: ENDBRANCH   2   4
DOCKED: ENDBRANCH   1   2
DOCKED: BRANCH   1   9
DOCKED: ATOM      9  C   UNL     1      25.087 -17.873  -0.570 -0.71 -0.00    +0.000 C 
DOCKED: BRANCH   9  10
DOCKED: ATOM     10  C   UNL     1      25.984 -17.100  -1.500 -0.50 -0.00    +0.000 A 
DOCKED: ATOM     11  C   UNL     1      27.376 -17.112  -1.317 -0.39 -0.00    +0.000 A 
DOCKED: ATOM     12  C   UNL     1      28.205 -16.368  -2.162 -0.27 -0.00    +0.000 A 
DOCKED: ATOM     13  C   UNL     1      27.650 -15.601  -3.189 -0.29 -0.00    +0.000 A 
DOCKED: ATOM     14  C   UNL     1      26.264 -15.573  -3.370 -0.46 -0.00    +0.000 A 
DOCKED: ATOM     15  C   UNL     1      25.431 -16.314  -2.527 -0.49 -0.00    +0.000 A 
DOCKED: ENDBRANCH   9  10
DOCKED: ENDBRANCH   1   9
DOCKED: TORSDOF 5
DOCKED: TER
DOCKED: ENDMDL
________________________________________________________________________________


	BEGINNING GENETIC ALGORITHM DOCKING 28 of 100
Run: 28 Seed: 528278519 2059873935 [ Run 28 of 100 GA/GALS ]
Beginning LAMARCKIAN GENETIC ALGORITHM (LGA), with a maximum of 2500000 energy evaluations.

Final-Value: -11.464


	FINAL GENETIC ALGORITHM DOCKED STATE
	_______________________________________________


Detailed state:  trans 23.777 -17.356 -2.018 quatxyzw 0.157077 -0.067198 -0.890572 -0.421536 center 0.710 -0.190 -0.071 ntor 5 170.3983 44.2571 -55.1636 -21.7340 -25.3286
State:	 23.777 -17.356  -2.018   0.173 -0.074 -0.982 -130.137    170.40   44.26  -55.16  -21.73  -25.33

DOCKED: MODEL       28
DOCKED: USER    Run = 28
DOCKED: USER    DPF = ligand_dock.biased.dpf
DOCKED: USER  
DOCKED: USER    Estimated Free Energy of Binding    =   -9.15 kcal/mol  [=(1)+(2)+(3)-(4)]
DOCKED: USER    Estimated Inhibition Constant, Ki   =  197.52 nM (nanomolar)  [Temperature = 298.15 K]
DOCKED: USER    
DOCKED: USER    (1) Final Intermolecular Energy     =  -10.64 kcal/mol
DOCKED: USER        vdW + Hbond + desolv Energy     =  -10.64 kcal/mol
DOCKED: USER        Electrostatic Energy            =   +0.00 kcal/mol
DOCKED: USER    (2) Final Total Internal Energy     =   -0.83 kcal/mol
DOCKED: USER    (3) Torsional Free Energy           =   +1.49 kcal/mol
DOCKED: USER    (4) Unbound System's Energy  [=(2)] =   -0.83 kcal/mol
DOCKED: USER    
DOCKED: USER    
DOCKED: USER    NEWDPF move ligand.pdbqt
DOCKED: USER    NEWDPF about 0.710000 -0.190000 -0.071000
DOCKED: USER    NEWDPF tran0 23.776606 -17.355772 -2.018395
DOCKED: USER    NEWDPF quaternion0 0.157077 -0.067198 -0.890572 -0.421536
DOCKED: USER    NEWDPF axisangle0 0.173219 -0.074103 -0.982092 -130.136820
DOCKED: USER    NEWDPF quat0 0.173219 -0.074103 -0.982092 -130.136820
DOCKED: USER    NEWDPF dihe0 170.40 44.26 -55.16 -21.73 -25.33 
DOCKED: USER  keepresnum = 1 
DOCKED: USER  
DOCKED: REMARK  Name = 
DOCKED: REMARK  5 active torsions:
DOCKED: REMARK  status: ('A' for Active; 'I' for Inactive)
DOCKED: REMARK    1  A    between atoms: O_1  and  N_2
DOCKED: REMARK    2  A    between atoms: C_3  and  C_4
DOCKED: REMARK    3  A    between atoms: C_4  and  C_5
DOCKED: REMARK    4  A    between atoms: C_5  and  C_6
DOCKED: REMARK    5  A    between atoms: C_6  and  C_7
DOCKED: REMARK                            x       y       z     vdW  Elec       q    Type
DOCKED: REMARK                         _______ _______ _______ _____ _____    ______ ____
DOCKED: USER                              x       y       z     vdW  Elec       q    Type
DOCKED: USER                           _______ _______ _______ _____ _____    ______ ____
DOCKED: ROOT
DOCKED: ATOM      1  C   UNL     1      23.664 -17.462  -1.406 -0.69 -0.00    +0.000 C 
DOCKED: ENDROOT
DOCKED: BRANCH   1   2
DOCKED: ATOM      2  C   UNL     1      22.967 -18.651  -0.739 -0.83 -0.00    +0.000 C 
DOCKED: BRANCH   2   4
DOCKED: ATOM      3  N   UNL     1      20.833 -19.764  -1.550 -0.74 -0.00    +0.000 N 
DOCKED: ATOM      4  C   UNL     1      21.493 -18.616  -1.014 -0.81 -0.00    +0.000 C 
DOCKED: ATOM      5  O   UNL     1      20.845 -17.556  -0.807 -2.09 -0.00    +0.000 OA
DOCKED: ATOM      6  H   UNL     1      21.345 -20.588  -1.719 -0.29 -0.00    +0.000 HD
DOCKED: BRANCH   3   7
DOCKED: ATOM      7  O   UNL     1      19.508 -19.730  -1.828 -1.67 -0.00    +0.000 OA
DOCKED: ATOM      8  H   UNL     1      19.123 -18.915  -1.469 -0.57 -0.00    +0.000 HD
DOCKED: ENDBRANCH   3   7
DOCKED: ENDBRANCH   2   4
DOCKED: ENDBRANCH   1   2
DOCKED: BRANCH   1   9
DOCKED: ATOM      9  C   UNL     1      25.009 -17.165  -0.732 -0.65 -0.00    +0.000 C 
DOCKED: BRANCH   9  10
DOCKED: ATOM     10  C   UNL     1      25.940 -16.474  -1.693 -0.48 -0.00    +0.000 A 
DOCKED: ATOM     11  C   UNL     1      25.434 -15.589  -2.659 -0.47 -0.00    +0.000 A 
DOCKED: ATOM     12  C   UNL     1      26.296 -14.974  -3.571 -0.45 -0.00    +0.000 A 
DOCKED: ATOM     13  C   UNL     1      27.666 -15.245  -3.533 -0.29 -0.00    +0.000 A 
DOCKED: ATOM     14  C   UNL     1      28.176 -16.135  -2.582 -0.25 -0.00    +0.000 A 
DOCKED: ATOM     15  C   UNL     1      27.318 -16.753  -1.669 -0.36 -0.00    +0.000 A 
DOCKED: ENDBRANCH   9  10
DOCKED: ENDBRANCH   1   9
DOCKED: TORSDOF 5
DOCKED: TER
DOCKED: ENDMDL
________________________________________________________________________________


	BEGINNING GENETIC ALGORITHM DOCKING 29 of 100
Run: 29 Seed: 116000573 1283838710 [ Run 29 of 100 GA/GALS ]
Beginning LAMARCKIAN GENETIC ALGORITHM (LGA), with a maximum of 2500000 energy evaluations.

Final-Value: -11.628


	FINAL GENETIC ALGORITHM DOCKED STATE
	_______________________________________________


Detailed state:  trans 24.503 -18.454 -0.626 quatxyzw 0.188305 -0.792841 -0.096075 -0.571589 center 0.710 -0.190 -0.071 ntor 5 167.5058 -12.7697 61.1401 -115.4665 -27.6054
State:	 24.503 -18.454  -0.626   0.229 -0.966 -0.117 -110.278    167.51  -12.77   61.14 -115.47  -27.61

DOCKED: MODEL       29
DOCKED: USER    Run = 29
DOCKED: USER    DPF = ligand_dock.biased.dpf
DOCKED: USER  
DOCKED: USER    Estimated Free Energy of Binding    =   -9.24 kcal/mol  [=(1)+(2)+(3)-(4)]
DOCKED: USER    Estimated Inhibition Constant, Ki   =  169.67 nM (nanomolar)  [Temperature = 298.15 K]
DOCKED: USER    
DOCKED: USER    (1) Final Intermolecular Energy     =  -10.73 kcal/mol
DOCKED: USER        vdW + Hbond + desolv Energy     =  -10.73 kcal/mol
DOCKED: USER        Electrostatic Energy            =   +0.00 kcal/mol
DOCKED: USER    (2) Final Total Internal Energy     =   -0.90 kcal/mol
DOCKED: USER    (3) Torsional Free Energy           =   +1.49 kcal/mol
DOCKED: USER    (4) Unbound System's Energy  [=(2)] =   -0.90 kcal/mol
DOCKED: USER    
DOCKED: USER    
DOCKED: USER    NEWDPF move ligand.pdbqt
DOCKED: USER    NEWDPF about 0.710000 -0.190000 -0.071000
DOCKED: USER    NEWDPF tran0 24.503008 -18.454164 -0.625835
DOCKED: USER    NEWDPF quaternion0 0.188305 -0.792841 -0.096075 -0.571589
DOCKED: USER    NEWDPF axisangle0 0.229490 -0.966243 -0.117088 -110.277738
DOCKED: USER    NEWDPF quat0 0.229490 -0.966243 -0.117088 -110.277738
DOCKED: USER    NEWDPF dihe0 167.51 -12.77 61.14 -115.47 -27.61 
DOCKED: USER  keepresnum = 1 
DOCKED: USER  
DOCKED: REMARK  Name = 
DOCKED: REMARK  5 active torsions:
DOCKED: REMARK  status: ('A' for Active; 'I' for Inactive)
DOCKED: REMARK    1  A    between atoms: O_1  and  N_2
DOCKED: REMARK    2  A    between atoms: C_3  and  C_4
DOCKED: REMARK    3  A    between atoms: C_4  and  C_5
DOCKED: REMARK    4  A    between atoms: C_5  and  C_6
DOCKED: REMARK    5  A    between atoms: C_6  and  C_7
DOCKED: REMARK                            x       y       z     vdW  Elec       q    Type
DOCKED: REMARK                         _______ _______ _______ _____ _____    ______ ____
DOCKED: USER                              x       y       z     vdW  Elec       q    Type
DOCKED: USER                           _______ _______ _______ _____ _____    ______ ____
DOCKED: ROOT
DOCKED: ATOM      1  C   UNL     1      23.893 -18.370  -0.766 -0.81 -0.00    +0.000 C 
DOCKED: ENDROOT
DOCKED: BRANCH   1   2
DOCKED: ATOM      2  C   UNL     1      22.660 -18.531   0.129 -0.71 -0.00    +0.000 C 
DOCKED: BRANCH   2   4
DOCKED: ATOM      3  N   UNL     1      21.132 -19.718  -1.518 -0.68 -0.00    +0.000 N 
DOCKED: ATOM      4  C   UNL     1      21.413 -18.578  -0.702 -0.87 -0.00    +0.000 C 
DOCKED: ATOM      5  O   UNL     1      20.630 -17.591  -0.708 -2.16 +0.00    +0.000 OA
DOCKED: ATOM      6  H   UNL     1      21.751 -20.483  -1.516 -0.30 -0.00    +0.000 HD
DOCKED: BRANCH   3   7
DOCKED: ATOM      7  O   UNL     1      20.021 -19.754  -2.291 -1.82 -0.00    +0.000 OA
DOCKED: ATOM      8  H   UNL     1      19.426 -19.032  -2.037 -0.33 -0.00    +0.000 HD
DOCKED: ENDBRANCH   3   7
DOCKED: ENDBRANCH   2   4
DOCKED: ENDBRANCH   1   2
DOCKED: BRANCH   1   9
DOCKED: ATOM      9  C   UNL     1      23.869 -17.024  -1.498 -0.58 -0.00    +0.000 C 
DOCKED: BRANCH   9  10
DOCKED: ATOM     10  C   UNL     1      25.269 -16.565  -1.806 -0.53 -0.00    +0.000 A 
DOCKED: ATOM     11  C   UNL     1      25.523 -15.775  -2.939 -0.50 -0.00    +0.000 A 
DOCKED: ATOM     12  C   UNL     1      26.829 -15.377  -3.241 -0.37 -0.00    +0.000 A 
DOCKED: ATOM     13  C   UNL     1      27.890 -15.772  -2.422 -0.25 -0.00    +0.000 A 
DOCKED: ATOM     14  C   UNL     1      27.646 -16.569  -1.299 -0.35 -0.00    +0.000 A 
DOCKED: ATOM     15  C   UNL     1      26.343 -16.970  -0.994 -0.48 -0.00    +0.000 A 
DOCKED: ENDBRANCH   9  10
DOCKED: ENDBRANCH   1   9
DOCKED: TORSDOF 5
DOCKED: TER
DOCKED: ENDMDL
________________________________________________________________________________


	BEGINNING GENETIC ALGORITHM DOCKING 30 of 100
Run: 30 Seed: 561331025 1497592719 [ Run 30 of 100 GA/GALS ]
Beginning LAMARCKIAN GENETIC ALGORITHM (LGA), with a maximum of 2500000 energy evaluations.

Final-Value: -11.604


	FINAL GENETIC ALGORITHM DOCKED STATE
	_______________________________________________


Detailed state:  trans 23.197 -17.089 -1.627 quatxyzw -0.079146 0.138950 -0.971787 -0.173372 center 0.710 -0.190 -0.071 ntor 5 -179.7810 13.4120 18.3566 48.6197 17.0079
State:	 23.197 -17.089  -1.627  -0.080  0.141 -0.987 -160.032   -179.78   13.41   18.36   48.62   17.01

DOCKED: MODEL       30
DOCKED: USER    Run = 30
DOCKED: USER    DPF = ligand_dock.biased.dpf
DOCKED: USER  
DOCKED: USER    Estimated Free Energy of Binding    =   -9.25 kcal/mol  [=(1)+(2)+(3)-(4)]
DOCKED: USER    Estimated Inhibition Constant, Ki   =  166.64 nM (nanomolar)  [Temperature = 298.15 K]
DOCKED: USER    
DOCKED: USER    (1) Final Intermolecular Energy     =  -10.74 kcal/mol
DOCKED: USER        vdW + Hbond + desolv Energy     =  -10.74 kcal/mol
DOCKED: USER        Electrostatic Energy            =   +0.00 kcal/mol
DOCKED: USER    (2) Final Total Internal Energy     =   -0.87 kcal/mol
DOCKED: USER    (3) Torsional Free Energy           =   +1.49 kcal/mol
DOCKED: USER    (4) Unbound System's Energy  [=(2)] =   -0.87 kcal/mol
DOCKED: USER    
DOCKED: USER    
DOCKED: USER    NEWDPF move ligand.pdbqt
DOCKED: USER    NEWDPF about 0.710000 -0.190000 -0.071000
DOCKED: USER    NEWDPF tran0 23.197271 -17.088790 -1.626894
DOCKED: USER    NEWDPF quaternion0 -0.079146 0.138950 -0.971787 -0.173372
DOCKED: USER    NEWDPF axisangle0 -0.080363 0.141086 -0.986730 -160.032108
DOCKED: USER    NEWDPF quat0 -0.080363 0.141086 -0.986730 -160.032108
DOCKED: USER    NEWDPF dihe0 -179.78 13.41 18.36 48.62 17.01 
DOCKED: USER  keepresnum = 1 
DOCKED: USER  
DOCKED: REMARK  Name = 
DOCKED: REMARK  5 active torsions:
DOCKED: REMARK  status: ('A' for Active; 'I' for Inactive)
DOCKED: REMARK    1  A    between atoms: O_1  and  N_2
DOCKED: REMARK    2  A    between atoms: C_3  and  C_4
DOCKED: REMARK    3  A    between atoms: C_4  and  C_5
DOCKED: REMARK    4  A    between atoms: C_5  and  C_6
DOCKED: REMARK    5  A    between atoms: C_6  and  C_7
DOCKED: REMARK                            x       y       z     vdW  Elec       q    Type
DOCKED: REMARK                         _______ _______ _______ _____ _____    ______ ____
DOCKED: USER                              x       y       z     vdW  Elec       q    Type
DOCKED: USER                           _______ _______ _______ _____ _____    ______ ____
DOCKED: ROOT
DOCKED: ATOM      1  C   UNL     1      23.355 -17.369  -1.083 -0.72 -0.00    +0.000 C 
DOCKED: ENDROOT
DOCKED: BRANCH   1   2
DOCKED: ATOM      2  C   UNL     1      22.565 -18.381  -0.248 -0.82 -0.00    +0.000 C 
DOCKED: BRANCH   2   4
DOCKED: ATOM      3  N   UNL     1      21.063 -19.806  -1.721 -0.53 -0.00    +0.000 N 
DOCKED: ATOM      4  C   UNL     1      21.236 -18.660  -0.884 -0.84 -0.00    +0.000 C 
DOCKED: ATOM      5  O   UNL     1      20.279 -17.859  -0.708 -2.22 +0.00    +0.000 OA
DOCKED: ATOM      6  H   UNL     1      21.816 -20.425  -1.862 -0.43 -0.00    +0.000 HD
DOCKED: BRANCH   3   7
DOCKED: ATOM      7  O   UNL     1      19.874 -20.049  -2.320 -1.75 -0.00    +0.000 OA
DOCKED: ATOM      8  H   UNL     1      19.244 -19.350  -2.084 -0.46 -0.00    +0.000 HD
DOCKED: ENDBRANCH   3   7
DOCKED: ENDBRANCH   2   4
DOCKED: ENDBRANCH   1   2
DOCKED: BRANCH   1   9
DOCKED: ATOM      9  C   UNL     1      24.788 -17.855  -1.325 -0.70 -0.00    +0.000 C 
DOCKED: BRANCH   9  10
DOCKED: ATOM     10  C   UNL     1      25.665 -16.715  -1.769 -0.51 -0.00    +0.000 A 
DOCKED: ATOM     11  C   UNL     1      26.620 -16.172  -0.894 -0.40 -0.00    +0.000 A 
DOCKED: ATOM     12  C   UNL     1      27.411 -15.092  -1.298 -0.24 -0.00    +0.000 A 
DOCKED: ATOM     13  C   UNL     1      27.249 -14.542  -2.571 -0.23 -0.00    +0.000 A 
DOCKED: ATOM     14  C   UNL     1      26.290 -15.068  -3.443 -0.45 -0.00    +0.000 A 
DOCKED: ATOM     15  C   UNL     1      25.497 -16.147  -3.044 -0.45 -0.00    +0.000 A 
DOCKED: ENDBRANCH   9  10
DOCKED: ENDBRANCH   1   9
DOCKED: TORSDOF 5
DOCKED: TER
DOCKED: ENDMDL
________________________________________________________________________________


	BEGINNING GENETIC ALGORITHM DOCKING 31 of 100
Run: 31 Seed: 957674606 880596255 [ Run 31 of 100 GA/GALS ]
Beginning LAMARCKIAN GENETIC ALGORITHM (LGA), with a maximum of 2500000 energy evaluations.

Final-Value: -11.404


	FINAL GENETIC ALGORITHM DOCKED STATE
	_______________________________________________


Detailed state:  trans 23.724 -17.885 0.301 quatxyzw -0.193393 -0.842031 0.475026 0.167136 center 0.710 -0.190 -0.071 ntor 5 -149.2294 134.3460 -150.0682 2.9864 -99.7277
State:	 23.724 -17.885   0.301  -0.196 -0.854  0.482 160.757   -149.23  134.35 -150.07    2.99  -99.73

DOCKED: MODEL       31
DOCKED: USER    Run = 31
DOCKED: USER    DPF = ligand_dock.biased.dpf
DOCKED: USER  
DOCKED: USER    Estimated Free Energy of Binding    =   -9.19 kcal/mol  [=(1)+(2)+(3)-(4)]
DOCKED: USER    Estimated Inhibition Constant, Ki   =  184.41 nM (nanomolar)  [Temperature = 298.15 K]
DOCKED: USER    
DOCKED: USER    (1) Final Intermolecular Energy     =  -10.68 kcal/mol
DOCKED: USER        vdW + Hbond + desolv Energy     =  -10.68 kcal/mol
DOCKED: USER        Electrostatic Energy            =   +0.00 kcal/mol
DOCKED: USER    (2) Final Total Internal Energy     =   -0.73 kcal/mol
DOCKED: USER    (3) Torsional Free Energy           =   +1.49 kcal/mol
DOCKED: USER    (4) Unbound System's Energy  [=(2)] =   -0.73 kcal/mol
DOCKED: USER    
DOCKED: USER    
DOCKED: USER    NEWDPF move ligand.pdbqt
DOCKED: USER    NEWDPF about 0.710000 -0.190000 -0.071000
DOCKED: USER    NEWDPF tran0 23.724288 -17.885145 0.300693
DOCKED: USER    NEWDPF quaternion0 -0.193393 -0.842031 0.475026 0.167136
DOCKED: USER    NEWDPF axisangle0 -0.196152 -0.854044 0.481803 160.757355
DOCKED: USER    NEWDPF quat0 -0.196152 -0.854044 0.481803 160.757355
DOCKED: USER    NEWDPF dihe0 -149.23 134.35 -150.07 2.99 -99.73 
DOCKED: USER  keepresnum = 1 
DOCKED: USER  
DOCKED: REMARK  Name = 
DOCKED: REMARK  5 active torsions:
DOCKED: REMARK  status: ('A' for Active; 'I' for Inactive)
DOCKED: REMARK    1  A    between atoms: O_1  and  N_2
DOCKED: REMARK    2  A    between atoms: C_3  and  C_4
DOCKED: REMARK    3  A    between atoms: C_4  and  C_5
DOCKED: REMARK    4  A    between atoms: C_5  and  C_6
DOCKED: REMARK    5  A    between atoms: C_6  and  C_7
DOCKED: REMARK                            x       y       z     vdW  Elec       q    Type
DOCKED: REMARK                         _______ _______ _______ _____ _____    ______ ____
DOCKED: USER                              x       y       z     vdW  Elec       q    Type
DOCKED: USER                           _______ _______ _______ _____ _____    ______ ____
DOCKED: ROOT
DOCKED: ATOM      1  C   UNL     1      23.842 -18.349  -0.111 -0.72 -0.00    +0.000 C 
DOCKED: ENDROOT
DOCKED: BRANCH   1   2
DOCKED: ATOM      2  C   UNL     1      23.099 -18.714  -1.400 -0.78 -0.00    +0.000 C 
DOCKED: BRANCH   2   4
DOCKED: ATOM      3  N   UNL     1      20.804 -19.728  -1.799 -0.75 -0.00    +0.000 N 
DOCKED: ATOM      4  C   UNL     1      21.619 -18.741  -1.162 -0.74 -0.00    +0.000 C 
DOCKED: ATOM      5  O   UNL     1      21.089 -17.865  -0.428 -1.94 -0.00    +0.000 OA
DOCKED: ATOM      6  H   UNL     1      21.222 -20.405  -2.379 -0.51 -0.00    +0.000 HD
DOCKED: BRANCH   3   7
DOCKED: ATOM      7  O   UNL     1      19.464 -19.741  -1.611 -1.54 -0.00    +0.000 OA
DOCKED: ATOM      8  H   UNL     1      19.149 -18.834  -1.464 -0.55 -0.00    +0.000 HD
DOCKED: ENDBRANCH   3   7
DOCKED: ENDBRANCH   2   4
DOCKED: ENDBRANCH   1   2
DOCKED: BRANCH   1   9
DOCKED: ATOM      9  C   UNL     1      25.351 -18.244  -0.358 -0.70 -0.00    +0.000 C 
DOCKED: BRANCH   9  10
DOCKED: ATOM     10  C   UNL     1      25.695 -16.914  -0.972 -0.53 -0.00    +0.000 A 
DOCKED: ATOM     11  C   UNL     1      25.165 -16.552  -2.222 -0.52 -0.00    +0.000 A 
DOCKED: ATOM     12  C   UNL     1      25.511 -15.329  -2.806 -0.47 -0.00    +0.000 A 
DOCKED: ATOM     13  C   UNL     1      26.394 -14.466  -2.153 -0.30 -0.00    +0.000 A 
DOCKED: ATOM     14  C   UNL     1      26.936 -14.825  -0.915 -0.27 -0.00    +0.000 A 
DOCKED: ATOM     15  C   UNL     1      26.593 -16.046  -0.327 -0.36 -0.00    +0.000 A 
DOCKED: ENDBRANCH   9  10
DOCKED: ENDBRANCH   1   9
DOCKED: TORSDOF 5
DOCKED: TER
DOCKED: ENDMDL
________________________________________________________________________________


	BEGINNING GENETIC ALGORITHM DOCKING 32 of 100
Run: 32 Seed: 334919867 2072269672 [ Run 32 of 100 GA/GALS ]
Beginning LAMARCKIAN GENETIC ALGORITHM (LGA), with a maximum of 2500000 energy evaluations.

Final-Value: -11.182


	FINAL GENETIC ALGORITHM DOCKED STATE
	_______________________________________________


Detailed state:  trans 23.006 -17.312 -1.550 quatxyzw 0.247567 0.138393 -0.870275 -0.402715 center 0.710 -0.190 -0.071 ntor 5 -172.8094 91.4689 113.1570 -38.2962 -53.0072
State:	 23.006 -17.312  -1.550   0.270  0.151 -0.951 -132.504   -172.81   91.47  113.16  -38.30  -53.01

DOCKED: MODEL       32
DOCKED: USER    Run = 32
DOCKED: USER    DPF = ligand_dock.biased.dpf
DOCKED: USER  
DOCKED: USER    Estimated Free Energy of Binding    =   -8.85 kcal/mol  [=(1)+(2)+(3)-(4)]
DOCKED: USER    Estimated Inhibition Constant, Ki   =  327.19 nM (nanomolar)  [Temperature = 298.15 K]
DOCKED: USER    
DOCKED: USER    (1) Final Intermolecular Energy     =  -10.34 kcal/mol
DOCKED: USER        vdW + Hbond + desolv Energy     =  -10.34 kcal/mol
DOCKED: USER        Electrostatic Energy            =   +0.00 kcal/mol
DOCKED: USER    (2) Final Total Internal Energy     =   -0.84 kcal/mol
DOCKED: USER    (3) Torsional Free Energy           =   +1.49 kcal/mol
DOCKED: USER    (4) Unbound System's Energy  [=(2)] =   -0.84 kcal/mol
DOCKED: USER    
DOCKED: USER    
DOCKED: USER    NEWDPF move ligand.pdbqt
DOCKED: USER    NEWDPF about 0.710000 -0.190000 -0.071000
DOCKED: USER    NEWDPF tran0 23.005523 -17.311844 -1.549841
DOCKED: USER    NEWDPF quaternion0 0.247567 0.138393 -0.870275 -0.402715
DOCKED: USER    NEWDPF axisangle0 0.270468 0.151195 -0.950782 -132.503968
DOCKED: USER    NEWDPF quat0 0.270468 0.151195 -0.950782 -132.503968
DOCKED: USER    NEWDPF dihe0 -172.81 91.47 113.16 -38.30 -53.01 
DOCKED: USER  keepresnum = 1 
DOCKED: USER  
DOCKED: REMARK  Name = 
DOCKED: REMARK  5 active torsions:
DOCKED: REMARK  status: ('A' for Active; 'I' for Inactive)
DOCKED: REMARK    1  A    between atoms: O_1  and  N_2
DOCKED: REMARK    2  A    between atoms: C_3  and  C_4
DOCKED: REMARK    3  A    between atoms: C_4  and  C_5
DOCKED: REMARK    4  A    between atoms: C_5  and  C_6
DOCKED: REMARK    5  A    between atoms: C_6  and  C_7
DOCKED: REMARK                            x       y       z     vdW  Elec       q    Type
DOCKED: REMARK                         _______ _______ _______ _____ _____    ______ ____
DOCKED: USER                              x       y       z     vdW  Elec       q    Type
DOCKED: USER                           _______ _______ _______ _____ _____    ______ ____
DOCKED: ROOT
DOCKED: ATOM      1  C   UNL     1      22.910 -17.680  -1.045 -0.74 -0.00    +0.000 C 
DOCKED: ENDROOT
DOCKED: BRANCH   1   2
DOCKED: ATOM      2  C   UNL     1      22.294 -19.080  -0.968 -0.81 -0.00    +0.000 C 
DOCKED: BRANCH   2   4
DOCKED: ATOM      3  N   UNL     1      20.005 -20.174  -0.828 -0.70 -0.00    +0.000 N 
DOCKED: ATOM      4  C   UNL     1      20.805 -18.989  -0.812 -0.89 -0.00    +0.000 C 
DOCKED: ATOM      5  O   UNL     1      20.256 -17.860  -0.706 -2.21 +0.00    +0.000 OA
DOCKED: ATOM      6  H   UNL     1      20.438 -21.053  -0.920 -0.31 -0.00    +0.000 HD
DOCKED: BRANCH   3   7
DOCKED: ATOM      7  O   UNL     1      18.658 -20.097  -0.716 -0.86 -0.00    +0.000 OA
DOCKED: ATOM      8  H   UNL     1      18.383 -19.167  -0.748 -0.57 -0.00    +0.000 HD
DOCKED: ENDBRANCH   3   7
DOCKED: ENDBRANCH   2   4
DOCKED: ENDBRANCH   1   2
DOCKED: BRANCH   1   9
DOCKED: ATOM      9  C   UNL     1      24.246 -17.625  -0.296 -0.66 -0.00    +0.000 C 
DOCKED: BRANCH   9  10
DOCKED: ATOM     10  C   UNL     1      25.329 -17.078  -1.187 -0.57 -0.00    +0.000 A 
DOCKED: ATOM     11  C   UNL     1      26.679 -17.350  -0.910 -0.48 -0.00    +0.000 A 
DOCKED: ATOM     12  C   UNL     1      27.686 -16.815  -1.720 -0.32 -0.00    +0.000 A 
DOCKED: ATOM     13  C   UNL     1      27.353 -15.998  -2.804 -0.29 -0.00    +0.000 A 
DOCKED: ATOM     14  C   UNL     1      26.011 -15.712  -3.078 -0.47 -0.00    +0.000 A 
DOCKED: ATOM     15  C   UNL     1      25.002 -16.244  -2.270 -0.46 -0.00    +0.000 A 
DOCKED: ENDBRANCH   9  10
DOCKED: ENDBRANCH   1   9
DOCKED: TORSDOF 5
DOCKED: TER
DOCKED: ENDMDL
________________________________________________________________________________


	BEGINNING GENETIC ALGORITHM DOCKING 33 of 100
Run: 33 Seed: 709204987 995045041 [ Run 33 of 100 GA/GALS ]
Beginning LAMARCKIAN GENETIC ALGORITHM (LGA), with a maximum of 2500000 energy evaluations.

Final-Value: -11.433


	FINAL GENETIC ALGORITHM DOCKED STATE
	_______________________________________________


Detailed state:  trans 23.499 -16.883 -0.712 quatxyzw -0.085430 -0.535047 0.788357 0.291411 center 0.710 -0.190 -0.071 ntor 5 -177.9166 88.8715 -168.1163 10.1672 -52.6832
State:	 23.499 -16.883  -0.712  -0.089 -0.559  0.824 146.115   -177.92   88.87 -168.12   10.17  -52.68

DOCKED: MODEL       33
DOCKED: USER    Run = 33
DOCKED: USER    DPF = ligand_dock.biased.dpf
DOCKED: USER  
DOCKED: USER    Estimated Free Energy of Binding    =   -9.07 kcal/mol  [=(1)+(2)+(3)-(4)]
DOCKED: USER    Estimated Inhibition Constant, Ki   =  225.25 nM (nanomolar)  [Temperature = 298.15 K]
DOCKED: USER    
DOCKED: USER    (1) Final Intermolecular Energy     =  -10.56 kcal/mol
DOCKED: USER        vdW + Hbond + desolv Energy     =  -10.56 kcal/mol
DOCKED: USER        Electrostatic Energy            =   +0.00 kcal/mol
DOCKED: USER    (2) Final Total Internal Energy     =   -0.87 kcal/mol
DOCKED: USER    (3) Torsional Free Energy           =   +1.49 kcal/mol
DOCKED: USER    (4) Unbound System's Energy  [=(2)] =   -0.87 kcal/mol
DOCKED: USER    
DOCKED: USER    
DOCKED: USER    NEWDPF move ligand.pdbqt
DOCKED: USER    NEWDPF about 0.710000 -0.190000 -0.071000
DOCKED: USER    NEWDPF tran0 23.499212 -16.882506 -0.711532
DOCKED: USER    NEWDPF quaternion0 -0.085430 -0.535047 0.788357 0.291411
DOCKED: USER    NEWDPF axisangle0 -0.089307 -0.559323 0.824125 146.115144
DOCKED: USER    NEWDPF quat0 -0.089307 -0.559323 0.824125 146.115144
DOCKED: USER    NEWDPF dihe0 -177.92 88.87 -168.12 10.17 -52.68 
DOCKED: USER  keepresnum = 1 
DOCKED: USER  
DOCKED: REMARK  Name = 
DOCKED: REMARK  5 active torsions:
DOCKED: REMARK  status: ('A' for Active; 'I' for Inactive)
DOCKED: REMARK    1  A    between atoms: O_1  and  N_2
DOCKED: REMARK    2  A    between atoms: C_3  and  C_4
DOCKED: REMARK    3  A    between atoms: C_4  and  C_5
DOCKED: REMARK    4  A    between atoms: C_5  and  C_6
DOCKED: REMARK    5  A    between atoms: C_6  and  C_7
DOCKED: REMARK                            x       y       z     vdW  Elec       q    Type
DOCKED: REMARK                         _______ _______ _______ _____ _____    ______ ____
DOCKED: USER                              x       y       z     vdW  Elec       q    Type
DOCKED: USER                           _______ _______ _______ _____ _____    ______ ____
DOCKED: ROOT
DOCKED: ATOM      1  C   UNL     1      23.676 -17.473  -0.574 -0.73 -0.00    +0.000 C 
DOCKED: ENDROOT
DOCKED: BRANCH   1   2
DOCKED: ATOM      2  C   UNL     1      23.094 -18.800  -1.069 -0.82 -0.00    +0.000 C 
DOCKED: BRANCH   2   4
DOCKED: ATOM      3  N   UNL     1      20.848 -19.788  -1.728 -0.68 -0.00    +0.000 N 
DOCKED: ATOM      4  C   UNL     1      21.598 -18.724  -1.138 -0.76 -0.00    +0.000 C 
DOCKED: ATOM      5  O   UNL     1      21.005 -17.699  -0.707 -2.13 -0.00    +0.000 OA
DOCKED: ATOM      6  H   UNL     1      21.316 -20.583  -2.072 -0.34 -0.00    +0.000 HD
DOCKED: BRANCH   3   7
DOCKED: ATOM      7  O   UNL     1      19.499 -19.712  -1.819 -1.63 -0.00    +0.000 OA
DOCKED: ATOM      8  H   UNL     1      19.199 -18.859  -1.468 -0.51 -0.00    +0.000 HD
DOCKED: ENDBRANCH   3   7
DOCKED: ENDBRANCH   2   4
DOCKED: ENDBRANCH   1   2
DOCKED: BRANCH   1   9
DOCKED: ATOM      9  C   UNL     1      25.200 -17.446  -0.737 -0.67 -0.00    +0.000 C 
DOCKED: BRANCH   9  10
DOCKED: ATOM     10  C   UNL     1      25.628 -16.214  -1.489 -0.49 -0.00    +0.000 A 
DOCKED: ATOM     11  C   UNL     1      25.517 -16.163  -2.888 -0.47 -0.00    +0.000 A 
DOCKED: ATOM     12  C   UNL     1      25.946 -15.031  -3.588 -0.49 -0.00    +0.000 A 
DOCKED: ATOM     13  C   UNL     1      26.496 -13.948  -2.899 -0.28 -0.00    +0.000 A 
DOCKED: ATOM     14  C   UNL     1      26.622 -13.996  -1.507 -0.23 -0.00    +0.000 A 
DOCKED: ATOM     15  C   UNL     1      26.196 -15.126  -0.803 -0.34 -0.00    +0.000 A 
DOCKED: ENDBRANCH   9  10
DOCKED: ENDBRANCH   1   9
DOCKED: TORSDOF 5
DOCKED: TER
DOCKED: ENDMDL
________________________________________________________________________________


	BEGINNING GENETIC ALGORITHM DOCKING 34 of 100
Run: 34 Seed: 1348568867 1448291639 [ Run 34 of 100 GA/GALS ]
Beginning LAMARCKIAN GENETIC ALGORITHM (LGA), with a maximum of 2500000 energy evaluations.

Final-Value: -11.258


	FINAL GENETIC ALGORITHM DOCKED STATE
	_______________________________________________


Detailed state:  trans 23.712 -18.571 -1.880 quatxyzw -0.261071 0.430432 0.662043 0.555221 center 0.710 -0.190 -0.071 ntor 5 -173.5838 50.1370 178.1171 -77.1424 -44.8507
State:	 23.712 -18.571  -1.880  -0.314  0.518  0.796 112.548   -173.58   50.14  178.12  -77.14  -44.85

DOCKED: MODEL       34
DOCKED: USER    Run = 34
DOCKED: USER    DPF = ligand_dock.biased.dpf
DOCKED: USER  
DOCKED: USER    Estimated Free Energy of Binding    =   -8.91 kcal/mol  [=(1)+(2)+(3)-(4)]
DOCKED: USER    Estimated Inhibition Constant, Ki   =  294.68 nM (nanomolar)  [Temperature = 298.15 K]
DOCKED: USER    
DOCKED: USER    (1) Final Intermolecular Energy     =  -10.40 kcal/mol
DOCKED: USER        vdW + Hbond + desolv Energy     =  -10.40 kcal/mol
DOCKED: USER        Electrostatic Energy            =   +0.00 kcal/mol
DOCKED: USER    (2) Final Total Internal Energy     =   -0.86 kcal/mol
DOCKED: USER    (3) Torsional Free Energy           =   +1.49 kcal/mol
DOCKED: USER    (4) Unbound System's Energy  [=(2)] =   -0.86 kcal/mol
DOCKED: USER    
DOCKED: USER    
DOCKED: USER    NEWDPF move ligand.pdbqt
DOCKED: USER    NEWDPF about 0.710000 -0.190000 -0.071000
DOCKED: USER    NEWDPF tran0 23.712012 -18.571247 -1.880432
DOCKED: USER    NEWDPF quaternion0 -0.261071 0.430432 0.662043 0.555221
DOCKED: USER    NEWDPF axisangle0 -0.313899 0.517530 0.796009 112.548189
DOCKED: USER    NEWDPF quat0 -0.313899 0.517530 0.796009 112.548189
DOCKED: USER    NEWDPF dihe0 -173.58 50.14 178.12 -77.14 -44.85 
DOCKED: USER  keepresnum = 1 
DOCKED: USER  
DOCKED: REMARK  Name = 
DOCKED: REMARK  5 active torsions:
DOCKED: REMARK  status: ('A' for Active; 'I' for Inactive)
DOCKED: REMARK    1  A    between atoms: O_1  and  N_2
DOCKED: REMARK    2  A    between atoms: C_3  and  C_4
DOCKED: REMARK    3  A    between atoms: C_4  and  C_5
DOCKED: REMARK    4  A    between atoms: C_5  and  C_6
DOCKED: REMARK    5  A    between atoms: C_6  and  C_7
DOCKED: REMARK                            x       y       z     vdW  Elec       q    Type
DOCKED: REMARK                         _______ _______ _______ _____ _____    ______ ____
DOCKED: USER                              x       y       z     vdW  Elec       q    Type
DOCKED: USER                           _______ _______ _______ _____ _____    ______ ____
DOCKED: ROOT
DOCKED: ATOM      1  C   UNL     1      23.273 -18.412  -1.455 -0.77 -0.00    +0.000 C 
DOCKED: ENDROOT
DOCKED: BRANCH   1   2
DOCKED: ATOM      2  C   UNL     1      22.469 -19.308  -0.508 -0.71 -0.00    +0.000 C 
DOCKED: BRANCH   2   4
DOCKED: ATOM      3  N   UNL     1      20.080 -20.131  -0.772 -0.74 -0.00    +0.000 N 
DOCKED: ATOM      4  C   UNL     1      21.001 -19.043  -0.657 -0.89 -0.00    +0.000 C 
DOCKED: ATOM      5  O   UNL     1      20.584 -17.856  -0.721 -2.32 -0.00    +0.000 OA
DOCKED: ATOM      6  H   UNL     1      20.411 -21.057  -0.731 -0.26 -0.00    +0.000 HD
DOCKED: BRANCH   3   7
DOCKED: ATOM      7  O   UNL     1      18.756 -19.899  -0.935 -0.80 -0.00    +0.000 OA
DOCKED: ATOM      8  H   UNL     1      18.607 -18.947  -1.056 -0.60 -0.00    +0.000 HD
DOCKED: ENDBRANCH   3   7
DOCKED: ENDBRANCH   2   4
DOCKED: ENDBRANCH   1   2
DOCKED: BRANCH   1   9
DOCKED: ATOM      9  C   UNL     1      23.909 -17.242  -0.696 -0.70 -0.00    +0.000 C 
DOCKED: BRANCH   9  10
DOCKED: ATOM     10  C   UNL     1      25.342 -17.056  -1.117 -0.56 -0.00    +0.000 A 
DOCKED: ATOM     11  C   UNL     1      26.379 -17.676  -0.401 -0.54 -0.00    +0.000 A 
DOCKED: ATOM     12  C   UNL     1      27.711 -17.476  -0.774 -0.37 -0.00    +0.000 A 
DOCKED: ATOM     13  C   UNL     1      28.019 -16.649  -1.857 -0.30 -0.00    +0.000 A 
DOCKED: ATOM     14  C   UNL     1      26.994 -16.017  -2.567 -0.33 -0.00    +0.000 A 
DOCKED: ATOM     15  C   UNL     1      25.660 -16.214  -2.197 -0.49 -0.00    +0.000 A 
DOCKED: ENDBRANCH   9  10
DOCKED: ENDBRANCH   1   9
DOCKED: TORSDOF 5
DOCKED: TER
DOCKED: ENDMDL
________________________________________________________________________________


	BEGINNING GENETIC ALGORITHM DOCKING 35 of 100
Run: 35 Seed: 1142046330 286814588 [ Run 35 of 100 GA/GALS ]
Beginning LAMARCKIAN GENETIC ALGORITHM (LGA), with a maximum of 2500000 energy evaluations.

Final-Value: -11.378


	FINAL GENETIC ALGORITHM DOCKED STATE
	_______________________________________________


Detailed state:  trans 23.380 -17.342 -0.864 quatxyzw 0.285817 0.359886 -0.836679 -0.297924 center 0.710 -0.190 -0.071 ntor 5 -169.9376 106.5668 -90.4949 -26.4460 -58.6759
State:	 23.380 -17.342  -0.864   0.299  0.377 -0.876 -145.334   -169.94  106.57  -90.49  -26.45  -58.68

DOCKED: MODEL       35
DOCKED: USER    Run = 35
DOCKED: USER    DPF = ligand_dock.biased.dpf
DOCKED: USER  
DOCKED: USER    Estimated Free Energy of Binding    =   -9.04 kcal/mol  [=(1)+(2)+(3)-(4)]
DOCKED: USER    Estimated Inhibition Constant, Ki   =  235.14 nM (nanomolar)  [Temperature = 298.15 K]
DOCKED: USER    
DOCKED: USER    (1) Final Intermolecular Energy     =  -10.53 kcal/mol
DOCKED: USER        vdW + Hbond + desolv Energy     =  -10.53 kcal/mol
DOCKED: USER        Electrostatic Energy            =   +0.00 kcal/mol
DOCKED: USER    (2) Final Total Internal Energy     =   -0.84 kcal/mol
DOCKED: USER    (3) Torsional Free Energy           =   +1.49 kcal/mol
DOCKED: USER    (4) Unbound System's Energy  [=(2)] =   -0.84 kcal/mol
DOCKED: USER    
DOCKED: USER    
DOCKED: USER    NEWDPF move ligand.pdbqt
DOCKED: USER    NEWDPF about 0.710000 -0.190000 -0.071000
DOCKED: USER    NEWDPF tran0 23.380374 -17.342414 -0.863586
DOCKED: USER    NEWDPF quaternion0 0.285817 0.359886 -0.836679 -0.297924
DOCKED: USER    NEWDPF axisangle0 0.299413 0.377006 -0.876480 -145.334077
DOCKED: USER    NEWDPF quat0 0.299413 0.377006 -0.876480 -145.334077
DOCKED: USER    NEWDPF dihe0 -169.94 106.57 -90.49 -26.45 -58.68 
DOCKED: USER  keepresnum = 1 
DOCKED: USER  
DOCKED: REMARK  Name = 
DOCKED: REMARK  5 active torsions:
DOCKED: REMARK  status: ('A' for Active; 'I' for Inactive)
DOCKED: REMARK    1  A    between atoms: O_1  and  N_2
DOCKED: REMARK    2  A    between atoms: C_3  and  C_4
DOCKED: REMARK    3  A    between atoms: C_4  and  C_5
DOCKED: REMARK    4  A    between atoms: C_5  and  C_6
DOCKED: REMARK    5  A    between atoms: C_6  and  C_7
DOCKED: REMARK                            x       y       z     vdW  Elec       q    Type
DOCKED: REMARK                         _______ _______ _______ _____ _____    ______ ____
DOCKED: USER                              x       y       z     vdW  Elec       q    Type
DOCKED: USER                           _______ _______ _______ _____ _____    ______ ____
DOCKED: ROOT
DOCKED: ATOM      1  C   UNL     1      23.309 -17.901  -0.577 -0.80 -0.00    +0.000 C 
DOCKED: ENDROOT
DOCKED: BRANCH   1   2
DOCKED: ATOM      2  C   UNL     1      22.589 -19.159  -1.069 -0.77 -0.00    +0.000 C 
DOCKED: BRANCH   2   4
DOCKED: ATOM      3  N   UNL     1      20.234 -20.111  -1.150 -0.75 -0.00    +0.000 N 
DOCKED: ATOM      4  C   UNL     1      21.103 -18.993  -0.952 -0.87 -0.00    +0.000 C 
DOCKED: ATOM      5  O   UNL     1      20.619 -17.854  -0.717 -2.34 -0.00    +0.000 OA
DOCKED: ATOM      6  H   UNL     1      20.616 -20.997  -1.343 -0.31 -0.00    +0.000 HD
DOCKED: BRANCH   3   7
DOCKED: ATOM      7  O   UNL     1      18.891 -19.961  -1.074 -0.86 -0.00    +0.000 OA
DOCKED: ATOM      8  H   UNL     1      18.672 -19.017  -1.038 -0.58 -0.00    +0.000 HD
DOCKED: ENDBRANCH   3   7
DOCKED: ENDBRANCH   2   4
DOCKED: ENDBRANCH   1   2
DOCKED: BRANCH   1   9
DOCKED: ATOM      9  C   UNL     1      24.717 -18.235  -0.072 -0.69 -0.00    +0.000 C 
DOCKED: BRANCH   9  10
DOCKED: ATOM     10  C   UNL     1      25.752 -17.462  -0.845 -0.57 -0.00    +0.000 A 
DOCKED: ATOM     11  C   UNL     1      25.366 -16.611  -1.893 -0.53 -0.00    +0.000 A 
DOCKED: ATOM     12  C   UNL     1      26.331 -15.920  -2.632 -0.42 -0.00    +0.000 A 
DOCKED: ATOM     13  C   UNL     1      27.687 -16.080  -2.336 -0.28 -0.00    +0.000 A 
DOCKED: ATOM     14  C   UNL     1      28.081 -16.936  -1.302 -0.33 -0.00    +0.000 A 
DOCKED: ATOM     15  C   UNL     1      27.119 -17.630  -0.562 -0.45 -0.00    +0.000 A 
DOCKED: ENDBRANCH   9  10
DOCKED: ENDBRANCH   1   9
DOCKED: TORSDOF 5
DOCKED: TER
DOCKED: ENDMDL
________________________________________________________________________________


	BEGINNING GENETIC ALGORITHM DOCKING 36 of 100
Run: 36 Seed: 1038946507 871194297 [ Run 36 of 100 GA/GALS ]
Beginning LAMARCKIAN GENETIC ALGORITHM (LGA), with a maximum of 2500000 energy evaluations.

Final-Value: -11.242


	FINAL GENETIC ALGORITHM DOCKED STATE
	_______________________________________________


Detailed state:  trans 23.605 -19.119 0.036 quatxyzw -0.353269 0.928393 0.108038 0.040200 center 0.710 -0.190 -0.071 ntor 5 179.0175 -161.6038 27.7768 106.5189 54.6968
State:	 23.605 -19.119   0.036  -0.354  0.929  0.108 175.392    179.02 -161.60   27.78  106.52   54.70

DOCKED: MODEL       36
DOCKED: USER    Run = 36
DOCKED: USER    DPF = ligand_dock.biased.dpf
DOCKED: USER  
DOCKED: USER    Estimated Free Energy of Binding    =   -8.81 kcal/mol  [=(1)+(2)+(3)-(4)]
DOCKED: USER    Estimated Inhibition Constant, Ki   =  345.79 nM (nanomolar)  [Temperature = 298.15 K]
DOCKED: USER    
DOCKED: USER    (1) Final Intermolecular Energy     =  -10.31 kcal/mol
DOCKED: USER        vdW + Hbond + desolv Energy     =  -10.31 kcal/mol
DOCKED: USER        Electrostatic Energy            =   +0.00 kcal/mol
DOCKED: USER    (2) Final Total Internal Energy     =   -0.94 kcal/mol
DOCKED: USER    (3) Torsional Free Energy           =   +1.49 kcal/mol
DOCKED: USER    (4) Unbound System's Energy  [=(2)] =   -0.94 kcal/mol
DOCKED: USER    
DOCKED: USER    
DOCKED: USER    NEWDPF move ligand.pdbqt
DOCKED: USER    NEWDPF about 0.710000 -0.190000 -0.071000
DOCKED: USER    NEWDPF tran0 23.604515 -19.119452 0.036456
DOCKED: USER    NEWDPF quaternion0 -0.353269 0.928393 0.108038 0.040200
DOCKED: USER    NEWDPF axisangle0 -0.353555 0.929144 0.108125 175.392147
DOCKED: USER    NEWDPF quat0 -0.353555 0.929144 0.108125 175.392147
DOCKED: USER    NEWDPF dihe0 179.02 -161.60 27.78 106.52 54.70 
DOCKED: USER  keepresnum = 1 
DOCKED: USER  
DOCKED: REMARK  Name = 
DOCKED: REMARK  5 active torsions:
DOCKED: REMARK  status: ('A' for Active; 'I' for Inactive)
DOCKED: REMARK    1  A    between atoms: O_1  and  N_2
DOCKED: REMARK    2  A    between atoms: C_3  and  C_4
DOCKED: REMARK    3  A    between atoms: C_4  and  C_5
DOCKED: REMARK    4  A    between atoms: C_5  and  C_6
DOCKED: REMARK    5  A    between atoms: C_6  and  C_7
DOCKED: REMARK                            x       y       z     vdW  Elec       q    Type
DOCKED: REMARK                         _______ _______ _______ _____ _____    ______ ____
DOCKED: USER                              x       y       z     vdW  Elec       q    Type
DOCKED: USER                           _______ _______ _______ _____ _____    ______ ____
DOCKED: ROOT
DOCKED: ATOM      1  C   UNL     1      23.412 -18.920  -0.531 -0.75 -0.00    +0.000 C 
DOCKED: ENDROOT
DOCKED: BRANCH   1   2
DOCKED: ATOM      2  C   UNL     1      22.126 -19.254  -1.293 -0.69 -0.00    +0.000 C 
DOCKED: BRANCH   2   4
DOCKED: ATOM      3  N   UNL     1      20.503 -19.771   0.592 -0.69 -0.00    +0.000 N 
DOCKED: ATOM      4  C   UNL     1      20.923 -18.907  -0.467 -0.83 -0.00    +0.000 C 
DOCKED: ATOM      5  O   UNL     1      20.260 -17.870  -0.735 -2.21 -0.00    +0.000 OA
DOCKED: ATOM      6  H   UNL     1      21.019 -20.584   0.792 -0.59 -0.00    +0.000 HD
DOCKED: BRANCH   3   7
DOCKED: ATOM      7  O   UNL     1      19.401 -19.478   1.323 -0.72 -0.00    +0.000 OA
DOCKED: ATOM      8  H   UNL     1      19.019 -18.642   1.012 -0.38 -0.00    +0.000 HD
DOCKED: ENDBRANCH   3   7
DOCKED: ENDBRANCH   2   4
DOCKED: ENDBRANCH   1   2
DOCKED: BRANCH   1   9
DOCKED: ATOM      9  C   UNL     1      23.644 -17.405  -0.482 -0.69 -0.00    +0.000 C 
DOCKED: BRANCH   9  10
DOCKED: ATOM     10  C   UNL     1      25.007 -17.062  -1.022 -0.58 -0.00    +0.000 A 
DOCKED: ATOM     11  C   UNL     1      25.134 -16.279  -2.181 -0.51 -0.00    +0.000 A 
DOCKED: ATOM     12  C   UNL     1      26.400 -15.988  -2.699 -0.41 -0.00    +0.000 A 
DOCKED: ATOM     13  C   UNL     1      27.545 -16.484  -2.071 -0.30 -0.00    +0.000 A 
DOCKED: ATOM     14  C   UNL     1      27.426 -17.276  -0.924 -0.40 -0.00    +0.000 A 
DOCKED: ATOM     15  C   UNL     1      26.163 -17.569  -0.403 -0.55 -0.00    +0.000 A 
DOCKED: ENDBRANCH   9  10
DOCKED: ENDBRANCH   1   9
DOCKED: TORSDOF 5
DOCKED: TER
DOCKED: ENDMDL
________________________________________________________________________________


	BEGINNING GENETIC ALGORITHM DOCKING 37 of 100
Run: 37 Seed: 550118353 1981347386 [ Run 37 of 100 GA/GALS ]
Beginning LAMARCKIAN GENETIC ALGORITHM (LGA), with a maximum of 2500000 energy evaluations.

Final-Value: -11.144


	FINAL GENETIC ALGORITHM DOCKED STATE
	_______________________________________________


Detailed state:  trans 22.808 -19.538 -1.239 quatxyzw -0.064524 0.699615 0.710378 0.041692 center 0.710 -0.190 -0.071 ntor 5 -179.2841 46.7262 118.6072 38.0240 64.8906
State:	 22.808 -19.538  -1.239  -0.065  0.700  0.711 175.221   -179.28   46.73  118.61   38.02   64.89

DOCKED: MODEL       37
DOCKED: USER    Run = 37
DOCKED: USER    DPF = ligand_dock.biased.dpf
DOCKED: USER  
DOCKED: USER    Estimated Free Energy of Binding    =   -8.79 kcal/mol  [=(1)+(2)+(3)-(4)]
DOCKED: USER    Estimated Inhibition Constant, Ki   =  362.42 nM (nanomolar)  [Temperature = 298.15 K]
DOCKED: USER    
DOCKED: USER    (1) Final Intermolecular Energy     =  -10.28 kcal/mol
DOCKED: USER        vdW + Hbond + desolv Energy     =  -10.28 kcal/mol
DOCKED: USER        Electrostatic Energy            =   +0.00 kcal/mol
DOCKED: USER    (2) Final Total Internal Energy     =   -0.87 kcal/mol
DOCKED: USER    (3) Torsional Free Energy           =   +1.49 kcal/mol
DOCKED: USER    (4) Unbound System's Energy  [=(2)] =   -0.87 kcal/mol
DOCKED: USER    
DOCKED: USER    
DOCKED: USER    NEWDPF move ligand.pdbqt
DOCKED: USER    NEWDPF about 0.710000 -0.190000 -0.071000
DOCKED: USER    NEWDPF tran0 22.808265 -19.538044 -1.238864
DOCKED: USER    NEWDPF quaternion0 -0.064524 0.699615 0.710378 0.041692
DOCKED: USER    NEWDPF axisangle0 -0.064580 0.700224 0.710996 175.221031
DOCKED: USER    NEWDPF quat0 -0.064580 0.700224 0.710996 175.221031
DOCKED: USER    NEWDPF dihe0 -179.28 46.73 118.61 38.02 64.89 
DOCKED: USER  keepresnum = 1 
DOCKED: USER  
DOCKED: REMARK  Name = 
DOCKED: REMARK  5 active torsions:
DOCKED: REMARK  status: ('A' for Active; 'I' for Inactive)
DOCKED: REMARK    1  A    between atoms: O_1  and  N_2
DOCKED: REMARK    2  A    between atoms: C_3  and  C_4
DOCKED: REMARK    3  A    between atoms: C_4  and  C_5
DOCKED: REMARK    4  A    between atoms: C_5  and  C_6
DOCKED: REMARK    5  A    between atoms: C_6  and  C_7
DOCKED: REMARK                            x       y       z     vdW  Elec       q    Type
DOCKED: REMARK                         _______ _______ _______ _____ _____    ______ ____
DOCKED: USER                              x       y       z     vdW  Elec       q    Type
DOCKED: USER                           _______ _______ _______ _____ _____    ______ ____
DOCKED: ROOT
DOCKED: ATOM      1  C   UNL     1      22.700 -18.933  -1.091 -0.82 -0.00    +0.000 C 
DOCKED: ENDROOT
DOCKED: BRANCH   1   2
DOCKED: ATOM      2  C   UNL     1      21.385 -18.250  -0.705 -0.83 -0.00    +0.000 C 
DOCKED: BRANCH   2   4
DOCKED: ATOM      3  N   UNL     1      19.235 -19.389   0.027 -0.76 -0.00    +0.000 N 
DOCKED: ATOM      4  C   UNL     1      20.223 -19.156  -0.981 -0.87 -0.00    +0.000 C 
DOCKED: ATOM      5  O   UNL     1      20.139 -19.743  -2.092 -1.87 -0.00    +0.000 OA
DOCKED: ATOM      6  H   UNL     1      19.309 -18.935   0.897 -0.27 -0.00    +0.000 HD
DOCKED: BRANCH   3   7
DOCKED: ATOM      7  O   UNL     1      18.198 -20.228  -0.206 -0.80 -0.00    +0.000 OA
DOCKED: ATOM      8  H   UNL     1      18.277 -20.599  -1.099 -0.37 -0.00    +0.000 HD
DOCKED: ENDBRANCH   3   7
DOCKED: ENDBRANCH   2   4
DOCKED: ENDBRANCH   1   2
DOCKED: BRANCH   1   9
DOCKED: ATOM      9  C   UNL     1      23.809 -18.598  -0.089 -0.66 -0.00    +0.000 C 
DOCKED: BRANCH   9  10
DOCKED: ATOM     10  C   UNL     1      24.900 -17.802  -0.754 -0.64 -0.00    +0.000 A 
DOCKED: ATOM     11  C   UNL     1      26.217 -17.860  -0.271 -0.57 -0.00    +0.000 A 
DOCKED: ATOM     12  C   UNL     1      27.222 -17.095  -0.870 -0.43 -0.00    +0.000 A 
DOCKED: ATOM     13  C   UNL     1      26.918 -16.260  -1.948 -0.36 -0.00    +0.000 A 
DOCKED: ATOM     14  C   UNL     1      25.607 -16.186  -2.427 -0.49 -0.00    +0.000 A 
DOCKED: ATOM     15  C   UNL     1      24.598 -16.948  -1.830 -0.55 -0.00    +0.000 A 
DOCKED: ENDBRANCH   9  10
DOCKED: ENDBRANCH   1   9
DOCKED: TORSDOF 5
DOCKED: TER
DOCKED: ENDMDL
________________________________________________________________________________


	BEGINNING GENETIC ALGORITHM DOCKING 38 of 100
Run: 38 Seed: 720008774 2125348375 [ Run 38 of 100 GA/GALS ]
Beginning LAMARCKIAN GENETIC ALGORITHM (LGA), with a maximum of 2500000 energy evaluations.

Final-Value: -11.531


	FINAL GENETIC ALGORITHM DOCKED STATE
	_______________________________________________


Detailed state:  trans 23.193 -16.675 -1.023 quatxyzw 0.231252 -0.497189 0.828209 0.115742 center 0.710 -0.190 -0.071 ntor 5 178.3778 49.0551 150.9705 66.2159 17.0426
State:	 23.193 -16.675  -1.023   0.233 -0.501  0.834 166.707    178.38   49.06  150.97   66.22   17.04

DOCKED: MODEL       38
DOCKED: USER    Run = 38
DOCKED: USER    DPF = ligand_dock.biased.dpf
DOCKED: USER  
DOCKED: USER    Estimated Free Energy of Binding    =   -9.18 kcal/mol  [=(1)+(2)+(3)-(4)]
DOCKED: USER    Estimated Inhibition Constant, Ki   =  188.11 nM (nanomolar)  [Temperature = 298.15 K]
DOCKED: USER    
DOCKED: USER    (1) Final Intermolecular Energy     =  -10.67 kcal/mol
DOCKED: USER        vdW + Hbond + desolv Energy     =  -10.67 kcal/mol
DOCKED: USER        Electrostatic Energy            =   +0.00 kcal/mol
DOCKED: USER    (2) Final Total Internal Energy     =   -0.86 kcal/mol
DOCKED: USER    (3) Torsional Free Energy           =   +1.49 kcal/mol
DOCKED: USER    (4) Unbound System's Energy  [=(2)] =   -0.86 kcal/mol
DOCKED: USER    
DOCKED: USER    
DOCKED: USER    NEWDPF move ligand.pdbqt
DOCKED: USER    NEWDPF about 0.710000 -0.190000 -0.071000
DOCKED: USER    NEWDPF tran0 23.192630 -16.675260 -1.022560
DOCKED: USER    NEWDPF quaternion0 0.231252 -0.497189 0.828209 0.115742
DOCKED: USER    NEWDPF axisangle0 0.232817 -0.500553 0.833812 166.707181
DOCKED: USER    NEWDPF quat0 0.232817 -0.500553 0.833812 166.707181
DOCKED: USER    NEWDPF dihe0 178.38 49.06 150.97 66.22 17.04 
DOCKED: USER  keepresnum = 1 
DOCKED: USER  
DOCKED: REMARK  Name = 
DOCKED: REMARK  5 active torsions:
DOCKED: REMARK  status: ('A' for Active; 'I' for Inactive)
DOCKED: REMARK    1  A    between atoms: O_1  and  N_2
DOCKED: REMARK    2  A    between atoms: C_3  and  C_4
DOCKED: REMARK    3  A    between atoms: C_4  and  C_5
DOCKED: REMARK    4  A    between atoms: C_5  and  C_6
DOCKED: REMARK    5  A    between atoms: C_6  and  C_7
DOCKED: REMARK                            x       y       z     vdW  Elec       q    Type
DOCKED: REMARK                         _______ _______ _______ _____ _____    ______ ____
DOCKED: USER                              x       y       z     vdW  Elec       q    Type
DOCKED: USER                           _______ _______ _______ _____ _____    ______ ____
DOCKED: ROOT
DOCKED: ATOM      1  C   UNL     1      23.484 -17.222  -0.897 -0.71 -0.00    +0.000 C 
DOCKED: ENDROOT
DOCKED: BRANCH   1   2
DOCKED: ATOM      2  C   UNL     1      22.880 -18.596  -0.593 -0.84 -0.00    +0.000 C 
DOCKED: BRANCH   2   4
DOCKED: ATOM      3  N   UNL     1      20.937 -19.736  -1.768 -0.71 -0.00    +0.000 N 
DOCKED: ATOM      4  C   UNL     1      21.438 -18.636  -1.004 -0.81 -0.00    +0.000 C 
DOCKED: ATOM      5  O   UNL     1      20.677 -17.678  -0.707 -2.21 -0.00    +0.000 OA
DOCKED: ATOM      6  H   UNL     1      21.537 -20.479  -2.006 -0.46 -0.00    +0.000 HD
DOCKED: BRANCH   3   7
DOCKED: ATOM      7  O   UNL     1      19.643 -19.765  -2.166 -1.65 -0.00    +0.000 OA
DOCKED: ATOM      8  H   UNL     1      19.184 -18.979  -1.832 -0.54 -0.00    +0.000 HD
DOCKED: ENDBRANCH   3   7
DOCKED: ENDBRANCH   2   4
DOCKED: ENDBRANCH   1   2
DOCKED: BRANCH   1   9
DOCKED: ATOM      9  C   UNL     1      24.558 -17.322  -1.986 -0.58 -0.00    +0.000 C 
DOCKED: BRANCH   9  10
DOCKED: ATOM     10  C   UNL     1      25.422 -16.089  -1.990 -0.49 -0.00    +0.000 A 
DOCKED: ATOM     11  C   UNL     1      25.505 -15.285  -3.138 -0.49 -0.00    +0.000 A 
DOCKED: ATOM     12  C   UNL     1      26.333 -14.158  -3.151 -0.34 -0.00    +0.000 A 
DOCKED: ATOM     13  C   UNL     1      27.091 -13.833  -2.023 -0.20 -0.00    +0.000 A 
DOCKED: ATOM     14  C   UNL     1      27.024 -14.636  -0.881 -0.26 -0.00    +0.000 A 
DOCKED: ATOM     15  C   UNL     1      26.198 -15.764  -0.864 -0.38 -0.00    +0.000 A 
DOCKED: ENDBRANCH   9  10
DOCKED: ENDBRANCH   1   9
DOCKED: TORSDOF 5
DOCKED: TER
DOCKED: ENDMDL
________________________________________________________________________________


	BEGINNING GENETIC ALGORITHM DOCKING 39 of 100
Run: 39 Seed: 9518936 1027487652 [ Run 39 of 100 GA/GALS ]
Beginning LAMARCKIAN GENETIC ALGORITHM (LGA), with a maximum of 2500000 energy evaluations.

Final-Value: -11.691


	FINAL GENETIC ALGORITHM DOCKED STATE
	_______________________________________________


Detailed state:  trans 23.824 -19.061 -1.557 quatxyzw 0.002277 -0.468373 -0.855395 -0.221180 center 0.710 -0.190 -0.071 ntor 5 173.3745 -9.3695 -86.3025 -6.6116 58.6334
State:	 23.824 -19.061  -1.557   0.002 -0.480 -0.877 -154.443    173.37   -9.37  -86.30   -6.61   58.63

DOCKED: MODEL       39
DOCKED: USER    Run = 39
DOCKED: USER    DPF = ligand_dock.biased.dpf
DOCKED: USER  
DOCKED: USER    Estimated Free Energy of Binding    =   -9.31 kcal/mol  [=(1)+(2)+(3)-(4)]
DOCKED: USER    Estimated Inhibition Constant, Ki   =  150.72 nM (nanomolar)  [Temperature = 298.15 K]
DOCKED: USER    
DOCKED: USER    (1) Final Intermolecular Energy     =  -10.80 kcal/mol
DOCKED: USER        vdW + Hbond + desolv Energy     =  -10.80 kcal/mol
DOCKED: USER        Electrostatic Energy            =   +0.00 kcal/mol
DOCKED: USER    (2) Final Total Internal Energy     =   -0.89 kcal/mol
DOCKED: USER    (3) Torsional Free Energy           =   +1.49 kcal/mol
DOCKED: USER    (4) Unbound System's Energy  [=(2)] =   -0.89 kcal/mol
DOCKED: USER    
DOCKED: USER    
DOCKED: USER    NEWDPF move ligand.pdbqt
DOCKED: USER    NEWDPF about 0.710000 -0.190000 -0.071000
DOCKED: USER    NEWDPF tran0 23.823985 -19.060585 -1.557138
DOCKED: USER    NEWDPF quaternion0 0.002277 -0.468373 -0.855395 -0.221180
DOCKED: USER    NEWDPF axisangle0 0.002334 -0.480267 -0.877119 -154.443353
DOCKED: USER    NEWDPF quat0 0.002334 -0.480267 -0.877119 -154.443353
DOCKED: USER    NEWDPF dihe0 173.37 -9.37 -86.30 -6.61 58.63 
DOCKED: USER  keepresnum = 1 
DOCKED: USER  
DOCKED: REMARK  Name = 
DOCKED: REMARK  5 active torsions:
DOCKED: REMARK  status: ('A' for Active; 'I' for Inactive)
DOCKED: REMARK    1  A    between atoms: O_1  and  N_2
DOCKED: REMARK    2  A    between atoms: C_3  and  C_4
DOCKED: REMARK    3  A    between atoms: C_4  and  C_5
DOCKED: REMARK    4  A    between atoms: C_5  and  C_6
DOCKED: REMARK    5  A    between atoms: C_6  and  C_7
DOCKED: REMARK                            x       y       z     vdW  Elec       q    Type
DOCKED: REMARK                         _______ _______ _______ _____ _____    ______ ____
DOCKED: USER                              x       y       z     vdW  Elec       q    Type
DOCKED: USER                           _______ _______ _______ _____ _____    ______ ____
DOCKED: ROOT
DOCKED: ATOM      1  C   UNL     1      23.736 -18.637  -1.097 -0.80 -0.00    +0.000 C 
DOCKED: ENDROOT
DOCKED: BRANCH   1   2
DOCKED: ATOM      2  C   UNL     1      22.638 -18.577  -0.030 -0.78 -0.00    +0.000 C 
DOCKED: BRANCH   2   4
DOCKED: ATOM      3  N   UNL     1      20.747 -19.752  -1.253 -0.79 -0.00    +0.000 N 
DOCKED: ATOM      4  C   UNL     1      21.284 -18.561  -0.673 -0.85 -0.00    +0.000 C 
DOCKED: ATOM      5  O   UNL     1      20.635 -17.483  -0.734 -2.08 +0.00    +0.000 OA
DOCKED: ATOM      6  H   UNL     1      21.261 -20.590  -1.211 -0.14 -0.00    +0.000 HD
DOCKED: BRANCH   3   7
DOCKED: ATOM      7  O   UNL     1      19.536 -19.737  -1.860 -1.68 -0.00    +0.000 OA
DOCKED: ATOM      8  H   UNL     1      19.117 -18.872  -1.726 -0.54 -0.00    +0.000 HD
DOCKED: ENDBRANCH   3   7
DOCKED: ENDBRANCH   2   4
DOCKED: ENDBRANCH   1   2
DOCKED: BRANCH   1   9
DOCKED: ATOM      9  C   UNL     1      25.125 -18.491  -0.465 -0.65 -0.00    +0.000 C 
DOCKED: BRANCH   9  10
DOCKED: ATOM     10  C   UNL     1      25.847 -17.305  -1.045 -0.54 -0.00    +0.000 A 
DOCKED: ATOM     11  C   UNL     1      25.213 -16.480  -1.989 -0.53 -0.00    +0.000 A 
DOCKED: ATOM     12  C   UNL     1      25.897 -15.398  -2.551 -0.44 -0.00    +0.000 A 
DOCKED: ATOM     13  C   UNL     1      27.219 -15.136  -2.182 -0.26 -0.00    +0.000 A 
DOCKED: ATOM     14  C   UNL     1      27.861 -15.960  -1.252 -0.28 -0.00    +0.000 A 
DOCKED: ATOM     15  C   UNL     1      27.182 -17.044  -0.689 -0.43 -0.00    +0.000 A 
DOCKED: ENDBRANCH   9  10
DOCKED: ENDBRANCH   1   9
DOCKED: TORSDOF 5
DOCKED: TER
DOCKED: ENDMDL
________________________________________________________________________________


	BEGINNING GENETIC ALGORITHM DOCKING 40 of 100
Run: 40 Seed: 2041685475 1598185721 [ Run 40 of 100 GA/GALS ]
Beginning LAMARCKIAN GENETIC ALGORITHM (LGA), with a maximum of 2500000 energy evaluations.

Final-Value: -11.714


	FINAL GENETIC ALGORITHM DOCKED STATE
	_______________________________________________


Detailed state:  trans 23.340 -16.775 -0.928 quatxyzw 0.196609 -0.439367 0.875133 0.049429 center 0.710 -0.190 -0.071 ntor 5 162.5037 37.9605 -22.8601 75.3700 10.8806
State:	 23.340 -16.775  -0.928   0.197 -0.440  0.876 174.334    162.50   37.96  -22.86   75.37   10.88

DOCKED: MODEL       40
DOCKED: USER    Run = 40
DOCKED: USER    DPF = ligand_dock.biased.dpf
DOCKED: USER  
DOCKED: USER    Estimated Free Energy of Binding    =   -9.39 kcal/mol  [=(1)+(2)+(3)-(4)]
DOCKED: USER    Estimated Inhibition Constant, Ki   =  131.51 nM (nanomolar)  [Temperature = 298.15 K]
DOCKED: USER    
DOCKED: USER    (1) Final Intermolecular Energy     =  -10.88 kcal/mol
DOCKED: USER        vdW + Hbond + desolv Energy     =  -10.88 kcal/mol
DOCKED: USER        Electrostatic Energy            =   +0.00 kcal/mol
DOCKED: USER    (2) Final Total Internal Energy     =   -0.84 kcal/mol
DOCKED: USER    (3) Torsional Free Energy           =   +1.49 kcal/mol
DOCKED: USER    (4) Unbound System's Energy  [=(2)] =   -0.84 kcal/mol
DOCKED: USER    
DOCKED: USER    
DOCKED: USER    NEWDPF move ligand.pdbqt
DOCKED: USER    NEWDPF about 0.710000 -0.190000 -0.071000
DOCKED: USER    NEWDPF tran0 23.339982 -16.774518 -0.928367
DOCKED: USER    NEWDPF quaternion0 0.196609 -0.439367 0.875133 0.049429
DOCKED: USER    NEWDPF axisangle0 0.196850 -0.439905 0.876204 174.333577
DOCKED: USER    NEWDPF quat0 0.196850 -0.439905 0.876204 174.333577
DOCKED: USER    NEWDPF dihe0 162.50 37.96 -22.86 75.37 10.88 
DOCKED: USER  keepresnum = 1 
DOCKED: USER  
DOCKED: REMARK  Name = 
DOCKED: REMARK  5 active torsions:
DOCKED: REMARK  status: ('A' for Active; 'I' for Inactive)
DOCKED: REMARK    1  A    between atoms: O_1  and  N_2
DOCKED: REMARK    2  A    between atoms: C_3  and  C_4
DOCKED: REMARK    3  A    between atoms: C_4  and  C_5
DOCKED: REMARK    4  A    between atoms: C_5  and  C_6
DOCKED: REMARK    5  A    between atoms: C_6  and  C_7
DOCKED: REMARK                            x       y       z     vdW  Elec       q    Type
DOCKED: REMARK                         _______ _______ _______ _____ _____    ______ ____
DOCKED: USER                              x       y       z     vdW  Elec       q    Type
DOCKED: USER                           _______ _______ _______ _____ _____    ______ ____
DOCKED: ROOT
DOCKED: ATOM      1  C   UNL     1      23.556 -17.325  -0.705 -0.73 -0.00    +0.000 C 
DOCKED: ENDROOT
DOCKED: BRANCH   1   2
DOCKED: ATOM      2  C   UNL     1      22.773 -18.542  -0.205 -0.81 -0.00    +0.000 C 
DOCKED: BRANCH   2   4
DOCKED: ATOM      3  N   UNL     1      21.014 -19.721  -1.608 -0.72 -0.00    +0.000 N 
DOCKED: ATOM      4  C   UNL     1      21.414 -18.587  -0.835 -0.84 -0.00    +0.000 C 
DOCKED: ATOM      5  O   UNL     1      20.637 -17.602  -0.714 -2.17 +0.00    +0.000 OA
DOCKED: ATOM      6  H   UNL     1      21.627 -20.485  -1.707 -0.37 -0.00    +0.000 HD
DOCKED: BRANCH   3   7
DOCKED: ATOM      7  O   UNL     1      19.798 -19.755  -2.203 -1.80 -0.00    +0.000 OA
DOCKED: ATOM      8  H   UNL     1      19.221 -19.087  -1.799 -0.50 -0.00    +0.000 HD
DOCKED: ENDBRANCH   3   7
DOCKED: ENDBRANCH   2   4
DOCKED: ENDBRANCH   1   2
DOCKED: BRANCH   1   9
DOCKED: ATOM      9  C   UNL     1      24.625 -17.738  -1.722 -0.66 -0.00    +0.000 C 
DOCKED: BRANCH   9  10
DOCKED: ATOM     10  C   UNL     1      25.555 -16.589  -2.007 -0.51 -0.00    +0.000 A 
DOCKED: ATOM     11  C   UNL     1      26.398 -16.092  -1.000 -0.41 -0.00    +0.000 A 
DOCKED: ATOM     12  C   UNL     1      27.238 -15.004  -1.258 -0.25 -0.00    +0.000 A 
DOCKED: ATOM     13  C   UNL     1      27.235 -14.400  -2.517 -0.23 -0.00    +0.000 A 
DOCKED: ATOM     14  C   UNL     1      26.389 -14.880  -3.521 -0.43 -0.00    +0.000 A 
DOCKED: ATOM     15  C   UNL     1      25.547 -15.967  -3.268 -0.47 -0.00    +0.000 A 
DOCKED: ENDBRANCH   9  10
DOCKED: ENDBRANCH   1   9
DOCKED: TORSDOF 5
DOCKED: TER
DOCKED: ENDMDL
________________________________________________________________________________


	BEGINNING GENETIC ALGORITHM DOCKING 41 of 100
Run: 41 Seed: 1766923258 1859902109 [ Run 41 of 100 GA/GALS ]
Beginning LAMARCKIAN GENETIC ALGORITHM (LGA), with a maximum of 2500000 energy evaluations.

Final-Value: -11.388


	FINAL GENETIC ALGORITHM DOCKED STATE
	_______________________________________________


Detailed state:  trans 23.314 -17.555 -1.301 quatxyzw -0.189745 -0.215634 0.904859 0.314212 center 0.710 -0.190 -0.071 ntor 5 -167.5953 88.4604 -87.4686 -18.4637 -36.7662
State:	 23.314 -17.555  -1.301  -0.200 -0.227  0.953 143.374   -167.60   88.46  -87.47  -18.46  -36.77

DOCKED: MODEL       41
DOCKED: USER    Run = 41
DOCKED: USER    DPF = ligand_dock.biased.dpf
DOCKED: USER  
DOCKED: USER    Estimated Free Energy of Binding    =   -9.07 kcal/mol  [=(1)+(2)+(3)-(4)]
DOCKED: USER    Estimated Inhibition Constant, Ki   =  222.82 nM (nanomolar)  [Temperature = 298.15 K]
DOCKED: USER    
DOCKED: USER    (1) Final Intermolecular Energy     =  -10.57 kcal/mol
DOCKED: USER        vdW + Hbond + desolv Energy     =  -10.57 kcal/mol
DOCKED: USER        Electrostatic Energy            =   +0.00 kcal/mol
DOCKED: USER    (2) Final Total Internal Energy     =   -0.82 kcal/mol
DOCKED: USER    (3) Torsional Free Energy           =   +1.49 kcal/mol
DOCKED: USER    (4) Unbound System's Energy  [=(2)] =   -0.82 kcal/mol
DOCKED: USER    
DOCKED: USER    
DOCKED: USER    NEWDPF move ligand.pdbqt
DOCKED: USER    NEWDPF about 0.710000 -0.190000 -0.071000
DOCKED: USER    NEWDPF tran0 23.313756 -17.554900 -1.301212
DOCKED: USER    NEWDPF quaternion0 -0.189745 -0.215634 0.904859 0.314212
DOCKED: USER    NEWDPF axisangle0 -0.199868 -0.227138 0.953132 143.373512
DOCKED: USER    NEWDPF quat0 -0.199868 -0.227138 0.953132 143.373512
DOCKED: USER    NEWDPF dihe0 -167.60 88.46 -87.47 -18.46 -36.77 
DOCKED: USER  keepresnum = 1 
DOCKED: USER  
DOCKED: REMARK  Name = 
DOCKED: REMARK  5 active torsions:
DOCKED: REMARK  status: ('A' for Active; 'I' for Inactive)
DOCKED: REMARK    1  A    between atoms: O_1  and  N_2
DOCKED: REMARK    2  A    between atoms: C_3  and  C_4
DOCKED: REMARK    3  A    between atoms: C_4  and  C_5
DOCKED: REMARK    4  A    between atoms: C_5  and  C_6
DOCKED: REMARK    5  A    between atoms: C_6  and  C_7
DOCKED: REMARK                            x       y       z     vdW  Elec       q    Type
DOCKED: REMARK                         _______ _______ _______ _____ _____    ______ ____
DOCKED: USER                              x       y       z     vdW  Elec       q    Type
DOCKED: USER                           _______ _______ _______ _____ _____    ______ ____
DOCKED: ROOT
DOCKED: ATOM      1  C   UNL     1      23.268 -17.974  -0.831 -0.80 -0.00    +0.000 C 
DOCKED: ENDROOT
DOCKED: BRANCH   1   2
DOCKED: ATOM      2  C   UNL     1      22.490 -19.292  -0.777 -0.77 -0.00    +0.000 C 
DOCKED: BRANCH   2   4
DOCKED: ATOM      3  N   UNL     1      20.090 -20.113  -0.909 -0.75 -0.00    +0.000 N 
DOCKED: ATOM      4  C   UNL     1      21.014 -19.030  -0.780 -0.89 -0.00    +0.000 C 
DOCKED: ATOM      5  O   UNL     1      20.590 -17.846  -0.708 -2.32 -0.00    +0.000 OA
DOCKED: ATOM      6  H   UNL     1      20.426 -21.036  -0.974 -0.33 -0.00    +0.000 HD
DOCKED: BRANCH   3   7
DOCKED: ATOM      7  O   UNL     1      18.756 -19.880  -0.941 -0.79 -0.00    +0.000 OA
DOCKED: ATOM      8  H   UNL     1      18.596 -18.931  -1.064 -0.60 -0.00    +0.000 HD
DOCKED: ENDBRANCH   3   7
DOCKED: ENDBRANCH   2   4
DOCKED: ENDBRANCH   1   2
DOCKED: BRANCH   1   9
DOCKED: ATOM      9  C   UNL     1      24.719 -18.173  -0.378 -0.73 -0.00    +0.000 C 
DOCKED: BRANCH   9  10
DOCKED: ATOM     10  C   UNL     1      25.648 -17.310  -1.188 -0.55 -0.00    +0.000 A 
DOCKED: ATOM     11  C   UNL     1      25.139 -16.455  -2.180 -0.52 -0.00    +0.000 A 
DOCKED: ATOM     12  C   UNL     1      26.007 -15.679  -2.954 -0.46 -0.00    +0.000 A 
DOCKED: ATOM     13  C   UNL     1      27.387 -15.757  -2.751 -0.29 -0.00    +0.000 A 
DOCKED: ATOM     14  C   UNL     1      27.903 -16.615  -1.775 -0.31 -0.00    +0.000 A 
DOCKED: ATOM     15  C   UNL     1      27.039 -17.394  -1.000 -0.44 -0.00    +0.000 A 
DOCKED: ENDBRANCH   9  10
DOCKED: ENDBRANCH   1   9
DOCKED: TORSDOF 5
DOCKED: TER
DOCKED: ENDMDL
________________________________________________________________________________


	BEGINNING GENETIC ALGORITHM DOCKING 42 of 100
Run: 42 Seed: 911348973 15851626 [ Run 42 of 100 GA/GALS ]
Beginning LAMARCKIAN GENETIC ALGORITHM (LGA), with a maximum of 2500000 energy evaluations.

Final-Value: -11.596


	FINAL GENETIC ALGORITHM DOCKED STATE
	_______________________________________________


Detailed state:  trans 23.480 -17.006 -0.356 quatxyzw 0.098470 0.621793 -0.723096 -0.284270 center 0.710 -0.190 -0.071 ntor 5 -171.2143 92.5815 -162.3868 9.2276 -71.3905
State:	 23.480 -17.006  -0.356   0.103  0.649 -0.754 -146.970   -171.21   92.58 -162.39    9.23  -71.39

DOCKED: MODEL       42
DOCKED: USER    Run = 42
DOCKED: USER    DPF = ligand_dock.biased.dpf
DOCKED: USER  
DOCKED: USER    Estimated Free Energy of Binding    =   -9.22 kcal/mol  [=(1)+(2)+(3)-(4)]
DOCKED: USER    Estimated Inhibition Constant, Ki   =  175.32 nM (nanomolar)  [Temperature = 298.15 K]
DOCKED: USER    
DOCKED: USER    (1) Final Intermolecular Energy     =  -10.71 kcal/mol
DOCKED: USER        vdW + Hbond + desolv Energy     =  -10.71 kcal/mol
DOCKED: USER        Electrostatic Energy            =   +0.00 kcal/mol
DOCKED: USER    (2) Final Total Internal Energy     =   -0.89 kcal/mol
DOCKED: USER    (3) Torsional Free Energy           =   +1.49 kcal/mol
DOCKED: USER    (4) Unbound System's Energy  [=(2)] =   -0.89 kcal/mol
DOCKED: USER    
DOCKED: USER    
DOCKED: USER    NEWDPF move ligand.pdbqt
DOCKED: USER    NEWDPF about 0.710000 -0.190000 -0.071000
DOCKED: USER    NEWDPF tran0 23.479831 -17.005731 -0.356381
DOCKED: USER    NEWDPF quaternion0 0.098470 0.621793 -0.723096 -0.284270
DOCKED: USER    NEWDPF axisangle0 0.102707 0.648549 -0.754212 -146.969589
DOCKED: USER    NEWDPF quat0 0.102707 0.648549 -0.754212 -146.969589
DOCKED: USER    NEWDPF dihe0 -171.21 92.58 -162.39 9.23 -71.39 
DOCKED: USER  keepresnum = 1 
DOCKED: USER  
DOCKED: REMARK  Name = 
DOCKED: REMARK  5 active torsions:
DOCKED: REMARK  status: ('A' for Active; 'I' for Inactive)
DOCKED: REMARK    1  A    between atoms: O_1  and  N_2
DOCKED: REMARK    2  A    between atoms: C_3  and  C_4
DOCKED: REMARK    3  A    between atoms: C_4  and  C_5
DOCKED: REMARK    4  A    between atoms: C_5  and  C_6
DOCKED: REMARK    5  A    between atoms: C_6  and  C_7
DOCKED: REMARK                            x       y       z     vdW  Elec       q    Type
DOCKED: REMARK                         _______ _______ _______ _____ _____    ______ ____
DOCKED: USER                              x       y       z     vdW  Elec       q    Type
DOCKED: USER                           _______ _______ _______ _____ _____    ______ ____
DOCKED: ROOT
DOCKED: ATOM      1  C   UNL     1      23.675 -17.607  -0.353 -0.71 -0.00    +0.000 C 
DOCKED: ENDROOT
DOCKED: BRANCH   1   2
DOCKED: ATOM      2  C   UNL     1      23.112 -18.814  -1.108 -0.81 -0.00    +0.000 C 
DOCKED: BRANCH   2   4
DOCKED: ATOM      3  N   UNL     1      20.869 -19.768  -1.824 -0.68 -0.00    +0.000 N 
DOCKED: ATOM      4  C   UNL     1      21.613 -18.782  -1.104 -0.80 -0.00    +0.000 C 
DOCKED: ATOM      5  O   UNL     1      21.010 -17.860  -0.494 -2.04 -0.00    +0.000 OA
DOCKED: ATOM      6  H   UNL     1      21.344 -20.482  -2.306 -0.51 -0.00    +0.000 HD
DOCKED: BRANCH   3   7
DOCKED: ATOM      7  O   UNL     1      19.515 -19.728  -1.847 -1.66 -0.00    +0.000 OA
DOCKED: ATOM      8  H   UNL     1      19.209 -18.898  -1.448 -0.50 -0.00    +0.000 HD
DOCKED: ENDBRANCH   3   7
DOCKED: ENDBRANCH   2   4
DOCKED: ENDBRANCH   1   2
DOCKED: BRANCH   1   9
DOCKED: ATOM      9  C   UNL     1      25.192 -17.499  -0.542 -0.66 -0.00    +0.000 C 
DOCKED: BRANCH   9  10
DOCKED: ATOM     10  C   UNL     1      25.532 -16.331  -1.429 -0.50 -0.00    +0.000 A 
DOCKED: ATOM     11  C   UNL     1      25.293 -16.397  -2.811 -0.39 -0.00    +0.000 A 
DOCKED: ATOM     12  C   UNL     1      25.639 -15.324  -3.638 -0.51 -0.00    +0.000 A 
DOCKED: ATOM     13  C   UNL     1      26.234 -14.183  -3.093 -0.35 -0.00    +0.000 A 
DOCKED: ATOM     14  C   UNL     1      26.488 -14.115  -1.720 -0.24 -0.00    +0.000 A 
DOCKED: ATOM     15  C   UNL     1      26.144 -15.186  -0.889 -0.34 -0.00    +0.000 A 
DOCKED: ENDBRANCH   9  10
DOCKED: ENDBRANCH   1   9
DOCKED: TORSDOF 5
DOCKED: TER
DOCKED: ENDMDL
________________________________________________________________________________


	BEGINNING GENETIC ALGORITHM DOCKING 43 of 100
Run: 43 Seed: 93215303 978569523 [ Run 43 of 100 GA/GALS ]
Beginning LAMARCKIAN GENETIC ALGORITHM (LGA), with a maximum of 2500000 energy evaluations.

Final-Value: -11.101


	FINAL GENETIC ALGORITHM DOCKED STATE
	_______________________________________________


Detailed state:  trans 23.455 -17.416 -0.379 quatxyzw -0.093431 -0.585690 0.791116 0.149575 center 0.710 -0.190 -0.071 ntor 5 168.3607 157.8560 21.7813 -2.9540 -44.7039
State:	 23.455 -17.416  -0.379  -0.094 -0.592  0.800 162.795    168.36  157.86   21.78   -2.95  -44.70

DOCKED: MODEL       43
DOCKED: USER    Run = 43
DOCKED: USER    DPF = ligand_dock.biased.dpf
DOCKED: USER  
DOCKED: USER    Estimated Free Energy of Binding    =   -8.77 kcal/mol  [=(1)+(2)+(3)-(4)]
DOCKED: USER    Estimated Inhibition Constant, Ki   =  370.53 nM (nanomolar)  [Temperature = 298.15 K]
DOCKED: USER    
DOCKED: USER    (1) Final Intermolecular Energy     =  -10.27 kcal/mol
DOCKED: USER        vdW + Hbond + desolv Energy     =  -10.27 kcal/mol
DOCKED: USER        Electrostatic Energy            =   +0.00 kcal/mol
DOCKED: USER    (2) Final Total Internal Energy     =   -0.84 kcal/mol
DOCKED: USER    (3) Torsional Free Energy           =   +1.49 kcal/mol
DOCKED: USER    (4) Unbound System's Energy  [=(2)] =   -0.84 kcal/mol
DOCKED: USER    
DOCKED: USER    
DOCKED: USER    NEWDPF move ligand.pdbqt
DOCKED: USER    NEWDPF about 0.710000 -0.190000 -0.071000
DOCKED: USER    NEWDPF tran0 23.455494 -17.416123 -0.379054
DOCKED: USER    NEWDPF quaternion0 -0.093431 -0.585690 0.791116 0.149575
DOCKED: USER    NEWDPF axisangle0 -0.094494 -0.592354 0.800117 162.795435
DOCKED: USER    NEWDPF quat0 -0.094494 -0.592354 0.800117 162.795435
DOCKED: USER    NEWDPF dihe0 168.36 157.86 21.78 -2.95 -44.70 
DOCKED: USER  keepresnum = 1 
DOCKED: USER  
DOCKED: REMARK  Name = 
DOCKED: REMARK  5 active torsions:
DOCKED: REMARK  status: ('A' for Active; 'I' for Inactive)
DOCKED: REMARK    1  A    between atoms: O_1  and  N_2
DOCKED: REMARK    2  A    between atoms: C_3  and  C_4
DOCKED: REMARK    3  A    between atoms: C_4  and  C_5
DOCKED: REMARK    4  A    between atoms: C_5  and  C_6
DOCKED: REMARK    5  A    between atoms: C_6  and  C_7
DOCKED: REMARK                            x       y       z     vdW  Elec       q    Type
DOCKED: REMARK                         _______ _______ _______ _____ _____    ______ ____
DOCKED: USER                              x       y       z     vdW  Elec       q    Type
DOCKED: USER                           _______ _______ _______ _____ _____    ______ ____
DOCKED: ROOT
DOCKED: ATOM      1  C   UNL     1      23.510 -18.043  -0.326 -0.79 -0.00    +0.000 C 
DOCKED: ENDROOT
DOCKED: BRANCH   1   2
DOCKED: ATOM      2  C   UNL     1      22.567 -19.144  -0.821 -0.79 -0.00    +0.000 C 
DOCKED: BRANCH   2   4
DOCKED: ATOM      3  N   UNL     1      20.523 -19.847   0.515 -0.69 -0.00    +0.000 N 
DOCKED: ATOM      4  C   UNL     1      21.171 -18.896  -0.334 -0.83 -0.00    +0.000 C 
DOCKED: ATOM      5  O   UNL     1      20.554 -17.863  -0.707 -2.32 -0.00    +0.000 OA
DOCKED: ATOM      6  H   UNL     1      21.006 -20.657   0.796 -0.59 -0.00    +0.000 HD
DOCKED: BRANCH   3   7
DOCKED: ATOM      7  O   UNL     1      19.253 -19.643   0.935 -0.77 -0.00    +0.000 OA
DOCKED: ATOM      8  H   UNL     1      18.986 -18.732   0.730 -0.31 -0.00    +0.000 HD
DOCKED: ENDBRANCH   3   7
DOCKED: ENDBRANCH   2   4
DOCKED: ENDBRANCH   1   2
DOCKED: BRANCH   1   9
DOCKED: ATOM      9  C   UNL     1      24.954 -18.322  -0.757 -0.71 -0.00    +0.000 C 
DOCKED: BRANCH   9  10
DOCKED: ATOM     10  C   UNL     1      25.597 -17.070  -1.289 -0.55 -0.00    +0.000 A 
DOCKED: ATOM     11  C   UNL     1      26.622 -16.436  -0.567 -0.42 -0.00    +0.000 A 
DOCKED: ATOM     12  C   UNL     1      27.196 -15.255  -1.047 -0.28 -0.00    +0.000 A 
DOCKED: ATOM     13  C   UNL     1      26.746 -14.694  -2.245 -0.29 -0.00    +0.000 A 
DOCKED: ATOM     14  C   UNL     1      25.718 -15.311  -2.963 -0.47 -0.00    +0.000 A 
DOCKED: ATOM     15  C   UNL     1      25.140 -16.492  -2.486 -0.47 -0.00    +0.000 A 
DOCKED: ENDBRANCH   9  10
DOCKED: ENDBRANCH   1   9
DOCKED: TORSDOF 5
DOCKED: TER
DOCKED: ENDMDL
________________________________________________________________________________


	BEGINNING GENETIC ALGORITHM DOCKING 44 of 100
Run: 44 Seed: 1027166163 966734123 [ Run 44 of 100 GA/GALS ]
Beginning LAMARCKIAN GENETIC ALGORITHM (LGA), with a maximum of 2500000 energy evaluations.

Final-Value: -11.123


	FINAL GENETIC ALGORITHM DOCKED STATE
	_______________________________________________


Detailed state:  trans 23.353 -19.805 -0.233 quatxyzw -0.229972 0.925216 0.237842 -0.185792 center 0.710 -0.190 -0.071 ntor 5 -160.0061 179.9634 169.5297 91.1720 98.0116
State:	 23.353 -19.805  -0.233  -0.234  0.942  0.242 -158.585   -160.01  179.96  169.53   91.17   98.01

DOCKED: MODEL       44
DOCKED: USER    Run = 44
DOCKED: USER    DPF = ligand_dock.biased.dpf
DOCKED: USER  
DOCKED: USER    Estimated Free Energy of Binding    =   -8.72 kcal/mol  [=(1)+(2)+(3)-(4)]
DOCKED: USER    Estimated Inhibition Constant, Ki   =  402.97 nM (nanomolar)  [Temperature = 298.15 K]
DOCKED: USER    
DOCKED: USER    (1) Final Intermolecular Energy     =  -10.22 kcal/mol
DOCKED: USER        vdW + Hbond + desolv Energy     =  -10.22 kcal/mol
DOCKED: USER        Electrostatic Energy            =   +0.00 kcal/mol
DOCKED: USER    (2) Final Total Internal Energy     =   -0.91 kcal/mol
DOCKED: USER    (3) Torsional Free Energy           =   +1.49 kcal/mol
DOCKED: USER    (4) Unbound System's Energy  [=(2)] =   -0.91 kcal/mol
DOCKED: USER    
DOCKED: USER    
DOCKED: USER    NEWDPF move ligand.pdbqt
DOCKED: USER    NEWDPF about 0.710000 -0.190000 -0.071000
DOCKED: USER    NEWDPF tran0 23.353078 -19.805342 -0.232933
DOCKED: USER    NEWDPF quaternion0 -0.229972 0.925216 0.237842 -0.185792
DOCKED: USER    NEWDPF axisangle0 -0.234047 0.941610 0.242057 -158.585350
DOCKED: USER    NEWDPF quat0 -0.234047 0.941610 0.242057 -158.585350
DOCKED: USER    NEWDPF dihe0 -160.01 179.96 169.53 91.17 98.01 
DOCKED: USER  keepresnum = 1 
DOCKED: USER  
DOCKED: REMARK  Name = 
DOCKED: REMARK  5 active torsions:
DOCKED: REMARK  status: ('A' for Active; 'I' for Inactive)
DOCKED: REMARK    1  A    between atoms: O_1  and  N_2
DOCKED: REMARK    2  A    between atoms: C_3  and  C_4
DOCKED: REMARK    3  A    between atoms: C_4  and  C_5
DOCKED: REMARK    4  A    between atoms: C_5  and  C_6
DOCKED: REMARK    5  A    between atoms: C_6  and  C_7
DOCKED: REMARK                            x       y       z     vdW  Elec       q    Type
DOCKED: REMARK                         _______ _______ _______ _____ _____    ______ ____
DOCKED: USER                              x       y       z     vdW  Elec       q    Type
DOCKED: USER                           _______ _______ _______ _____ _____    ______ ____
DOCKED: ROOT
DOCKED: ATOM      1  C   UNL     1      23.416 -19.376  -0.692 -0.62 -0.00    +0.000 C 
DOCKED: ENDROOT
DOCKED: BRANCH   1   2
DOCKED: ATOM      2  C   UNL     1      22.431 -18.990  -1.800 -0.33 -0.00    +0.000 C 
DOCKED: BRANCH   2   4
DOCKED: ATOM      3  N   UNL     1      20.151 -20.035  -1.395 -0.73 -0.00    +0.000 N 
DOCKED: ATOM      4  C   UNL     1      21.035 -18.920  -1.258 -0.72 -0.00    +0.000 C 
DOCKED: ATOM      5  O   UNL     1      20.628 -17.858  -0.716 -2.34 -0.00    +0.000 OA
DOCKED: ATOM      6  H   UNL     1      20.470 -20.860  -1.827 -0.46 -0.00    +0.000 HD
DOCKED: BRANCH   3   7
DOCKED: ATOM      7  O   UNL     1      18.880 -19.968  -0.933 -0.89 -0.00    +0.000 OA
DOCKED: ATOM      8  H   UNL     1      18.621 -19.038  -0.832 -0.51 -0.00    +0.000 HD
DOCKED: ENDBRANCH   3   7
DOCKED: ENDBRANCH   2   4
DOCKED: ENDBRANCH   1   2
DOCKED: BRANCH   1   9
DOCKED: ATOM      9  C   UNL     1      23.937 -18.133   0.038 -0.69 -0.00    +0.000 C 
DOCKED: BRANCH   9  10
DOCKED: ATOM     10  C   UNL     1      25.064 -17.501  -0.734 -0.61 -0.00    +0.000 A 
DOCKED: ATOM     11  C   UNL     1      26.396 -17.701  -0.337 -0.54 -0.00    +0.000 A 
DOCKED: ATOM     12  C   UNL     1      27.440 -17.087  -1.036 -0.40 -0.00    +0.000 A 
DOCKED: ATOM     13  C   UNL     1      27.161 -16.262  -2.128 -0.33 -0.00    +0.000 A 
DOCKED: ATOM     14  C   UNL     1      25.837 -16.046  -2.522 -0.47 -0.00    +0.000 A 
DOCKED: ATOM     15  C   UNL     1      24.790 -16.658  -1.825 -0.55 -0.00    +0.000 A 
DOCKED: ENDBRANCH   9  10
DOCKED: ENDBRANCH   1   9
DOCKED: TORSDOF 5
DOCKED: TER
DOCKED: ENDMDL
________________________________________________________________________________


	BEGINNING GENETIC ALGORITHM DOCKING 45 of 100
Run: 45 Seed: 2052257811 1297295134 [ Run 45 of 100 GA/GALS ]
Beginning LAMARCKIAN GENETIC ALGORITHM (LGA), with a maximum of 2500000 energy evaluations.

Final-Value: -11.604


	FINAL GENETIC ALGORITHM DOCKED STATE
	_______________________________________________


Detailed state:  trans 23.857 -17.666 -2.043 quatxyzw -0.159343 0.205816 0.855903 0.446855 center 0.710 -0.190 -0.071 ntor 5 174.0021 31.6577 -49.4215 -29.0309 -19.8253
State:	 23.857 -17.666  -2.043  -0.178  0.230  0.957 126.916    174.00   31.66  -49.42  -29.03  -19.83

DOCKED: MODEL       45
DOCKED: USER    Run = 45
DOCKED: USER    DPF = ligand_dock.biased.dpf
DOCKED: USER  
DOCKED: USER    Estimated Free Energy of Binding    =   -9.28 kcal/mol  [=(1)+(2)+(3)-(4)]
DOCKED: USER    Estimated Inhibition Constant, Ki   =  158.74 nM (nanomolar)  [Temperature = 298.15 K]
DOCKED: USER    
DOCKED: USER    (1) Final Intermolecular Energy     =  -10.77 kcal/mol
DOCKED: USER        vdW + Hbond + desolv Energy     =  -10.77 kcal/mol
DOCKED: USER        Electrostatic Energy            =   +0.00 kcal/mol
DOCKED: USER    (2) Final Total Internal Energy     =   -0.84 kcal/mol
DOCKED: USER    (3) Torsional Free Energy           =   +1.49 kcal/mol
DOCKED: USER    (4) Unbound System's Energy  [=(2)] =   -0.84 kcal/mol
DOCKED: USER    
DOCKED: USER    
DOCKED: USER    NEWDPF move ligand.pdbqt
DOCKED: USER    NEWDPF about 0.710000 -0.190000 -0.071000
DOCKED: USER    NEWDPF tran0 23.857178 -17.666160 -2.042972
DOCKED: USER    NEWDPF quaternion0 -0.159343 0.205816 0.855903 0.446855
DOCKED: USER    NEWDPF axisangle0 -0.178115 0.230063 0.956737 126.915790
DOCKED: USER    NEWDPF quat0 -0.178115 0.230063 0.956737 126.915790
DOCKED: USER    NEWDPF dihe0 174.00 31.66 -49.42 -29.03 -19.83 
DOCKED: USER  keepresnum = 1 
DOCKED: USER  
DOCKED: REMARK  Name = 
DOCKED: REMARK  5 active torsions:
DOCKED: REMARK  status: ('A' for Active; 'I' for Inactive)
DOCKED: REMARK    1  A    between atoms: O_1  and  N_2
DOCKED: REMARK    2  A    between atoms: C_3  and  C_4
DOCKED: REMARK    3  A    between atoms: C_4  and  C_5
DOCKED: REMARK    4  A    between atoms: C_5  and  C_6
DOCKED: REMARK    5  A    between atoms: C_6  and  C_7
DOCKED: REMARK                            x       y       z     vdW  Elec       q    Type
DOCKED: REMARK                         _______ _______ _______ _____ _____    ______ ____
DOCKED: USER                              x       y       z     vdW  Elec       q    Type
DOCKED: USER                           _______ _______ _______ _____ _____    ______ ____
DOCKED: ROOT
DOCKED: ATOM      1  C   UNL     1      23.667 -17.619  -1.442 -0.71 -0.00    +0.000 C 
DOCKED: ENDROOT
DOCKED: BRANCH   1   2
DOCKED: ATOM      2  C   UNL     1      22.905 -18.632  -0.583 -0.83 -0.00    +0.000 C 
DOCKED: BRANCH   2   4
DOCKED: ATOM      3  N   UNL     1      20.820 -19.756  -1.501 -0.76 -0.00    +0.000 N 
DOCKED: ATOM      4  C   UNL     1      21.444 -18.609  -0.918 -0.83 -0.00    +0.000 C 
DOCKED: ATOM      5  O   UNL     1      20.774 -17.561  -0.720 -2.12 +0.00    +0.000 OA
DOCKED: ATOM      6  H   UNL     1      21.349 -20.570  -1.662 -0.28 -0.00    +0.000 HD
DOCKED: BRANCH   3   7
DOCKED: ATOM      7  O   UNL     1      19.507 -19.732  -1.832 -1.67 -0.00    +0.000 OA
DOCKED: ATOM      8  H   UNL     1      19.111 -18.901  -1.525 -0.56 -0.00    +0.000 HD
DOCKED: ENDBRANCH   3   7
DOCKED: ENDBRANCH   2   4
DOCKED: ENDBRANCH   1   2
DOCKED: BRANCH   1   9
DOCKED: ATOM      9  C   UNL     1      24.907 -17.098  -0.708 -0.64 -0.00    +0.000 C 
DOCKED: BRANCH   9  10
DOCKED: ATOM     10  C   UNL     1      25.890 -16.507  -1.683 -0.48 -0.00    +0.000 A 
DOCKED: ATOM     11  C   UNL     1      25.437 -15.744  -2.772 -0.48 -0.00    +0.000 A 
DOCKED: ATOM     12  C   UNL     1      26.349 -15.224  -3.695 -0.47 -0.00    +0.000 A 
DOCKED: ATOM     13  C   UNL     1      27.716 -15.468  -3.544 -0.29 -0.00    +0.000 A 
DOCKED: ATOM     14  C   UNL     1      28.174 -16.238  -2.470 -0.26 -0.00    +0.000 A 
DOCKED: ATOM     15  C   UNL     1      27.266 -16.761  -1.545 -0.37 -0.00    +0.000 A 
DOCKED: ENDBRANCH   9  10
DOCKED: ENDBRANCH   1   9
DOCKED: TORSDOF 5
DOCKED: TER
DOCKED: ENDMDL
________________________________________________________________________________


	BEGINNING GENETIC ALGORITHM DOCKING 46 of 100
Run: 46 Seed: 199676796 1571247384 [ Run 46 of 100 GA/GALS ]
Beginning LAMARCKIAN GENETIC ALGORITHM (LGA), with a maximum of 2500000 energy evaluations.

Final-Value: -9.837


	FINAL GENETIC ALGORITHM DOCKED STATE
	_______________________________________________


Detailed state:  trans 25.183 -16.826 -0.420 quatxyzw -0.474933 0.687236 -0.475660 0.275486 center 0.710 -0.190 -0.071 ntor 5 179.7034 -166.4907 -103.7167 146.4800 8.3911
State:	 25.183 -16.826  -0.420  -0.494  0.715 -0.495 148.018    179.70 -166.49 -103.72  146.48    8.39

DOCKED: MODEL       46
DOCKED: USER    Run = 46
DOCKED: USER    DPF = ligand_dock.biased.dpf
DOCKED: USER  
DOCKED: USER    Estimated Free Energy of Binding    =   -7.37 kcal/mol  [=(1)+(2)+(3)-(4)]
DOCKED: USER    Estimated Inhibition Constant, Ki   =    3.95 uM (micromolar)  [Temperature = 298.15 K]
DOCKED: USER    
DOCKED: USER    (1) Final Intermolecular Energy     =   -8.86 kcal/mol
DOCKED: USER        vdW + Hbond + desolv Energy     =   -8.86 kcal/mol
DOCKED: USER        Electrostatic Energy            =   +0.00 kcal/mol
DOCKED: USER    (2) Final Total Internal Energy     =   -0.97 kcal/mol
DOCKED: USER    (3) Torsional Free Energy           =   +1.49 kcal/mol
DOCKED: USER    (4) Unbound System's Energy  [=(2)] =   -0.97 kcal/mol
DOCKED: USER    
DOCKED: USER    
DOCKED: USER    NEWDPF move ligand.pdbqt
DOCKED: USER    NEWDPF about 0.710000 -0.190000 -0.071000
DOCKED: USER    NEWDPF tran0 25.183477 -16.826214 -0.419795
DOCKED: USER    NEWDPF quaternion0 -0.474933 0.687236 -0.475660 0.275486
DOCKED: USER    NEWDPF axisangle0 -0.494050 0.714899 -0.494806 148.018002
DOCKED: USER    NEWDPF quat0 -0.494050 0.714899 -0.494806 148.018002
DOCKED: USER    NEWDPF dihe0 179.70 -166.49 -103.72 146.48 8.39 
DOCKED: USER  keepresnum = 1 
DOCKED: USER  
DOCKED: REMARK  Name = 
DOCKED: REMARK  5 active torsions:
DOCKED: REMARK  status: ('A' for Active; 'I' for Inactive)
DOCKED: REMARK    1  A    between atoms: O_1  and  N_2
DOCKED: REMARK    2  A    between atoms: C_3  and  C_4
DOCKED: REMARK    3  A    between atoms: C_4  and  C_5
DOCKED: REMARK    4  A    between atoms: C_5  and  C_6
DOCKED: REMARK    5  A    between atoms: C_6  and  C_7
DOCKED: REMARK                            x       y       z     vdW  Elec       q    Type
DOCKED: REMARK                         _______ _______ _______ _____ _____    ______ ____
DOCKED: USER                              x       y       z     vdW  Elec       q    Type
DOCKED: USER                           _______ _______ _______ _____ _____    ______ ____
DOCKED: ROOT
DOCKED: ATOM      1  C   UNL     1      25.096 -17.381  -0.708 -0.67 -0.00    +0.000 C 
DOCKED: ENDROOT
DOCKED: BRANCH   1   2
DOCKED: ATOM      2  C   UNL     1      24.310 -18.608  -0.235 -0.64 -0.00    +0.000 C 
DOCKED: BRANCH   2   4
DOCKED: ATOM      3  N   UNL     1      21.888 -17.841  -0.211 -0.73 -0.00    +0.000 N 
DOCKED: ATOM      4  C   UNL     1      22.930 -18.605  -0.823 -0.83 -0.00    +0.000 C 
DOCKED: ATOM      5  O   UNL     1      22.682 -19.309  -1.837 -0.79 -0.00    +0.000 OA
DOCKED: ATOM      6  H   UNL     1      22.084 -17.299   0.587 -0.04 -0.00    +0.000 HD
DOCKED: BRANCH   3   7
DOCKED: ATOM      7  O   UNL     1      20.633 -17.856  -0.720 -2.34 -0.00    +0.000 OA
DOCKED: ATOM      8  H   UNL     1      20.608 -18.430  -1.502 -0.08 -0.00    +0.000 HD
DOCKED: ENDBRANCH   3   7
DOCKED: ENDBRANCH   2   4
DOCKED: ENDBRANCH   1   2
DOCKED: BRANCH   1   9
DOCKED: ATOM      9  C   UNL     1      24.697 -16.991  -2.136 -0.55 -0.00    +0.000 C 
DOCKED: BRANCH   9  10
DOCKED: ATOM     10  C   UNL     1      25.612 -15.918  -2.665 -0.49 -0.00    +0.000 A 
DOCKED: ATOM     11  C   UNL     1      26.443 -15.200  -1.790 -0.34 -0.00    +0.000 A 
DOCKED: ATOM     12  C   UNL     1      27.268 -14.182  -2.279 -0.21 -0.00    +0.000 A 
DOCKED: ATOM     13  C   UNL     1      27.263 -13.869  -3.641 -0.24 -0.00    +0.000 A 
DOCKED: ATOM     14  C   UNL     1      26.428 -14.571  -4.516 -0.44 -0.00    +0.000 A 
DOCKED: ATOM     15  C   UNL     1      25.601 -15.588  -4.032 -0.48 -0.00    +0.000 A 
DOCKED: ENDBRANCH   9  10
DOCKED: ENDBRANCH   1   9
DOCKED: TORSDOF 5
DOCKED: TER
DOCKED: ENDMDL
________________________________________________________________________________


	BEGINNING GENETIC ALGORITHM DOCKING 47 of 100
Run: 47 Seed: 28045624 1805350215 [ Run 47 of 100 GA/GALS ]
Beginning LAMARCKIAN GENETIC ALGORITHM (LGA), with a maximum of 2500000 energy evaluations.

Final-Value: -11.738


	FINAL GENETIC ALGORITHM DOCKED STATE
	_______________________________________________


Detailed state:  trans 24.438 -18.422 -1.023 quatxyzw -0.225805 0.720087 0.339364 0.561533 center 0.710 -0.190 -0.071 ntor 5 161.8239 -4.4348 -150.7314 -91.2017 -6.2965
State:	 24.438 -18.422  -1.023  -0.273  0.870  0.410 111.676    161.82   -4.43 -150.73  -91.20   -6.30

DOCKED: MODEL       47
DOCKED: USER    Run = 47
DOCKED: USER    DPF = ligand_dock.biased.dpf
DOCKED: USER  
DOCKED: USER    Estimated Free Energy of Binding    =   -9.39 kcal/mol  [=(1)+(2)+(3)-(4)]
DOCKED: USER    Estimated Inhibition Constant, Ki   =  131.16 nM (nanomolar)  [Temperature = 298.15 K]
DOCKED: USER    
DOCKED: USER    (1) Final Intermolecular Energy     =  -10.88 kcal/mol
DOCKED: USER        vdW + Hbond + desolv Energy     =  -10.88 kcal/mol
DOCKED: USER        Electrostatic Energy            =   +0.00 kcal/mol
DOCKED: USER    (2) Final Total Internal Energy     =   -0.86 kcal/mol
DOCKED: USER    (3) Torsional Free Energy           =   +1.49 kcal/mol
DOCKED: USER    (4) Unbound System's Energy  [=(2)] =   -0.86 kcal/mol
DOCKED: USER    
DOCKED: USER    
DOCKED: USER    NEWDPF move ligand.pdbqt
DOCKED: USER    NEWDPF about 0.710000 -0.190000 -0.071000
DOCKED: USER    NEWDPF tran0 24.437895 -18.421573 -1.022965
DOCKED: USER    NEWDPF quaternion0 -0.225805 0.720087 0.339364 0.561533
DOCKED: USER    NEWDPF axisangle0 -0.272891 0.870243 0.410130 111.676292
DOCKED: USER    NEWDPF quat0 -0.272891 0.870243 0.410130 111.676292
DOCKED: USER    NEWDPF dihe0 161.82 -4.43 -150.73 -91.20 -6.30 
DOCKED: USER  keepresnum = 1 
DOCKED: USER  
DOCKED: REMARK  Name = 
DOCKED: REMARK  5 active torsions:
DOCKED: REMARK  status: ('A' for Active; 'I' for Inactive)
DOCKED: REMARK    1  A    between atoms: O_1  and  N_2
DOCKED: REMARK    2  A    between atoms: C_3  and  C_4
DOCKED: REMARK    3  A    between atoms: C_4  and  C_5
DOCKED: REMARK    4  A    between atoms: C_5  and  C_6
DOCKED: REMARK    5  A    between atoms: C_6  and  C_7
DOCKED: REMARK                            x       y       z     vdW  Elec       q    Type
DOCKED: REMARK                         _______ _______ _______ _____ _____    ______ ____
DOCKED: USER                              x       y       z     vdW  Elec       q    Type
DOCKED: USER                           _______ _______ _______ _____ _____    ______ ____
DOCKED: ROOT
DOCKED: ATOM      1  C   UNL     1      23.850 -18.192  -0.997 -0.80 -0.00    +0.000 C 
DOCKED: ENDROOT
DOCKED: BRANCH   1   2
DOCKED: ATOM      2  C   UNL     1      22.712 -18.544  -0.035 -0.78 -0.00    +0.000 C 
DOCKED: BRANCH   2   4
DOCKED: ATOM      3  N   UNL     1      21.044 -19.714  -1.553 -0.72 -0.00    +0.000 N 
DOCKED: ATOM      4  C   UNL     1      21.402 -18.577  -0.763 -0.85 -0.00    +0.000 C 
DOCKED: ATOM      5  O   UNL     1      20.632 -17.582  -0.708 -2.15 +0.00    +0.000 OA
DOCKED: ATOM      6  H   UNL     1      21.652 -20.486  -1.601 -0.33 -0.00    +0.000 HD
DOCKED: BRANCH   3   7
DOCKED: ATOM      7  O   UNL     1      19.875 -19.738  -2.236 -1.86 -0.00    +0.000 OA
DOCKED: ATOM      8  H   UNL     1      19.275 -19.066  -1.874 -0.46 -0.00    +0.000 HD
DOCKED: ENDBRANCH   3   7
DOCKED: ENDBRANCH   2   4
DOCKED: ENDBRANCH   1   2
DOCKED: BRANCH   1   9
DOCKED: ATOM      9  C   UNL     1      24.048 -16.674  -1.081 -0.56 -0.00    +0.000 C 
DOCKED: BRANCH   9  10
DOCKED: ATOM     10  C   UNL     1      25.264 -16.345  -1.906 -0.52 -0.00    +0.000 A 
DOCKED: ATOM     11  C   UNL     1      26.536 -16.775  -1.497 -0.44 -0.00    +0.000 A 
DOCKED: ATOM     12  C   UNL     1      27.668 -16.441  -2.247 -0.28 -0.00    +0.000 A 
DOCKED: ATOM     13  C   UNL     1      27.539 -15.668  -3.403 -0.29 -0.00    +0.000 A 
DOCKED: ATOM     14  C   UNL     1      26.277 -15.224  -3.810 -0.49 -0.00    +0.000 A 
DOCKED: ATOM     15  C   UNL     1      25.143 -15.555  -3.063 -0.35 -0.00    +0.000 A 
DOCKED: ENDBRANCH   9  10
DOCKED: ENDBRANCH   1   9
DOCKED: TORSDOF 5
DOCKED: TER
DOCKED: ENDMDL
________________________________________________________________________________


	BEGINNING GENETIC ALGORITHM DOCKING 48 of 100
Run: 48 Seed: 828908580 796252128 [ Run 48 of 100 GA/GALS ]
Beginning LAMARCKIAN GENETIC ALGORITHM (LGA), with a maximum of 2500000 energy evaluations.

Final-Value: -11.670


	FINAL GENETIC ALGORITHM DOCKED STATE
	_______________________________________________


Detailed state:  trans 23.250 -16.700 -1.412 quatxyzw 0.151504 -0.322642 0.918554 0.170899 center 0.710 -0.190 -0.071 ntor 5 179.0926 37.7405 -22.6206 51.9876 1.8628
State:	 23.250 -16.700  -1.412   0.154 -0.327  0.932 160.320    179.09   37.74  -22.62   51.99    1.86

DOCKED: MODEL       48
DOCKED: USER    Run = 48
DOCKED: USER    DPF = ligand_dock.biased.dpf
DOCKED: USER  
DOCKED: USER    Estimated Free Energy of Binding    =   -9.31 kcal/mol  [=(1)+(2)+(3)-(4)]
DOCKED: USER    Estimated Inhibition Constant, Ki   =  148.74 nM (nanomolar)  [Temperature = 298.15 K]
DOCKED: USER    
DOCKED: USER    (1) Final Intermolecular Energy     =  -10.81 kcal/mol
DOCKED: USER        vdW + Hbond + desolv Energy     =  -10.81 kcal/mol
DOCKED: USER        Electrostatic Energy            =   +0.00 kcal/mol
DOCKED: USER    (2) Final Total Internal Energy     =   -0.86 kcal/mol
DOCKED: USER    (3) Torsional Free Energy           =   +1.49 kcal/mol
DOCKED: USER    (4) Unbound System's Energy  [=(2)] =   -0.86 kcal/mol
DOCKED: USER    
DOCKED: USER    
DOCKED: USER    NEWDPF move ligand.pdbqt
DOCKED: USER    NEWDPF about 0.710000 -0.190000 -0.071000
DOCKED: USER    NEWDPF tran0 23.249616 -16.699551 -1.412109
DOCKED: USER    NEWDPF quaternion0 0.151504 -0.322642 0.918554 0.170899
DOCKED: USER    NEWDPF axisangle0 0.153766 -0.327459 0.932269 160.319756
DOCKED: USER    NEWDPF quat0 0.153766 -0.327459 0.932269 160.319756
DOCKED: USER    NEWDPF dihe0 179.09 37.74 -22.62 51.99 1.86 
DOCKED: USER  keepresnum = 1 
DOCKED: USER  
DOCKED: REMARK  Name = 
DOCKED: REMARK  5 active torsions:
DOCKED: REMARK  status: ('A' for Active; 'I' for Inactive)
DOCKED: REMARK    1  A    between atoms: O_1  and  N_2
DOCKED: REMARK    2  A    between atoms: C_3  and  C_4
DOCKED: REMARK    3  A    between atoms: C_4  and  C_5
DOCKED: REMARK    4  A    between atoms: C_5  and  C_6
DOCKED: REMARK    5  A    between atoms: C_6  and  C_7
DOCKED: REMARK                            x       y       z     vdW  Elec       q    Type
DOCKED: REMARK                         _______ _______ _______ _____ _____    ______ ____
DOCKED: USER                              x       y       z     vdW  Elec       q    Type
DOCKED: USER                           _______ _______ _______ _____ _____    ______ ____
DOCKED: ROOT
DOCKED: ATOM      1  C   UNL     1      23.509 -17.140  -1.041 -0.69 -0.00    +0.000 C 
DOCKED: ENDROOT
DOCKED: BRANCH   1   2
DOCKED: ATOM      2  C   UNL     1      22.879 -18.407  -0.454 -0.83 -0.00    +0.000 C 
DOCKED: BRANCH   2   4
DOCKED: ATOM      3  N   UNL     1      21.058 -19.716  -1.648 -0.69 -0.00    +0.000 N 
DOCKED: ATOM      4  C   UNL     1      21.462 -18.553  -0.922 -0.82 -0.00    +0.000 C 
DOCKED: ATOM      5  O   UNL     1      20.635 -17.627  -0.707 -2.18 +0.00    +0.000 OA
DOCKED: ATOM      6  H   UNL     1      21.709 -20.433  -1.822 -0.42 -0.00    +0.000 HD
DOCKED: BRANCH   3   7
DOCKED: ATOM      7  O   UNL     1      19.787 -19.841  -2.098 -1.77 -0.00    +0.000 OA
DOCKED: ATOM      8  H   UNL     1      19.272 -19.062  -1.833 -0.47 -0.00    +0.000 HD
DOCKED: ENDBRANCH   3   7
DOCKED: ENDBRANCH   2   4
DOCKED: ENDBRANCH   1   2
DOCKED: BRANCH   1   9
DOCKED: ATOM      9  C   UNL     1      24.843 -17.456  -1.726 -0.67 -0.00    +0.000 C 
DOCKED: BRANCH   9  10
DOCKED: ATOM     10  C   UNL     1      25.473 -16.198  -2.260 -0.50 -0.00    +0.000 A 
DOCKED: ATOM     11  C   UNL     1      25.921 -15.200  -1.379 -0.37 -0.00    +0.000 A 
DOCKED: ATOM     12  C   UNL     1      26.477 -14.018  -1.877 -0.22 -0.00    +0.000 A 
DOCKED: ATOM     13  C   UNL     1      26.581 -13.820  -3.256 -0.29 -0.00    +0.000 A 
DOCKED: ATOM     14  C   UNL     1      26.126 -14.803  -4.140 -0.50 -0.00    +0.000 A 
DOCKED: ATOM     15  C   UNL     1      25.569 -15.986  -3.647 -0.39 -0.00    +0.000 A 
DOCKED: ENDBRANCH   9  10
DOCKED: ENDBRANCH   1   9
DOCKED: TORSDOF 5
DOCKED: TER
DOCKED: ENDMDL
________________________________________________________________________________


	BEGINNING GENETIC ALGORITHM DOCKING 49 of 100
Run: 49 Seed: 743020625 1968150299 [ Run 49 of 100 GA/GALS ]
Beginning LAMARCKIAN GENETIC ALGORITHM (LGA), with a maximum of 2500000 energy evaluations.

Final-Value: -11.654


	FINAL GENETIC ALGORITHM DOCKED STATE
	_______________________________________________


Detailed state:  trans 23.804 -18.367 -2.018 quatxyzw 0.007641 -0.317797 -0.907481 -0.274635 center 0.710 -0.190 -0.071 ntor 5 174.7282 -0.0673 -123.3880 -0.8597 50.3602
State:	 23.804 -18.367  -2.018   0.008 -0.331 -0.944 -148.120    174.73   -0.07 -123.39   -0.86   50.36

DOCKED: MODEL       49
DOCKED: USER    Run = 49
DOCKED: USER    DPF = ligand_dock.biased.dpf
DOCKED: USER  
DOCKED: USER    Estimated Free Energy of Binding    =   -9.30 kcal/mol  [=(1)+(2)+(3)-(4)]
DOCKED: USER    Estimated Inhibition Constant, Ki   =  153.03 nM (nanomolar)  [Temperature = 298.15 K]
DOCKED: USER    
DOCKED: USER    (1) Final Intermolecular Energy     =  -10.79 kcal/mol
DOCKED: USER        vdW + Hbond + desolv Energy     =  -10.79 kcal/mol
DOCKED: USER        Electrostatic Energy            =   +0.00 kcal/mol
DOCKED: USER    (2) Final Total Internal Energy     =   -0.86 kcal/mol
DOCKED: USER    (3) Torsional Free Energy           =   +1.49 kcal/mol
DOCKED: USER    (4) Unbound System's Energy  [=(2)] =   -0.86 kcal/mol
DOCKED: USER    
DOCKED: USER    
DOCKED: USER    NEWDPF move ligand.pdbqt
DOCKED: USER    NEWDPF about 0.710000 -0.190000 -0.071000
DOCKED: USER    NEWDPF tran0 23.804139 -18.366562 -2.017595
DOCKED: USER    NEWDPF quaternion0 0.007641 -0.317797 -0.907481 -0.274635
DOCKED: USER    NEWDPF axisangle0 0.007947 -0.330506 -0.943771 -148.119506
DOCKED: USER    NEWDPF quat0 0.007947 -0.330506 -0.943771 -148.119506
DOCKED: USER    NEWDPF dihe0 174.73 -0.07 -123.39 -0.86 50.36 
DOCKED: USER  keepresnum = 1 
DOCKED: USER  
DOCKED: REMARK  Name = 
DOCKED: REMARK  5 active torsions:
DOCKED: REMARK  status: ('A' for Active; 'I' for Inactive)
DOCKED: REMARK    1  A    between atoms: O_1  and  N_2
DOCKED: REMARK    2  A    between atoms: C_3  and  C_4
DOCKED: REMARK    3  A    between atoms: C_4  and  C_5
DOCKED: REMARK    4  A    between atoms: C_5  and  C_6
DOCKED: REMARK    5  A    between atoms: C_6  and  C_7
DOCKED: REMARK                            x       y       z     vdW  Elec       q    Type
DOCKED: REMARK                         _______ _______ _______ _____ _____    ______ ____
DOCKED: USER                              x       y       z     vdW  Elec       q    Type
DOCKED: USER                           _______ _______ _______ _____ _____    ______ ____
DOCKED: ROOT
DOCKED: ATOM      1  C   UNL     1      23.747 -18.110  -1.443 -0.76 -0.00    +0.000 C 
DOCKED: ENDROOT
DOCKED: BRANCH   1   2
DOCKED: ATOM      2  C   UNL     1      22.781 -18.472  -0.311 -0.83 -0.00    +0.000 C 
DOCKED: BRANCH   2   4
DOCKED: ATOM      3  N   UNL     1      20.877 -19.701  -1.460 -0.78 -0.00    +0.000 N 
DOCKED: ATOM      4  C   UNL     1      21.372 -18.521  -0.821 -0.83 -0.00    +0.000 C 
DOCKED: ATOM      5  O   UNL     1      20.635 -17.505  -0.718 -2.10 +0.00    +0.000 OA
DOCKED: ATOM      6  H   UNL     1      21.459 -20.490  -1.545 -0.31 -0.00    +0.000 HD
DOCKED: BRANCH   3   7
DOCKED: ATOM      7  O   UNL     1      19.614 -19.742  -1.947 -1.70 -0.00    +0.000 OA
DOCKED: ATOM      8  H   UNL     1      19.149 -18.924  -1.711 -0.54 -0.00    +0.000 HD
DOCKED: ENDBRANCH   3   7
DOCKED: ENDBRANCH   2   4
DOCKED: ENDBRANCH   1   2
DOCKED: BRANCH   1   9
DOCKED: ATOM      9  C   UNL     1      25.190 -18.037  -0.932 -0.68 -0.00    +0.000 C 
DOCKED: BRANCH   9  10
DOCKED: ATOM     10  C   UNL     1      25.837 -16.747  -1.360 -0.51 -0.00    +0.000 A 
DOCKED: ATOM     11  C   UNL     1      25.521 -16.173  -2.602 -0.49 -0.00    +0.000 A 
DOCKED: ATOM     12  C   UNL     1      26.147 -14.992  -3.012 -0.42 -0.00    +0.000 A 
DOCKED: ATOM     13  C   UNL     1      27.099 -14.382  -2.191 -0.23 -0.00    +0.000 A 
DOCKED: ATOM     14  C   UNL     1      27.430 -14.955  -0.959 -0.24 -0.00    +0.000 A 
DOCKED: ATOM     15  C   UNL     1      26.807 -16.136  -0.545 -0.38 -0.00    +0.000 A 
DOCKED: ENDBRANCH   9  10
DOCKED: ENDBRANCH   1   9
DOCKED: TORSDOF 5
DOCKED: TER
DOCKED: ENDMDL
________________________________________________________________________________


	BEGINNING GENETIC ALGORITHM DOCKING 50 of 100
Run: 50 Seed: 1226984489 1324978641 [ Run 50 of 100 GA/GALS ]
Beginning LAMARCKIAN GENETIC ALGORITHM (LGA), with a maximum of 2500000 energy evaluations.

Final-Value: -11.715


	FINAL GENETIC ALGORITHM DOCKED STATE
	_______________________________________________


Detailed state:  trans 23.580 -17.614 0.319 quatxyzw 0.243542 0.760617 -0.558167 -0.224943 center 0.710 -0.190 -0.071 ntor 5 -166.0260 125.1356 89.4597 -3.1473 -108.7334
State:	 23.580 -17.614   0.319   0.250  0.781 -0.573 -154.001   -166.03  125.14   89.46   -3.15 -108.73

DOCKED: MODEL       50
DOCKED: USER    Run = 50
DOCKED: USER    DPF = ligand_dock.biased.dpf
DOCKED: USER  
DOCKED: USER    Estimated Free Energy of Binding    =   -9.44 kcal/mol  [=(1)+(2)+(3)-(4)]
DOCKED: USER    Estimated Inhibition Constant, Ki   =  121.16 nM (nanomolar)  [Temperature = 298.15 K]
DOCKED: USER    
DOCKED: USER    (1) Final Intermolecular Energy     =  -10.93 kcal/mol
DOCKED: USER        vdW + Hbond + desolv Energy     =  -10.93 kcal/mol
DOCKED: USER        Electrostatic Energy            =   +0.00 kcal/mol
DOCKED: USER    (2) Final Total Internal Energy     =   -0.79 kcal/mol
DOCKED: USER    (3) Torsional Free Energy           =   +1.49 kcal/mol
DOCKED: USER    (4) Unbound System's Energy  [=(2)] =   -0.79 kcal/mol
DOCKED: USER    
DOCKED: USER    
DOCKED: USER    NEWDPF move ligand.pdbqt
DOCKED: USER    NEWDPF about 0.710000 -0.190000 -0.071000
DOCKED: USER    NEWDPF tran0 23.579674 -17.614405 0.318764
DOCKED: USER    NEWDPF quaternion0 0.243542 0.760617 -0.558167 -0.224943
DOCKED: USER    NEWDPF axisangle0 0.249948 0.780622 -0.572848 -154.000922
DOCKED: USER    NEWDPF quat0 0.249948 0.780622 -0.572848 -154.000922
DOCKED: USER    NEWDPF dihe0 -166.03 125.14 89.46 -3.15 -108.73 
DOCKED: USER  keepresnum = 1 
DOCKED: USER  
DOCKED: REMARK  Name = 
DOCKED: REMARK  5 active torsions:
DOCKED: REMARK  status: ('A' for Active; 'I' for Inactive)
DOCKED: REMARK    1  A    between atoms: O_1  and  N_2
DOCKED: REMARK    2  A    between atoms: C_3  and  C_4
DOCKED: REMARK    3  A    between atoms: C_4  and  C_5
DOCKED: REMARK    4  A    between atoms: C_5  and  C_6
DOCKED: REMARK    5  A    between atoms: C_6  and  C_7
DOCKED: REMARK                            x       y       z     vdW  Elec       q    Type
DOCKED: REMARK                         _______ _______ _______ _____ _____    ______ ____
DOCKED: USER                              x       y       z     vdW  Elec       q    Type
DOCKED: USER                           _______ _______ _______ _____ _____    ______ ____
DOCKED: ROOT
DOCKED: ATOM      1  C   UNL     1      23.701 -18.167   0.038 -0.71 -0.00    +0.000 C 
DOCKED: ENDROOT
DOCKED: BRANCH   1   2
DOCKED: ATOM      2  C   UNL     1      23.097 -18.761  -1.238 -0.80 -0.00    +0.000 C 
DOCKED: BRANCH   2   4
DOCKED: ATOM      3  N   UNL     1      20.840 -19.747  -1.861 -0.70 -0.00    +0.000 N 
DOCKED: ATOM      4  C   UNL     1      21.599 -18.761  -1.158 -0.75 -0.00    +0.000 C 
DOCKED: ATOM      5  O   UNL     1      21.009 -17.865  -0.498 -2.04 -0.00    +0.000 OA
DOCKED: ATOM      6  H   UNL     1      21.305 -20.440  -2.383 -0.52 -0.00    +0.000 HD
DOCKED: BRANCH   3   7
DOCKED: ATOM      7  O   UNL     1      19.487 -19.736  -1.816 -1.63 -0.00    +0.000 OA
DOCKED: ATOM      8  H   UNL     1      19.182 -18.887  -1.458 -0.52 -0.00    +0.000 HD
DOCKED: ENDBRANCH   3   7
DOCKED: ENDBRANCH   2   4
DOCKED: ENDBRANCH   1   2
DOCKED: BRANCH   1   9
DOCKED: ATOM      9  C   UNL     1      25.232 -18.230   0.002 -0.67 -0.00    +0.000 C 
DOCKED: BRANCH   9  10
DOCKED: ATOM     10  C   UNL     1      25.778 -17.244  -0.996 -0.54 -0.00    +0.000 A 
DOCKED: ATOM     11  C   UNL     1      27.164 -17.104  -1.168 -0.42 -0.00    +0.000 A 
DOCKED: ATOM     12  C   UNL     1      27.670 -16.164  -2.072 -0.29 -0.00    +0.000 A 
DOCKED: ATOM     13  C   UNL     1      26.797 -15.353  -2.802 -0.35 -0.00    +0.000 A 
DOCKED: ATOM     14  C   UNL     1      25.416 -15.478  -2.626 -0.46 -0.00    +0.000 A 
DOCKED: ATOM     15  C   UNL     1      24.906 -16.415  -1.723 -0.52 -0.00    +0.000 A 
DOCKED: ENDBRANCH   9  10
DOCKED: ENDBRANCH   1   9
DOCKED: TORSDOF 5
DOCKED: TER
DOCKED: ENDMDL
________________________________________________________________________________


	BEGINNING GENETIC ALGORITHM DOCKING 51 of 100
Run: 51 Seed: 1981180863 1464336088 [ Run 51 of 100 GA/GALS ]
Beginning LAMARCKIAN GENETIC ALGORITHM (LGA), with a maximum of 2500000 energy evaluations.

Final-Value: -11.052


	FINAL GENETIC ALGORITHM DOCKED STATE
	_______________________________________________


Detailed state:  trans 21.944 -17.873 0.318 quatxyzw 0.275309 -0.820298 0.416378 0.279187 center 0.710 -0.190 -0.071 ntor 5 -173.3041 -142.4160 -100.9675 40.2972 92.6234
State:	 21.944 -17.873   0.318   0.287 -0.854  0.434 147.577   -173.30 -142.42 -100.97   40.30   92.62

DOCKED: MODEL       51
DOCKED: USER    Run = 51
DOCKED: USER    DPF = ligand_dock.biased.dpf
DOCKED: USER  
DOCKED: USER    Estimated Free Energy of Binding    =   -8.66 kcal/mol  [=(1)+(2)+(3)-(4)]
DOCKED: USER    Estimated Inhibition Constant, Ki   =  451.84 nM (nanomolar)  [Temperature = 298.15 K]
DOCKED: USER    
DOCKED: USER    (1) Final Intermolecular Energy     =  -10.15 kcal/mol
DOCKED: USER        vdW + Hbond + desolv Energy     =  -10.15 kcal/mol
DOCKED: USER        Electrostatic Energy            =   +0.00 kcal/mol
DOCKED: USER    (2) Final Total Internal Energy     =   -0.90 kcal/mol
DOCKED: USER    (3) Torsional Free Energy           =   +1.49 kcal/mol
DOCKED: USER    (4) Unbound System's Energy  [=(2)] =   -0.90 kcal/mol
DOCKED: USER    
DOCKED: USER    
DOCKED: USER    NEWDPF move ligand.pdbqt
DOCKED: USER    NEWDPF about 0.710000 -0.190000 -0.071000
DOCKED: USER    NEWDPF tran0 21.943690 -17.872908 0.317527
DOCKED: USER    NEWDPF quaternion0 0.275309 -0.820298 0.416378 0.279187
DOCKED: USER    NEWDPF axisangle0 0.286710 -0.854266 0.433621 147.576617
DOCKED: USER    NEWDPF quat0 0.286710 -0.854266 0.433621 147.576617
DOCKED: USER    NEWDPF dihe0 -173.30 -142.42 -100.97 40.30 92.62 
DOCKED: USER  keepresnum = 1 
DOCKED: USER  
DOCKED: REMARK  Name = 
DOCKED: REMARK  5 active torsions:
DOCKED: REMARK  status: ('A' for Active; 'I' for Inactive)
DOCKED: REMARK    1  A    between atoms: O_1  and  N_2
DOCKED: REMARK    2  A    between atoms: C_3  and  C_4
DOCKED: REMARK    3  A    between atoms: C_4  and  C_5
DOCKED: REMARK    4  A    between atoms: C_5  and  C_6
DOCKED: REMARK    5  A    between atoms: C_6  and  C_7
DOCKED: REMARK                            x       y       z     vdW  Elec       q    Type
DOCKED: REMARK                         _______ _______ _______ _____ _____    ______ ____
DOCKED: USER                              x       y       z     vdW  Elec       q    Type
DOCKED: USER                           _______ _______ _______ _____ _____    ______ ____
DOCKED: ROOT
DOCKED: ATOM      1  C   UNL     1      22.328 -18.137  -0.109 -0.80 -0.00    +0.000 C 
DOCKED: ENDROOT
DOCKED: BRANCH   1   2
DOCKED: ATOM      2  C   UNL     1      22.021 -19.204  -1.164 -0.75 -0.00    +0.000 C 
DOCKED: BRANCH   2   4
DOCKED: ATOM      3  N   UNL     1      20.328 -20.415   0.294 -0.69 -0.00    +0.000 N 
DOCKED: ATOM      4  C   UNL     1      20.653 -19.778  -0.945 -0.82 -0.00    +0.000 C 
DOCKED: ATOM      5  O   UNL     1      19.801 -19.732  -1.871 -1.84 -0.00    +0.000 OA
DOCKED: ATOM      6  H   UNL     1      20.999 -20.456   1.012 -0.57 -0.00    +0.000 HD
DOCKED: BRANCH   3   7
DOCKED: ATOM      7  O   UNL     1      19.104 -20.960   0.487 -0.77 -0.00    +0.000 OA
DOCKED: ATOM      8  H   UNL     1      18.601 -20.930  -0.343 -0.29 -0.00    +0.000 HD
DOCKED: ENDBRANCH   3   7
DOCKED: ENDBRANCH   2   4
DOCKED: ENDBRANCH   1   2
DOCKED: BRANCH   1   9
DOCKED: ATOM      9  C   UNL     1      23.057 -16.941  -0.732 -0.60 -0.00    +0.000 C 
DOCKED: BRANCH   9  10
DOCKED: ATOM     10  C   UNL     1      24.544 -17.175  -0.741 -0.60 -0.00    +0.000 A 
DOCKED: ATOM     11  C   UNL     1      25.100 -18.231  -0.001 -0.59 -0.00    +0.000 A 
DOCKED: ATOM     12  C   UNL     1      26.485 -18.427   0.015 -0.51 -0.00    +0.000 A 
DOCKED: ATOM     13  C   UNL     1      27.323 -17.565  -0.697 -0.43 -0.00    +0.000 A 
DOCKED: ATOM     14  C   UNL     1      26.778 -16.503  -1.425 -0.40 -0.00    +0.000 A 
DOCKED: ATOM     15  C   UNL     1      25.394 -16.303  -1.444 -0.51 -0.00    +0.000 A 
DOCKED: ENDBRANCH   9  10
DOCKED: ENDBRANCH   1   9
DOCKED: TORSDOF 5
DOCKED: TER
DOCKED: ENDMDL
________________________________________________________________________________


	BEGINNING GENETIC ALGORITHM DOCKING 52 of 100
Run: 52 Seed: 589725716 122607134 [ Run 52 of 100 GA/GALS ]
Beginning LAMARCKIAN GENETIC ALGORITHM (LGA), with a maximum of 2500000 energy evaluations.

Final-Value: -11.622


	FINAL GENETIC ALGORITHM DOCKED STATE
	_______________________________________________


Detailed state:  trans 23.233 -16.683 -1.167 quatxyzw 0.175152 -0.385191 0.897344 0.125393 center 0.710 -0.190 -0.071 ntor 5 172.2823 45.8195 158.3115 59.2026 6.0971
State:	 23.233 -16.683  -1.167   0.177 -0.388  0.904 165.593    172.28   45.82  158.31   59.20    6.10

DOCKED: MODEL       52
DOCKED: USER    Run = 52
DOCKED: USER    DPF = ligand_dock.biased.dpf
DOCKED: USER  
DOCKED: USER    Estimated Free Energy of Binding    =   -9.28 kcal/mol  [=(1)+(2)+(3)-(4)]
DOCKED: USER    Estimated Inhibition Constant, Ki   =  156.45 nM (nanomolar)  [Temperature = 298.15 K]
DOCKED: USER    
DOCKED: USER    (1) Final Intermolecular Energy     =  -10.78 kcal/mol
DOCKED: USER        vdW + Hbond + desolv Energy     =  -10.78 kcal/mol
DOCKED: USER        Electrostatic Energy            =   +0.00 kcal/mol
DOCKED: USER    (2) Final Total Internal Energy     =   -0.85 kcal/mol
DOCKED: USER    (3) Torsional Free Energy           =   +1.49 kcal/mol
DOCKED: USER    (4) Unbound System's Energy  [=(2)] =   -0.85 kcal/mol
DOCKED: USER    
DOCKED: USER    
DOCKED: USER    NEWDPF move ligand.pdbqt
DOCKED: USER    NEWDPF about 0.710000 -0.190000 -0.071000
DOCKED: USER    NEWDPF tran0 23.232796 -16.683176 -1.166731
DOCKED: USER    NEWDPF quaternion0 0.175152 -0.385191 0.897344 0.125393
DOCKED: USER    NEWDPF axisangle0 0.176545 -0.388255 0.904483 165.593148
DOCKED: USER    NEWDPF quat0 0.176545 -0.388255 0.904483 165.593148
DOCKED: USER    NEWDPF dihe0 172.28 45.82 158.31 59.20 6.10 
DOCKED: USER  keepresnum = 1 
DOCKED: USER  
DOCKED: REMARK  Name = 
DOCKED: REMARK  5 active torsions:
DOCKED: REMARK  status: ('A' for Active; 'I' for Inactive)
DOCKED: REMARK    1  A    between atoms: O_1  and  N_2
DOCKED: REMARK    2  A    between atoms: C_3  and  C_4
DOCKED: REMARK    3  A    between atoms: C_4  and  C_5
DOCKED: REMARK    4  A    between atoms: C_5  and  C_6
DOCKED: REMARK    5  A    between atoms: C_6  and  C_7
DOCKED: REMARK                            x       y       z     vdW  Elec       q    Type
DOCKED: REMARK                         _______ _______ _______ _____ _____    ______ ____
DOCKED: USER                              x       y       z     vdW  Elec       q    Type
DOCKED: USER                           _______ _______ _______ _____ _____    ______ ____
DOCKED: ROOT
DOCKED: ATOM      1  C   UNL     1      23.488 -17.180  -0.872 -0.70 -0.00    +0.000 C 
DOCKED: ENDROOT
DOCKED: BRANCH   1   2
DOCKED: ATOM      2  C   UNL     1      22.812 -18.454  -0.355 -0.83 -0.00    +0.000 C 
DOCKED: BRANCH   2   4
DOCKED: ATOM      3  N   UNL     1      20.905 -19.707  -1.472 -0.77 -0.00    +0.000 N 
DOCKED: ATOM      4  C   UNL     1      21.392 -18.524  -0.834 -0.83 -0.00    +0.000 C 
DOCKED: ATOM      5  O   UNL     1      20.640 -17.522  -0.707 -2.11 +0.00    +0.000 OA
DOCKED: ATOM      6  H   UNL     1      21.499 -20.485  -1.577 -0.32 -0.00    +0.000 HD
DOCKED: BRANCH   3   7
DOCKED: ATOM      7  O   UNL     1      19.633 -19.767  -1.932 -1.70 -0.00    +0.000 OA
DOCKED: ATOM      8  H   UNL     1      19.147 -18.977  -1.646 -0.55 -0.00    +0.000 HD
DOCKED: ENDBRANCH   3   7
DOCKED: ENDBRANCH   2   4
DOCKED: ENDBRANCH   1   2
DOCKED: BRANCH   1   9
DOCKED: ATOM      9  C   UNL     1      24.718 -17.517  -1.722 -0.67 -0.00    +0.000 C 
DOCKED: BRANCH   9  10
DOCKED: ATOM     10  C   UNL     1      25.458 -16.262  -2.100 -0.50 -0.00    +0.000 A 
DOCKED: ATOM     11  C   UNL     1      25.508 -15.845  -3.440 -0.46 -0.00    +0.000 A 
DOCKED: ATOM     12  C   UNL     1      26.222 -14.696  -3.795 -0.45 -0.00    +0.000 A 
DOCKED: ATOM     13  C   UNL     1      26.900 -13.963  -2.817 -0.24 -0.00    +0.000 A 
DOCKED: ATOM     14  C   UNL     1      26.866 -14.379  -1.483 -0.25 -0.00    +0.000 A 
DOCKED: ATOM     15  C   UNL     1      26.153 -15.527  -1.124 -0.38 -0.00    +0.000 A 
DOCKED: ENDBRANCH   9  10
DOCKED: ENDBRANCH   1   9
DOCKED: TORSDOF 5
DOCKED: TER
DOCKED: ENDMDL
________________________________________________________________________________


	BEGINNING GENETIC ALGORITHM DOCKING 53 of 100
Run: 53 Seed: 2069200550 1557606678 [ Run 53 of 100 GA/GALS ]
Beginning LAMARCKIAN GENETIC ALGORITHM (LGA), with a maximum of 2500000 energy evaluations.

Final-Value: -11.269


	FINAL GENETIC ALGORITHM DOCKED STATE
	_______________________________________________


Detailed state:  trans 23.214 -19.605 0.195 quatxyzw 0.304193 -0.927627 -0.139320 0.166026 center 0.710 -0.190 -0.071 ntor 5 -160.0102 169.7140 7.4935 99.9350 96.3174
State:	 23.214 -19.605   0.195   0.308 -0.941 -0.141 160.886   -160.01  169.71    7.49   99.94   96.32

DOCKED: MODEL       53
DOCKED: USER    Run = 53
DOCKED: USER    DPF = ligand_dock.biased.dpf
DOCKED: USER  
DOCKED: USER    Estimated Free Energy of Binding    =   -8.84 kcal/mol  [=(1)+(2)+(3)-(4)]
DOCKED: USER    Estimated Inhibition Constant, Ki   =  333.78 nM (nanomolar)  [Temperature = 298.15 K]
DOCKED: USER    
DOCKED: USER    (1) Final Intermolecular Energy     =  -10.33 kcal/mol
DOCKED: USER        vdW + Hbond + desolv Energy     =  -10.33 kcal/mol
DOCKED: USER        Electrostatic Energy            =   +0.00 kcal/mol
DOCKED: USER    (2) Final Total Internal Energy     =   -0.94 kcal/mol
DOCKED: USER    (3) Torsional Free Energy           =   +1.49 kcal/mol
DOCKED: USER    (4) Unbound System's Energy  [=(2)] =   -0.94 kcal/mol
DOCKED: USER    
DOCKED: USER    
DOCKED: USER    NEWDPF move ligand.pdbqt
DOCKED: USER    NEWDPF about 0.710000 -0.190000 -0.071000
DOCKED: USER    NEWDPF tran0 23.213574 -19.605460 0.195422
DOCKED: USER    NEWDPF quaternion0 0.304193 -0.927627 -0.139320 0.166026
DOCKED: USER    NEWDPF axisangle0 0.308474 -0.940682 -0.141281 160.886367
DOCKED: USER    NEWDPF quat0 0.308474 -0.940682 -0.141281 160.886367
DOCKED: USER    NEWDPF dihe0 -160.01 169.71 7.49 99.94 96.32 
DOCKED: USER  keepresnum = 1 
DOCKED: USER  
DOCKED: REMARK  Name = 
DOCKED: REMARK  5 active torsions:
DOCKED: REMARK  status: ('A' for Active; 'I' for Inactive)
DOCKED: REMARK    1  A    between atoms: O_1  and  N_2
DOCKED: REMARK    2  A    between atoms: C_3  and  C_4
DOCKED: REMARK    3  A    between atoms: C_4  and  C_5
DOCKED: REMARK    4  A    between atoms: C_5  and  C_6
DOCKED: REMARK    5  A    between atoms: C_6  and  C_7
DOCKED: REMARK                            x       y       z     vdW  Elec       q    Type
DOCKED: REMARK                         _______ _______ _______ _____ _____    ______ ____
DOCKED: USER                              x       y       z     vdW  Elec       q    Type
DOCKED: USER                           _______ _______ _______ _____ _____    ______ ____
DOCKED: ROOT
DOCKED: ATOM      1  C   UNL     1      23.256 -19.282  -0.345 -0.46 -0.00    +0.000 C 
DOCKED: ENDROOT
DOCKED: BRANCH   1   2
DOCKED: ATOM      2  C   UNL     1      22.300 -19.257  -1.541 -0.55 -0.00    +0.000 C 
DOCKED: BRANCH   2   4
DOCKED: ATOM      3  N   UNL     1      19.938 -20.080  -1.090 -0.73 -0.00    +0.000 N 
DOCKED: ATOM      4  C   UNL     1      20.893 -19.016  -1.081 -0.87 -0.00    +0.000 C 
DOCKED: ATOM      5  O   UNL     1      20.543 -17.860  -0.721 -2.31 -0.00    +0.000 OA
DOCKED: ATOM      6  H   UNL     1      20.214 -20.980  -1.380 -0.55 -0.00    +0.000 HD
DOCKED: BRANCH   3   7
DOCKED: ATOM      7  O   UNL     1      18.659 -19.862  -0.703 -0.86 -0.00    +0.000 OA
DOCKED: ATOM      8  H   UNL     1      18.464 -18.913  -0.753 -0.57 -0.00    +0.000 HD
DOCKED: ENDBRANCH   3   7
DOCKED: ENDBRANCH   2   4
DOCKED: ENDBRANCH   1   2
DOCKED: BRANCH   1   9
DOCKED: ATOM      9  C   UNL     1      23.605 -17.860   0.108 -0.56 -0.00    +0.000 C 
DOCKED: BRANCH   9  10
DOCKED: ATOM     10  C   UNL     1      24.730 -17.301  -0.722 -0.61 -0.00    +0.000 A 
DOCKED: ATOM     11  C   UNL     1      24.455 -16.479  -1.828 -0.45 -0.00    +0.000 A 
DOCKED: ATOM     12  C   UNL     1      25.499 -15.988  -2.617 -0.49 -0.00    +0.000 A 
DOCKED: ATOM     13  C   UNL     1      26.822 -16.320  -2.315 -0.35 -0.00    +0.000 A 
DOCKED: ATOM     14  C   UNL     1      27.103 -17.149  -1.224 -0.41 -0.00    +0.000 A 
DOCKED: ATOM     15  C   UNL     1      26.063 -17.643  -0.433 -0.56 -0.00    +0.000 A 
DOCKED: ENDBRANCH   9  10
DOCKED: ENDBRANCH   1   9
DOCKED: TORSDOF 5
DOCKED: TER
DOCKED: ENDMDL
________________________________________________________________________________


	BEGINNING GENETIC ALGORITHM DOCKING 54 of 100
Run: 54 Seed: 467158603 2017394549 [ Run 54 of 100 GA/GALS ]
Beginning LAMARCKIAN GENETIC ALGORITHM (LGA), with a maximum of 2500000 energy evaluations.

Final-Value: -11.193


	FINAL GENETIC ALGORITHM DOCKED STATE
	_______________________________________________


Detailed state:  trans 23.679 -18.394 -1.899 quatxyzw 0.245964 -0.214334 -0.841283 -0.431051 center 0.710 -0.190 -0.071 ntor 5 -170.2134 63.3493 -66.4265 -54.8882 -4.2512
State:	 23.679 -18.394  -1.899   0.273 -0.238 -0.932 -128.931   -170.21   63.35  -66.43  -54.89   -4.25

DOCKED: MODEL       54
DOCKED: USER    Run = 54
DOCKED: USER    DPF = ligand_dock.biased.dpf
DOCKED: USER  
DOCKED: USER    Estimated Free Energy of Binding    =   -8.85 kcal/mol  [=(1)+(2)+(3)-(4)]
DOCKED: USER    Estimated Inhibition Constant, Ki   =  325.56 nM (nanomolar)  [Temperature = 298.15 K]
DOCKED: USER    
DOCKED: USER    (1) Final Intermolecular Energy     =  -10.34 kcal/mol
DOCKED: USER        vdW + Hbond + desolv Energy     =  -10.34 kcal/mol
DOCKED: USER        Electrostatic Energy            =   +0.00 kcal/mol
DOCKED: USER    (2) Final Total Internal Energy     =   -0.85 kcal/mol
DOCKED: USER    (3) Torsional Free Energy           =   +1.49 kcal/mol
DOCKED: USER    (4) Unbound System's Energy  [=(2)] =   -0.85 kcal/mol
DOCKED: USER    
DOCKED: USER    
DOCKED: USER    NEWDPF move ligand.pdbqt
DOCKED: USER    NEWDPF about 0.710000 -0.190000 -0.071000
DOCKED: USER    NEWDPF tran0 23.678840 -18.393955 -1.898741
DOCKED: USER    NEWDPF quaternion0 0.245964 -0.214334 -0.841283 -0.431051
DOCKED: USER    NEWDPF axisangle0 0.272589 -0.237535 -0.932348 -128.931412
DOCKED: USER    NEWDPF quat0 0.272589 -0.237535 -0.932348 -128.931412
DOCKED: USER    NEWDPF dihe0 -170.21 63.35 -66.43 -54.89 -4.25 
DOCKED: USER  keepresnum = 1 
DOCKED: USER  
DOCKED: REMARK  Name = 
DOCKED: REMARK  5 active torsions:
DOCKED: REMARK  status: ('A' for Active; 'I' for Inactive)
DOCKED: REMARK    1  A    between atoms: O_1  and  N_2
DOCKED: REMARK    2  A    between atoms: C_3  and  C_4
DOCKED: REMARK    3  A    between atoms: C_4  and  C_5
DOCKED: REMARK    4  A    between atoms: C_5  and  C_6
DOCKED: REMARK    5  A    between atoms: C_6  and  C_7
DOCKED: REMARK                            x       y       z     vdW  Elec       q    Type
DOCKED: REMARK                         _______ _______ _______ _____ _____    ______ ____
DOCKED: USER                              x       y       z     vdW  Elec       q    Type
DOCKED: USER                           _______ _______ _______ _____ _____    ______ ____
DOCKED: ROOT
DOCKED: ATOM      1  C   UNL     1      23.391 -18.388  -1.336 -0.78 -0.00    +0.000 C 
DOCKED: ENDROOT
DOCKED: BRANCH   1   2
DOCKED: ATOM      2  C   UNL     1      22.522 -19.463  -0.679 -0.64 -0.00    +0.000 C 
DOCKED: BRANCH   2   4
DOCKED: ATOM      3  N   UNL     1      20.065 -20.081  -0.877 -0.76 -0.00    +0.000 N 
DOCKED: ATOM      4  C   UNL     1      21.074 -19.077  -0.741 -0.88 -0.00    +0.000 C 
DOCKED: ATOM      5  O   UNL     1      20.751 -17.860  -0.712 -2.29 -0.00    +0.000 OA
DOCKED: ATOM      6  H   UNL     1      20.323 -21.031  -0.907 -0.37 -0.00    +0.000 HD
DOCKED: BRANCH   3   7
DOCKED: ATOM      7  O   UNL     1      18.758 -19.738  -0.962 -0.77 -0.00    +0.000 OA
DOCKED: ATOM      8  H   UNL     1      18.683 -18.776  -1.071 -0.62 -0.00    +0.000 HD
DOCKED: ENDBRANCH   3   7
DOCKED: ENDBRANCH   2   4
DOCKED: ENDBRANCH   1   2
DOCKED: BRANCH   1   9
DOCKED: ATOM      9  C   UNL     1      24.479 -17.897  -0.375 -0.73 -0.00    +0.000 C 
DOCKED: BRANCH   9  10
DOCKED: ATOM     10  C   UNL     1      25.391 -16.918  -1.065 -0.55 -0.00    +0.000 A 
DOCKED: ATOM     11  C   UNL     1      24.952 -16.219  -2.202 -0.47 -0.00    +0.000 A 
DOCKED: ATOM     12  C   UNL     1      25.811 -15.334  -2.860 -0.46 -0.00    +0.000 A 
DOCKED: ATOM     13  C   UNL     1      27.115 -15.147  -2.395 -0.28 -0.00    +0.000 A 
DOCKED: ATOM     14  C   UNL     1      27.564 -15.849  -1.272 -0.29 -0.00    +0.000 A 
DOCKED: ATOM     15  C   UNL     1      26.709 -16.735  -0.611 -0.44 -0.00    +0.000 A 
DOCKED: ENDBRANCH   9  10
DOCKED: ENDBRANCH   1   9
DOCKED: TORSDOF 5
DOCKED: TER
DOCKED: ENDMDL
________________________________________________________________________________


	BEGINNING GENETIC ALGORITHM DOCKING 55 of 100
Run: 55 Seed: 1576961243 429897379 [ Run 55 of 100 GA/GALS ]
Beginning LAMARCKIAN GENETIC ALGORITHM (LGA), with a maximum of 2500000 energy evaluations.

Final-Value: -11.233


	FINAL GENETIC ALGORITHM DOCKED STATE
	_______________________________________________


Detailed state:  trans 23.318 -16.777 -0.456 quatxyzw 0.314103 -0.698025 0.626707 0.146078 center 0.710 -0.190 -0.071 ntor 5 -165.7759 69.2074 105.6533 63.9017 75.2139
State:	 23.318 -16.777  -0.456   0.318 -0.706  0.634 163.201   -165.78   69.21  105.65   63.90   75.21

DOCKED: MODEL       55
DOCKED: USER    Run = 55
DOCKED: USER    DPF = ligand_dock.biased.dpf
DOCKED: USER  
DOCKED: USER    Estimated Free Energy of Binding    =   -8.89 kcal/mol  [=(1)+(2)+(3)-(4)]
DOCKED: USER    Estimated Inhibition Constant, Ki   =  303.33 nM (nanomolar)  [Temperature = 298.15 K]
DOCKED: USER    
DOCKED: USER    (1) Final Intermolecular Energy     =  -10.38 kcal/mol
DOCKED: USER        vdW + Hbond + desolv Energy     =  -10.38 kcal/mol
DOCKED: USER        Electrostatic Energy            =   +0.00 kcal/mol
DOCKED: USER    (2) Final Total Internal Energy     =   -0.85 kcal/mol
DOCKED: USER    (3) Torsional Free Energy           =   +1.49 kcal/mol
DOCKED: USER    (4) Unbound System's Energy  [=(2)] =   -0.85 kcal/mol
DOCKED: USER    
DOCKED: USER    
DOCKED: USER    NEWDPF move ligand.pdbqt
DOCKED: USER    NEWDPF about 0.710000 -0.190000 -0.071000
DOCKED: USER    NEWDPF tran0 23.318469 -16.777159 -0.456437
DOCKED: USER    NEWDPF quaternion0 0.314103 -0.698025 0.626707 0.146078
DOCKED: USER    NEWDPF axisangle0 0.317509 -0.705594 0.633502 163.200599
DOCKED: USER    NEWDPF quat0 0.317509 -0.705594 0.633502 163.200599
DOCKED: USER    NEWDPF dihe0 -165.78 69.21 105.65 63.90 75.21 
DOCKED: USER  keepresnum = 1 
DOCKED: USER  
DOCKED: REMARK  Name = 
DOCKED: REMARK  5 active torsions:
DOCKED: REMARK  status: ('A' for Active; 'I' for Inactive)
DOCKED: REMARK    1  A    between atoms: O_1  and  N_2
DOCKED: REMARK    2  A    between atoms: C_3  and  C_4
DOCKED: REMARK    3  A    between atoms: C_4  and  C_5
DOCKED: REMARK    4  A    between atoms: C_5  and  C_6
DOCKED: REMARK    5  A    between atoms: C_6  and  C_7
DOCKED: REMARK                            x       y       z     vdW  Elec       q    Type
DOCKED: REMARK                         _______ _______ _______ _____ _____    ______ ____
DOCKED: USER                              x       y       z     vdW  Elec       q    Type
DOCKED: USER                           _______ _______ _______ _____ _____    ______ ____
DOCKED: ROOT
DOCKED: ATOM      1  C   UNL     1      23.642 -17.265  -0.695 -0.72 -0.00    +0.000 C 
DOCKED: ENDROOT
DOCKED: BRANCH   1   2
DOCKED: ATOM      2  C   UNL     1      23.161 -18.681  -1.023 -0.82 -0.00    +0.000 C 
DOCKED: BRANCH   2   4
DOCKED: ATOM      3  N   UNL     1      20.978 -19.704  -1.825 -0.69 -0.00    +0.000 N 
DOCKED: ATOM      4  C   UNL     1      21.662 -18.739  -1.022 -0.83 -0.00    +0.000 C 
DOCKED: ATOM      5  O   UNL     1      21.006 -17.907  -0.341 -1.94 -0.00    +0.000 OA
DOCKED: ATOM      6  H   UNL     1      21.494 -20.346  -2.362 -0.55 -0.00    +0.000 HD
DOCKED: BRANCH   3   7
DOCKED: ATOM      7  O   UNL     1      19.624 -19.742  -1.851 -1.73 -0.00    +0.000 OA
DOCKED: ATOM      8  H   UNL     1      19.270 -18.927  -1.462 -0.45 -0.00    +0.000 HD
DOCKED: ENDBRANCH   3   7
DOCKED: ENDBRANCH   2   4
DOCKED: ENDBRANCH   1   2
DOCKED: BRANCH   1   9
DOCKED: ATOM      9  C   UNL     1      24.399 -16.654  -1.880 -0.51 -0.00    +0.000 C 
DOCKED: BRANCH   9  10
DOCKED: ATOM     10  C   UNL     1      25.881 -16.650  -1.614 -0.49 -0.00    +0.000 A 
DOCKED: ATOM     11  C   UNL     1      26.743 -15.877  -2.409 -0.36 -0.00    +0.000 A 
DOCKED: ATOM     12  C   UNL     1      28.122 -15.900  -2.181 -0.24 -0.00    +0.000 A 
DOCKED: ATOM     13  C   UNL     1      28.651 -16.700  -1.166 -0.28 -0.00    +0.000 A 
DOCKED: ATOM     14  C   UNL     1      27.801 -17.483  -0.378 -0.26 -0.00    +0.000 A 
DOCKED: ATOM     15  C   UNL     1      26.422 -17.464  -0.603 -0.52 -0.00    +0.000 A 
DOCKED: ENDBRANCH   9  10
DOCKED: ENDBRANCH   1   9
DOCKED: TORSDOF 5
DOCKED: TER
DOCKED: ENDMDL
________________________________________________________________________________


	BEGINNING GENETIC ALGORITHM DOCKING 56 of 100
Run: 56 Seed: 473244591 467806243 [ Run 56 of 100 GA/GALS ]
Beginning LAMARCKIAN GENETIC ALGORITHM (LGA), with a maximum of 2500000 energy evaluations.

Final-Value: -10.997


	FINAL GENETIC ALGORITHM DOCKED STATE
	_______________________________________________


Detailed state:  trans 23.399 -17.790 0.059 quatxyzw 0.275522 -0.818287 0.502770 -0.041412 center 0.710 -0.190 -0.071 ntor 5 179.0347 157.0053 130.7980 66.2432 23.5459
State:	 23.399 -17.790   0.059   0.276 -0.819  0.503 -175.253    179.03  157.01  130.80   66.24   23.55

DOCKED: MODEL       56
DOCKED: USER    Run = 56
DOCKED: USER    DPF = ligand_dock.biased.dpf
DOCKED: USER  
DOCKED: USER    Estimated Free Energy of Binding    =   -8.65 kcal/mol  [=(1)+(2)+(3)-(4)]
DOCKED: USER    Estimated Inhibition Constant, Ki   =  456.31 nM (nanomolar)  [Temperature = 298.15 K]
DOCKED: USER    
DOCKED: USER    (1) Final Intermolecular Energy     =  -10.14 kcal/mol
DOCKED: USER        vdW + Hbond + desolv Energy     =  -10.14 kcal/mol
DOCKED: USER        Electrostatic Energy            =   +0.00 kcal/mol
DOCKED: USER    (2) Final Total Internal Energy     =   -0.86 kcal/mol
DOCKED: USER    (3) Torsional Free Energy           =   +1.49 kcal/mol
DOCKED: USER    (4) Unbound System's Energy  [=(2)] =   -0.86 kcal/mol
DOCKED: USER    
DOCKED: USER    
DOCKED: USER    NEWDPF move ligand.pdbqt
DOCKED: USER    NEWDPF about 0.710000 -0.190000 -0.071000
DOCKED: USER    NEWDPF tran0 23.399115 -17.790420 0.058748
DOCKED: USER    NEWDPF quaternion0 0.275522 -0.818287 0.502770 -0.041412
DOCKED: USER    NEWDPF axisangle0 0.275759 -0.818990 0.503202 -175.253214
DOCKED: USER    NEWDPF quat0 0.275759 -0.818990 0.503202 -175.253214
DOCKED: USER    NEWDPF dihe0 179.03 157.01 130.80 66.24 23.55 
DOCKED: USER  keepresnum = 1 
DOCKED: USER  
DOCKED: REMARK  Name = 
DOCKED: REMARK  5 active torsions:
DOCKED: REMARK  status: ('A' for Active; 'I' for Inactive)
DOCKED: REMARK    1  A    between atoms: O_1  and  N_2
DOCKED: REMARK    2  A    between atoms: C_3  and  C_4
DOCKED: REMARK    3  A    between atoms: C_4  and  C_5
DOCKED: REMARK    4  A    between atoms: C_5  and  C_6
DOCKED: REMARK    5  A    between atoms: C_6  and  C_7
DOCKED: REMARK                            x       y       z     vdW  Elec       q    Type
DOCKED: REMARK                         _______ _______ _______ _____ _____    ______ ____
DOCKED: USER                              x       y       z     vdW  Elec       q    Type
DOCKED: USER                           _______ _______ _______ _____ _____    ______ ____
DOCKED: ROOT
DOCKED: ATOM      1  C   UNL     1      23.449 -18.268  -0.352 -0.81 -0.00    +0.000 C 
DOCKED: ENDROOT
DOCKED: BRANCH   1   2
DOCKED: ATOM      2  C   UNL     1      22.428 -19.353  -0.706 -0.76 -0.00    +0.000 C 
DOCKED: BRANCH   2   4
DOCKED: ATOM      3  N   UNL     1      20.358 -19.768   0.707 -0.69 -0.00    +0.000 N 
DOCKED: ATOM      4  C   UNL     1      21.059 -18.958  -0.239 -0.82 -0.00    +0.000 C 
DOCKED: ATOM      5  O   UNL     1      20.512 -17.927  -0.712 -2.29 -0.00    +0.000 OA
DOCKED: ATOM      6  H   UNL     1      20.786 -20.578   1.068 -0.50 -0.00    +0.000 HD
DOCKED: BRANCH   3   7
DOCKED: ATOM      7  O   UNL     1      19.111 -19.432   1.112 -0.74 -0.00    +0.000 OA
DOCKED: ATOM      8  H   UNL     1      18.841 -18.606   0.678 -0.37 -0.00    +0.000 HD
DOCKED: ENDBRANCH   3   7
DOCKED: ENDBRANCH   2   4
DOCKED: ENDBRANCH   1   2
DOCKED: BRANCH   1   9
DOCKED: ATOM      9  C   UNL     1      24.009 -17.606  -1.615 -0.68 -0.00    +0.000 C 
DOCKED: BRANCH   9  10
DOCKED: ATOM     10  C   UNL     1      25.356 -16.994  -1.338 -0.56 -0.00    +0.000 A 
DOCKED: ATOM     11  C   UNL     1      25.700 -15.753  -1.899 -0.45 -0.00    +0.000 A 
DOCKED: ATOM     12  C   UNL     1      26.964 -15.201  -1.667 -0.29 -0.00    +0.000 A 
DOCKED: ATOM     13  C   UNL     1      27.894 -15.886  -0.882 -0.28 -0.00    +0.000 A 
DOCKED: ATOM     14  C   UNL     1      27.564 -17.128  -0.331 -0.37 -0.00    +0.000 A 
DOCKED: ATOM     15  C   UNL     1      26.303 -17.685  -0.561 -0.54 -0.00    +0.000 A 
DOCKED: ENDBRANCH   9  10
DOCKED: ENDBRANCH   1   9
DOCKED: TORSDOF 5
DOCKED: TER
DOCKED: ENDMDL
________________________________________________________________________________


	BEGINNING GENETIC ALGORITHM DOCKING 57 of 100
Run: 57 Seed: 415227919 1677461909 [ Run 57 of 100 GA/GALS ]
Beginning LAMARCKIAN GENETIC ALGORITHM (LGA), with a maximum of 2500000 energy evaluations.

Final-Value: -10.921


	FINAL GENETIC ALGORITHM DOCKED STATE
	_______________________________________________


Detailed state:  trans 23.330 -17.721 -0.181 quatxyzw -0.070297 -0.646532 0.753857 0.093563 center 0.710 -0.190 -0.071 ntor 5 179.0206 -180.0000 -162.1235 5.5353 -36.9247
State:	 23.330 -17.721  -0.181  -0.071 -0.649  0.757 169.263    179.02 -180.00 -162.12    5.54  -36.92

DOCKED: MODEL       57
DOCKED: USER    Run = 57
DOCKED: USER    DPF = ligand_dock.biased.dpf
DOCKED: USER  
DOCKED: USER    Estimated Free Energy of Binding    =   -8.57 kcal/mol  [=(1)+(2)+(3)-(4)]
DOCKED: USER    Estimated Inhibition Constant, Ki   =  522.32 nM (nanomolar)  [Temperature = 298.15 K]
DOCKED: USER    
DOCKED: USER    (1) Final Intermolecular Energy     =  -10.06 kcal/mol
DOCKED: USER        vdW + Hbond + desolv Energy     =  -10.06 kcal/mol
DOCKED: USER        Electrostatic Energy            =   +0.00 kcal/mol
DOCKED: USER    (2) Final Total Internal Energy     =   -0.86 kcal/mol
DOCKED: USER    (3) Torsional Free Energy           =   +1.49 kcal/mol
DOCKED: USER    (4) Unbound System's Energy  [=(2)] =   -0.86 kcal/mol
DOCKED: USER    
DOCKED: USER    
DOCKED: USER    NEWDPF move ligand.pdbqt
DOCKED: USER    NEWDPF about 0.710000 -0.190000 -0.071000
DOCKED: USER    NEWDPF tran0 23.330029 -17.720788 -0.180745
DOCKED: USER    NEWDPF quaternion0 -0.070297 -0.646532 0.753857 0.093563
DOCKED: USER    NEWDPF axisangle0 -0.070606 -0.649381 0.757179 169.262747
DOCKED: USER    NEWDPF quat0 -0.070606 -0.649381 0.757179 169.262747
DOCKED: USER    NEWDPF dihe0 179.02 -180.00 -162.12 5.54 -36.92 
DOCKED: USER  keepresnum = 1 
DOCKED: USER  
DOCKED: REMARK  Name = 
DOCKED: REMARK  5 active torsions:
DOCKED: REMARK  status: ('A' for Active; 'I' for Inactive)
DOCKED: REMARK    1  A    between atoms: O_1  and  N_2
DOCKED: REMARK    2  A    between atoms: C_3  and  C_4
DOCKED: REMARK    3  A    between atoms: C_4  and  C_5
DOCKED: REMARK    4  A    between atoms: C_5  and  C_6
DOCKED: REMARK    5  A    between atoms: C_6  and  C_7
DOCKED: REMARK                            x       y       z     vdW  Elec       q    Type
DOCKED: REMARK                         _______ _______ _______ _____ _____    ______ ____
DOCKED: USER                              x       y       z     vdW  Elec       q    Type
DOCKED: USER                           _______ _______ _______ _____ _____    ______ ____
DOCKED: ROOT
DOCKED: ATOM      1  C   UNL     1      23.360 -18.350  -0.223 -0.79 -0.00    +0.000 C 
DOCKED: ENDROOT
DOCKED: BRANCH   1   2
DOCKED: ATOM      2  C   UNL     1      22.318 -19.338  -0.756 -0.77 -0.00    +0.000 C 
DOCKED: BRANCH   2   4
DOCKED: ATOM      3  N   UNL     1      20.431 -19.655   0.915 -0.66 -0.00    +0.000 N 
DOCKED: ATOM      4  C   UNL     1      20.954 -18.991  -0.237 -0.83 -0.00    +0.000 C 
DOCKED: ATOM      5  O   UNL     1      20.254 -18.138  -0.844 -2.15 -0.00    +0.000 OA
DOCKED: ATOM      6  H   UNL     1      20.978 -20.328   1.381 -0.55 -0.00    +0.000 HD
DOCKED: BRANCH   3   7
DOCKED: ATOM      7  O   UNL     1      19.189 -19.367   1.372 -0.71 -0.00    +0.000 OA
DOCKED: ATOM      8  H   UNL     1      18.792 -18.678   0.815 -0.37 -0.00    +0.000 HD
DOCKED: ENDBRANCH   3   7
DOCKED: ENDBRANCH   2   4
DOCKED: ENDBRANCH   1   2
DOCKED: BRANCH   1   9
DOCKED: ATOM      9  C   UNL     1      24.734 -18.608  -0.853 -0.66 -0.00    +0.000 C 
DOCKED: BRANCH   9  10
DOCKED: ATOM     10  C   UNL     1      25.453 -17.309  -1.101 -0.57 -0.00    +0.000 A 
DOCKED: ATOM     11  C   UNL     1      25.048 -16.462  -2.146 -0.51 -0.00    +0.000 A 
DOCKED: ATOM     12  C   UNL     1      25.737 -15.272  -2.395 -0.43 -0.00    +0.000 A 
DOCKED: ATOM     13  C   UNL     1      26.840 -14.923  -1.611 -0.28 -0.00    +0.000 A 
DOCKED: ATOM     14  C   UNL     1      27.258 -15.767  -0.578 -0.32 -0.00    +0.000 A 
DOCKED: ATOM     15  C   UNL     1      26.572 -16.959  -0.325 -0.47 -0.00    +0.000 A 
DOCKED: ENDBRANCH   9  10
DOCKED: ENDBRANCH   1   9
DOCKED: TORSDOF 5
DOCKED: TER
DOCKED: ENDMDL
________________________________________________________________________________


	BEGINNING GENETIC ALGORITHM DOCKING 58 of 100
Run: 58 Seed: 163575563 14157550 [ Run 58 of 100 GA/GALS ]
Beginning LAMARCKIAN GENETIC ALGORITHM (LGA), with a maximum of 2500000 energy evaluations.

Final-Value: -11.086


	FINAL GENETIC ALGORITHM DOCKED STATE
	_______________________________________________


Detailed state:  trans 23.385 -17.287 -1.078 quatxyzw 0.275348 0.323619 -0.872972 -0.239529 center 0.710 -0.190 -0.071 ntor 5 168.1583 162.5277 78.7350 -42.6954 -46.5016
State:	 23.385 -17.287  -1.078   0.284  0.333 -0.899 -152.283    168.16  162.53   78.74  -42.70  -46.50

DOCKED: MODEL       58
DOCKED: USER    Run = 58
DOCKED: USER    DPF = ligand_dock.biased.dpf
DOCKED: USER  
DOCKED: USER    Estimated Free Energy of Binding    =   -8.77 kcal/mol  [=(1)+(2)+(3)-(4)]
DOCKED: USER    Estimated Inhibition Constant, Ki   =  374.86 nM (nanomolar)  [Temperature = 298.15 K]
DOCKED: USER    
DOCKED: USER    (1) Final Intermolecular Energy     =  -10.26 kcal/mol
DOCKED: USER        vdW + Hbond + desolv Energy     =  -10.26 kcal/mol
DOCKED: USER        Electrostatic Energy            =   +0.00 kcal/mol
DOCKED: USER    (2) Final Total Internal Energy     =   -0.83 kcal/mol
DOCKED: USER    (3) Torsional Free Energy           =   +1.49 kcal/mol
DOCKED: USER    (4) Unbound System's Energy  [=(2)] =   -0.83 kcal/mol
DOCKED: USER    
DOCKED: USER    
DOCKED: USER    NEWDPF move ligand.pdbqt
DOCKED: USER    NEWDPF about 0.710000 -0.190000 -0.071000
DOCKED: USER    NEWDPF tran0 23.385375 -17.287292 -1.077802
DOCKED: USER    NEWDPF quaternion0 0.275348 0.323619 -0.872972 -0.239529
DOCKED: USER    NEWDPF axisangle0 0.283604 0.333323 -0.899147 -152.282514
DOCKED: USER    NEWDPF quat0 0.283604 0.333323 -0.899147 -152.282514
DOCKED: USER    NEWDPF dihe0 168.16 162.53 78.74 -42.70 -46.50 
DOCKED: USER  keepresnum = 1 
DOCKED: USER  
DOCKED: REMARK  Name = 
DOCKED: REMARK  5 active torsions:
DOCKED: REMARK  status: ('A' for Active; 'I' for Inactive)
DOCKED: REMARK    1  A    between atoms: O_1  and  N_2
DOCKED: REMARK    2  A    between atoms: C_3  and  C_4
DOCKED: REMARK    3  A    between atoms: C_4  and  C_5
DOCKED: REMARK    4  A    between atoms: C_5  and  C_6
DOCKED: REMARK    5  A    between atoms: C_6  and  C_7
DOCKED: REMARK                            x       y       z     vdW  Elec       q    Type
DOCKED: REMARK                         _______ _______ _______ _____ _____    ______ ____
DOCKED: USER                              x       y       z     vdW  Elec       q    Type
DOCKED: USER                           _______ _______ _______ _____ _____    ______ ____
DOCKED: ROOT
DOCKED: ATOM      1  C   UNL     1      23.259 -17.814  -0.752 -0.80 -0.00    +0.000 C 
DOCKED: ENDROOT
DOCKED: BRANCH   1   2
DOCKED: ATOM      2  C   UNL     1      22.352 -18.991  -1.124 -0.81 -0.00    +0.000 C 
DOCKED: BRANCH   2   4
DOCKED: ATOM      3  N   UNL     1      20.458 -19.646   0.437 -0.71 -0.00    +0.000 N 
DOCKED: ATOM      4  C   UNL     1      20.972 -18.780  -0.579 -0.83 -0.00    +0.000 C 
DOCKED: ATOM      5  O   UNL     1      20.249 -17.860  -1.046 -2.17 -0.00    +0.000 OA
DOCKED: ATOM      6  H   UNL     1      21.022 -20.369   0.793 -0.57 -0.00    +0.000 HD
DOCKED: BRANCH   3   7
DOCKED: ATOM      7  O   UNL     1      19.201 -19.478   0.913 -0.76 -0.00    +0.000 OA
DOCKED: ATOM      8  H   UNL     1      18.849 -18.627   0.607 -0.35 -0.00    +0.000 HD
DOCKED: ENDBRANCH   3   7
DOCKED: ENDBRANCH   2   4
DOCKED: ENDBRANCH   1   2
DOCKED: BRANCH   1   9
DOCKED: ATOM      9  C   UNL     1      24.641 -18.305  -0.305 -0.71 -0.00    +0.000 C 
DOCKED: BRANCH   9  10
DOCKED: ATOM     10  C   UNL     1      25.727 -17.507  -0.975 -0.56 -0.00    +0.000 A 
DOCKED: ATOM     11  C   UNL     1      27.055 -17.599  -0.525 -0.46 -0.00    +0.000 A 
DOCKED: ATOM     12  C   UNL     1      28.057 -16.832  -1.127 -0.33 -0.00    +0.000 A 
DOCKED: ATOM     13  C   UNL     1      27.741 -15.962  -2.174 -0.27 -0.00    +0.000 A 
DOCKED: ATOM     14  C   UNL     1      26.419 -15.855  -2.618 -0.41 -0.00    +0.000 A 
DOCKED: ATOM     15  C   UNL     1      25.414 -16.619  -2.019 -0.52 -0.00    +0.000 A 
DOCKED: ENDBRANCH   9  10
DOCKED: ENDBRANCH   1   9
DOCKED: TORSDOF 5
DOCKED: TER
DOCKED: ENDMDL
________________________________________________________________________________


	BEGINNING GENETIC ALGORITHM DOCKING 59 of 100
Run: 59 Seed: 1355308459 932284944 [ Run 59 of 100 GA/GALS ]
Beginning LAMARCKIAN GENETIC ALGORITHM (LGA), with a maximum of 2500000 energy evaluations.

Final-Value: -11.162


	FINAL GENETIC ALGORITHM DOCKED STATE
	_______________________________________________


Detailed state:  trans 22.414 -18.037 0.367 quatxyzw 0.356061 0.785423 -0.496628 0.098447 center 0.710 -0.190 -0.071 ntor 5 -178.9236 -12.8627 -160.0913 -84.6198 -74.4292
State:	 22.414 -18.037   0.367   0.358  0.789 -0.499 168.701   -178.92  -12.86 -160.09  -84.62  -74.43

DOCKED: MODEL       59
DOCKED: USER    Run = 59
DOCKED: USER    DPF = ligand_dock.biased.dpf
DOCKED: USER  
DOCKED: USER    Estimated Free Energy of Binding    =   -8.75 kcal/mol  [=(1)+(2)+(3)-(4)]
DOCKED: USER    Estimated Inhibition Constant, Ki   =  388.56 nM (nanomolar)  [Temperature = 298.15 K]
DOCKED: USER    
DOCKED: USER    (1) Final Intermolecular Energy     =  -10.24 kcal/mol
DOCKED: USER        vdW + Hbond + desolv Energy     =  -10.24 kcal/mol
DOCKED: USER        Electrostatic Energy            =   +0.00 kcal/mol
DOCKED: USER    (2) Final Total Internal Energy     =   -0.93 kcal/mol
DOCKED: USER    (3) Torsional Free Energy           =   +1.49 kcal/mol
DOCKED: USER    (4) Unbound System's Energy  [=(2)] =   -0.93 kcal/mol
DOCKED: USER    
DOCKED: USER    
DOCKED: USER    NEWDPF move ligand.pdbqt
DOCKED: USER    NEWDPF about 0.710000 -0.190000 -0.071000
DOCKED: USER    NEWDPF tran0 22.413841 -18.036886 0.366781
DOCKED: USER    NEWDPF quaternion0 0.356061 0.785423 -0.496628 0.098447
DOCKED: USER    NEWDPF axisangle0 0.357799 0.789257 -0.499052 168.700552
DOCKED: USER    NEWDPF quat0 0.357799 0.789257 -0.499052 168.700552
DOCKED: USER    NEWDPF dihe0 -178.92 -12.86 -160.09 -84.62 -74.43 
DOCKED: USER  keepresnum = 1 
DOCKED: USER  
DOCKED: REMARK  Name = 
DOCKED: REMARK  5 active torsions:
DOCKED: REMARK  status: ('A' for Active; 'I' for Inactive)
DOCKED: REMARK    1  A    between atoms: O_1  and  N_2
DOCKED: REMARK    2  A    between atoms: C_3  and  C_4
DOCKED: REMARK    3  A    between atoms: C_4  and  C_5
DOCKED: REMARK    4  A    between atoms: C_5  and  C_6
DOCKED: REMARK    5  A    between atoms: C_6  and  C_7
DOCKED: REMARK                            x       y       z     vdW  Elec       q    Type
DOCKED: REMARK                         _______ _______ _______ _____ _____    ______ ____
DOCKED: USER                              x       y       z     vdW  Elec       q    Type
DOCKED: USER                           _______ _______ _______ _____ _____    ______ ____
DOCKED: ROOT
DOCKED: ATOM      1  C   UNL     1      22.157 -18.431  -0.055 -0.81 -0.00    +0.000 C 
DOCKED: ENDROOT
DOCKED: BRANCH   1   2
DOCKED: ATOM      2  C   UNL     1      21.041 -18.171  -1.071 -0.62 -0.00    +0.000 C 
DOCKED: BRANCH   2   4
DOCKED: ATOM      3  N   UNL     1      19.170 -19.463   0.063 -0.76 -0.00    +0.000 N 
DOCKED: ATOM      4  C   UNL     1      20.046 -19.293  -1.055 -0.87 -0.00    +0.000 C 
DOCKED: ATOM      5  O   UNL     1      20.009 -20.109  -2.013 -1.78 -0.00    +0.000 OA
DOCKED: ATOM      6  H   UNL     1      19.208 -18.828   0.814 -0.28 -0.00    +0.000 HD
DOCKED: BRANCH   3   7
DOCKED: ATOM      7  O   UNL     1      18.289 -20.491   0.097 -0.83 -0.00    +0.000 OA
DOCKED: ATOM      8  H   UNL     1      18.389 -21.029  -0.704 -0.31 -0.00    +0.000 HD
DOCKED: ENDBRANCH   3   7
DOCKED: ENDBRANCH   2   4
DOCKED: ENDBRANCH   1   2
DOCKED: BRANCH   1   9
DOCKED: ATOM      9  C   UNL     1      23.368 -19.089  -0.725 -0.77 -0.00    +0.000 C 
DOCKED: BRANCH   9  10
DOCKED: ATOM     10  C   UNL     1      24.488 -18.096  -0.884 -0.68 -0.00    +0.000 A 
DOCKED: ATOM     11  C   UNL     1      24.387 -17.058  -1.825 -0.54 -0.00    +0.000 A 
DOCKED: ATOM     12  C   UNL     1      25.442 -16.156  -1.994 -0.50 -0.00    +0.000 A 
DOCKED: ATOM     13  C   UNL     1      26.607 -16.288  -1.233 -0.41 -0.00    +0.000 A 
DOCKED: ATOM     14  C   UNL     1      26.720 -17.327  -0.304 -0.49 -0.00    +0.000 A 
DOCKED: ATOM     15  C   UNL     1      25.668 -18.232  -0.132 -0.60 -0.00    +0.000 A 
DOCKED: ENDBRANCH   9  10
DOCKED: ENDBRANCH   1   9
DOCKED: TORSDOF 5
DOCKED: TER
DOCKED: ENDMDL
________________________________________________________________________________


	BEGINNING GENETIC ALGORITHM DOCKING 60 of 100
Run: 60 Seed: 1245741571 516517625 [ Run 60 of 100 GA/GALS ]
Beginning LAMARCKIAN GENETIC ALGORITHM (LGA), with a maximum of 2500000 energy evaluations.

Final-Value: -11.599


	FINAL GENETIC ALGORITHM DOCKED STATE
	_______________________________________________


Detailed state:  trans 23.741 -18.108 -1.787 quatxyzw -0.015181 0.194040 0.957829 0.211379 center 0.710 -0.190 -0.071 ntor 5 173.2279 10.4954 -100.2641 12.0513 28.7344
State:	 23.741 -18.108  -1.787  -0.016  0.199  0.980 155.594    173.23   10.50 -100.26   12.05   28.73

DOCKED: MODEL       60
DOCKED: USER    Run = 60
DOCKED: USER    DPF = ligand_dock.biased.dpf
DOCKED: USER  
DOCKED: USER    Estimated Free Energy of Binding    =   -9.27 kcal/mol  [=(1)+(2)+(3)-(4)]
DOCKED: USER    Estimated Inhibition Constant, Ki   =  161.55 nM (nanomolar)  [Temperature = 298.15 K]
DOCKED: USER    
DOCKED: USER    (1) Final Intermolecular Energy     =  -10.76 kcal/mol
DOCKED: USER        vdW + Hbond + desolv Energy     =  -10.76 kcal/mol
DOCKED: USER        Electrostatic Energy            =   +0.00 kcal/mol
DOCKED: USER    (2) Final Total Internal Energy     =   -0.84 kcal/mol
DOCKED: USER    (3) Torsional Free Energy           =   +1.49 kcal/mol
DOCKED: USER    (4) Unbound System's Energy  [=(2)] =   -0.84 kcal/mol
DOCKED: USER    
DOCKED: USER    
DOCKED: USER    NEWDPF move ligand.pdbqt
DOCKED: USER    NEWDPF about 0.710000 -0.190000 -0.071000
DOCKED: USER    NEWDPF tran0 23.741207 -18.107708 -1.787040
DOCKED: USER    NEWDPF quaternion0 -0.015181 0.194040 0.957829 0.211379
DOCKED: USER    NEWDPF axisangle0 -0.015532 0.198525 0.979973 155.593617
DOCKED: USER    NEWDPF quat0 -0.015532 0.198525 0.979973 155.593617
DOCKED: USER    NEWDPF dihe0 173.23 10.50 -100.26 12.05 28.73 
DOCKED: USER  keepresnum = 1 
DOCKED: USER  
DOCKED: REMARK  Name = 
DOCKED: REMARK  5 active torsions:
DOCKED: REMARK  status: ('A' for Active; 'I' for Inactive)
DOCKED: REMARK    1  A    between atoms: O_1  and  N_2
DOCKED: REMARK    2  A    between atoms: C_3  and  C_4
DOCKED: REMARK    3  A    between atoms: C_4  and  C_5
DOCKED: REMARK    4  A    between atoms: C_5  and  C_6
DOCKED: REMARK    5  A    between atoms: C_6  and  C_7
DOCKED: REMARK                            x       y       z     vdW  Elec       q    Type
DOCKED: REMARK                         _______ _______ _______ _____ _____    ______ ____
DOCKED: USER                              x       y       z     vdW  Elec       q    Type
DOCKED: USER                           _______ _______ _______ _____ _____    ______ ____
DOCKED: ROOT
DOCKED: ATOM      1  C   UNL     1      23.718 -18.005  -1.164 -0.78 -0.00    +0.000 C 
DOCKED: ENDROOT
DOCKED: BRANCH   1   2
DOCKED: ATOM      2  C   UNL     1      22.708 -18.517  -0.133 -0.80 -0.00    +0.000 C 
DOCKED: BRANCH   2   4
DOCKED: ATOM      3  N   UNL     1      20.814 -19.726  -1.319 -0.79 -0.00    +0.000 N 
DOCKED: ATOM      4  C   UNL     1      21.327 -18.535  -0.716 -0.85 -0.00    +0.000 C 
DOCKED: ATOM      5  O   UNL     1      20.632 -17.484  -0.709 -2.08 +0.00    +0.000 OA
DOCKED: ATOM      6  H   UNL     1      21.363 -20.542  -1.330 -0.21 -0.00    +0.000 HD
DOCKED: BRANCH   3   7
DOCKED: ATOM      7  O   UNL     1      19.578 -19.740  -1.872 -1.70 -0.00    +0.000 OA
DOCKED: ATOM      8  H   UNL     1      19.130 -18.900  -1.685 -0.55 -0.00    +0.000 HD
DOCKED: ENDBRANCH   3   7
DOCKED: ENDBRANCH   2   4
DOCKED: ENDBRANCH   1   2
DOCKED: BRANCH   1   9
DOCKED: ATOM      9  C   UNL     1      25.156 -18.258  -0.698 -0.71 -0.00    +0.000 C 
DOCKED: BRANCH   9  10
DOCKED: ATOM     10  C   UNL     1      26.086 -17.221  -1.267 -0.50 -0.00    +0.000 A 
DOCKED: ATOM     11  C   UNL     1      25.648 -16.355  -2.283 -0.49 -0.00    +0.000 A 
DOCKED: ATOM     12  C   UNL     1      26.523 -15.413  -2.832 -0.39 -0.00    +0.000 A 
DOCKED: ATOM     13  C   UNL     1      27.843 -15.336  -2.380 -0.23 -0.00    +0.000 A 
DOCKED: ATOM     14  C   UNL     1      28.291 -16.203  -1.379 -0.27 -0.00    +0.000 A 
DOCKED: ATOM     15  C   UNL     1      27.419 -17.146  -0.827 -0.41 -0.00    +0.000 A 
DOCKED: ENDBRANCH   9  10
DOCKED: ENDBRANCH   1   9
DOCKED: TORSDOF 5
DOCKED: TER
DOCKED: ENDMDL
________________________________________________________________________________


	BEGINNING GENETIC ALGORITHM DOCKING 61 of 100
Run: 61 Seed: 2120854629 2060650629 [ Run 61 of 100 GA/GALS ]
Beginning LAMARCKIAN GENETIC ALGORITHM (LGA), with a maximum of 2500000 energy evaluations.

Final-Value: -11.354


	FINAL GENETIC ALGORITHM DOCKED STATE
	_______________________________________________


Detailed state:  trans 23.661 -18.449 -1.921 quatxyzw -0.312285 0.365744 0.699417 0.528701 center 0.710 -0.190 -0.071 ntor 5 -161.3484 64.2171 -18.3827 -82.8034 -37.9085
State:	 23.661 -18.449  -1.921  -0.368  0.431  0.824 116.165   -161.35   64.22  -18.38  -82.80  -37.91

DOCKED: MODEL       61
DOCKED: USER    Run = 61
DOCKED: USER    DPF = ligand_dock.biased.dpf
DOCKED: USER  
DOCKED: USER    Estimated Free Energy of Binding    =   -9.04 kcal/mol  [=(1)+(2)+(3)-(4)]
DOCKED: USER    Estimated Inhibition Constant, Ki   =  236.86 nM (nanomolar)  [Temperature = 298.15 K]
DOCKED: USER    
DOCKED: USER    (1) Final Intermolecular Energy     =  -10.53 kcal/mol
DOCKED: USER        vdW + Hbond + desolv Energy     =  -10.53 kcal/mol
DOCKED: USER        Electrostatic Energy            =   +0.00 kcal/mol
DOCKED: USER    (2) Final Total Internal Energy     =   -0.82 kcal/mol
DOCKED: USER    (3) Torsional Free Energy           =   +1.49 kcal/mol
DOCKED: USER    (4) Unbound System's Energy  [=(2)] =   -0.82 kcal/mol
DOCKED: USER    
DOCKED: USER    
DOCKED: USER    NEWDPF move ligand.pdbqt
DOCKED: USER    NEWDPF about 0.710000 -0.190000 -0.071000
DOCKED: USER    NEWDPF tran0 23.661451 -18.449123 -1.921312
DOCKED: USER    NEWDPF quaternion0 -0.312285 0.365744 0.699417 0.528701
DOCKED: USER    NEWDPF axisangle0 -0.367910 0.430891 0.823999 116.164573
DOCKED: USER    NEWDPF quat0 -0.367910 0.430891 0.823999 116.164573
DOCKED: USER    NEWDPF dihe0 -161.35 64.22 -18.38 -82.80 -37.91 
DOCKED: USER  keepresnum = 1 
DOCKED: USER  
DOCKED: REMARK  Name = 
DOCKED: REMARK  5 active torsions:
DOCKED: REMARK  status: ('A' for Active; 'I' for Inactive)
DOCKED: REMARK    1  A    between atoms: O_1  and  N_2
DOCKED: REMARK    2  A    between atoms: C_3  and  C_4
DOCKED: REMARK    3  A    between atoms: C_4  and  C_5
DOCKED: REMARK    4  A    between atoms: C_5  and  C_6
DOCKED: REMARK    5  A    between atoms: C_6  and  C_7
DOCKED: REMARK                            x       y       z     vdW  Elec       q    Type
DOCKED: REMARK                         _______ _______ _______ _____ _____    ______ ____
DOCKED: USER                              x       y       z     vdW  Elec       q    Type
DOCKED: USER                           _______ _______ _______ _____ _____    ______ ____
DOCKED: ROOT
DOCKED: ATOM      1  C   UNL     1      23.223 -18.373  -1.473 -0.75 -0.00    +0.000 C 
DOCKED: ENDROOT
DOCKED: BRANCH   1   2
DOCKED: ATOM      2  C   UNL     1      22.421 -19.432  -0.711 -0.69 -0.00    +0.000 C 
DOCKED: BRANCH   2   4
DOCKED: ATOM      3  N   UNL     1      19.969 -20.097  -0.694 -0.76 -0.00    +0.000 N 
DOCKED: ATOM      4  C   UNL     1      20.965 -19.072  -0.690 -0.89 -0.00    +0.000 C 
DOCKED: ATOM      5  O   UNL     1      20.621 -17.860  -0.709 -2.35 -0.00    +0.000 OA
DOCKED: ATOM      6  H   UNL     1      20.242 -21.043  -0.688 -0.34 -0.00    +0.000 HD
DOCKED: BRANCH   3   7
DOCKED: ATOM      7  O   UNL     1      18.653 -19.779  -0.704 -0.85 -0.00    +0.000 OA
DOCKED: ATOM      8  H   UNL     1      18.544 -18.861  -1.000 -0.59 -0.00    +0.000 HD
DOCKED: ENDBRANCH   3   7
DOCKED: ENDBRANCH   2   4
DOCKED: ENDBRANCH   1   2
DOCKED: BRANCH   1   9
DOCKED: ATOM      9  C   UNL     1      23.858 -17.366  -0.508 -0.68 -0.00    +0.000 C 
DOCKED: BRANCH   9  10
DOCKED: ATOM     10  C   UNL     1      25.231 -16.973  -0.983 -0.56 -0.00    +0.000 A 
DOCKED: ATOM     11  C   UNL     1      25.385 -16.175  -2.129 -0.50 -0.00    +0.000 A 
DOCKED: ATOM     12  C   UNL     1      26.662 -15.838  -2.587 -0.37 -0.00    +0.000 A 
DOCKED: ATOM     13  C   UNL     1      27.794 -16.303  -1.912 -0.29 -0.00    +0.000 A 
DOCKED: ATOM     14  C   UNL     1      27.650 -17.110  -0.779 -0.39 -0.00    +0.000 A 
DOCKED: ATOM     15  C   UNL     1      26.375 -17.449  -0.318 -0.53 -0.00    +0.000 A 
DOCKED: ENDBRANCH   9  10
DOCKED: ENDBRANCH   1   9
DOCKED: TORSDOF 5
DOCKED: TER
DOCKED: ENDMDL
________________________________________________________________________________


	BEGINNING GENETIC ALGORITHM DOCKING 62 of 100
Run: 62 Seed: 382885637 1322850210 [ Run 62 of 100 GA/GALS ]
Beginning LAMARCKIAN GENETIC ALGORITHM (LGA), with a maximum of 2500000 energy evaluations.

Final-Value: -11.709


	FINAL GENETIC ALGORITHM DOCKED STATE
	_______________________________________________


Detailed state:  trans 23.984 -18.900 -1.907 quatxyzw -0.034700 -0.501730 -0.832425 -0.232661 center 0.710 -0.190 -0.071 ntor 5 -179.9066 -31.9443 60.2487 0.2886 73.7268
State:	 23.984 -18.900  -1.907  -0.036 -0.516 -0.856 -153.092   -179.91  -31.94   60.25    0.29   73.73

DOCKED: MODEL       62
DOCKED: USER    Run = 62
DOCKED: USER    DPF = ligand_dock.biased.dpf
DOCKED: USER  
DOCKED: USER    Estimated Free Energy of Binding    =   -9.30 kcal/mol  [=(1)+(2)+(3)-(4)]
DOCKED: USER    Estimated Inhibition Constant, Ki   =  153.21 nM (nanomolar)  [Temperature = 298.15 K]
DOCKED: USER    
DOCKED: USER    (1) Final Intermolecular Energy     =  -10.79 kcal/mol
DOCKED: USER        vdW + Hbond + desolv Energy     =  -10.79 kcal/mol
DOCKED: USER        Electrostatic Energy            =   +0.00 kcal/mol
DOCKED: USER    (2) Final Total Internal Energy     =   -0.92 kcal/mol
DOCKED: USER    (3) Torsional Free Energy           =   +1.49 kcal/mol
DOCKED: USER    (4) Unbound System's Energy  [=(2)] =   -0.92 kcal/mol
DOCKED: USER    
DOCKED: USER    
DOCKED: USER    NEWDPF move ligand.pdbqt
DOCKED: USER    NEWDPF about 0.710000 -0.190000 -0.071000
DOCKED: USER    NEWDPF tran0 23.984249 -18.899874 -1.907265
DOCKED: USER    NEWDPF quaternion0 -0.034700 -0.501730 -0.832425 -0.232661
DOCKED: USER    NEWDPF axisangle0 -0.035679 -0.515887 -0.855913 -153.092401
DOCKED: USER    NEWDPF quat0 -0.035679 -0.515887 -0.855913 -153.092401
DOCKED: USER    NEWDPF dihe0 -179.91 -31.94 60.25 0.29 73.73 
DOCKED: USER  keepresnum = 1 
DOCKED: USER  
DOCKED: REMARK  Name = 
DOCKED: REMARK  5 active torsions:
DOCKED: REMARK  status: ('A' for Active; 'I' for Inactive)
DOCKED: REMARK    1  A    between atoms: O_1  and  N_2
DOCKED: REMARK    2  A    between atoms: C_3  and  C_4
DOCKED: REMARK    3  A    between atoms: C_4  and  C_5
DOCKED: REMARK    4  A    between atoms: C_5  and  C_6
DOCKED: REMARK    5  A    between atoms: C_6  and  C_7
DOCKED: REMARK                            x       y       z     vdW  Elec       q    Type
DOCKED: REMARK                         _______ _______ _______ _____ _____    ______ ____
DOCKED: USER                              x       y       z     vdW  Elec       q    Type
DOCKED: USER                           _______ _______ _______ _____ _____    ______ ____
DOCKED: ROOT
DOCKED: ATOM      1  C   UNL     1      23.924 -18.434  -1.485 -0.73 -0.00    +0.000 C 
DOCKED: ENDROOT
DOCKED: BRANCH   1   2
DOCKED: ATOM      2  C   UNL     1      22.892 -18.265  -0.366 -0.83 -0.00    +0.000 C 
DOCKED: BRANCH   2   4
DOCKED: ATOM      3  N   UNL     1      21.186 -19.635  -1.657 -0.64 -0.00    +0.000 N 
DOCKED: ATOM      4  C   UNL     1      21.505 -18.466  -0.899 -0.81 -0.00    +0.000 C 
DOCKED: ATOM      5  O   UNL     1      20.629 -17.581  -0.708 -2.15 +0.00    +0.000 OA
DOCKED: ATOM      6  H   UNL     1      21.876 -20.319  -1.811 -0.43 -0.00    +0.000 HD
DOCKED: BRANCH   3   7
DOCKED: ATOM      7  O   UNL     1      19.943 -19.808  -2.165 -1.87 -0.00    +0.000 OA
DOCKED: ATOM      8  H   UNL     1      19.387 -19.049  -1.926 -0.38 -0.00    +0.000 HD
DOCKED: ENDBRANCH   3   7
DOCKED: ENDBRANCH   2   4
DOCKED: ENDBRANCH   1   2
DOCKED: BRANCH   1   9
DOCKED: ATOM      9  C   UNL     1      25.349 -18.240  -0.952 -0.63 -0.00    +0.000 C 
DOCKED: BRANCH   9  10
DOCKED: ATOM     10  C   UNL     1      25.906 -16.916  -1.404 -0.51 -0.00    +0.000 A 
DOCKED: ATOM     11  C   UNL     1      26.826 -16.223  -0.601 -0.39 -0.00    +0.000 A 
DOCKED: ATOM     12  C   UNL     1      27.317 -14.978  -1.007 -0.25 -0.00    +0.000 A 
DOCKED: ATOM     13  C   UNL     1      26.887 -14.414  -2.210 -0.25 -0.00    +0.000 A 
DOCKED: ATOM     14  C   UNL     1      25.961 -15.091  -3.009 -0.44 -0.00    +0.000 A 
DOCKED: ATOM     15  C   UNL     1      25.466 -16.336  -2.607 -0.49 -0.00    +0.000 A 
DOCKED: ENDBRANCH   9  10
DOCKED: ENDBRANCH   1   9
DOCKED: TORSDOF 5
DOCKED: TER
DOCKED: ENDMDL
________________________________________________________________________________


	BEGINNING GENETIC ALGORITHM DOCKING 63 of 100
Run: 63 Seed: 627373724 112660959 [ Run 63 of 100 GA/GALS ]
Beginning LAMARCKIAN GENETIC ALGORITHM (LGA), with a maximum of 2500000 energy evaluations.

Final-Value: -11.569


	FINAL GENETIC ALGORITHM DOCKED STATE
	_______________________________________________


Detailed state:  trans 23.328 -16.825 -0.892 quatxyzw 0.188885 -0.427323 0.883584 0.031576 center 0.710 -0.190 -0.071 ntor 5 170.9915 42.7151 -12.9491 74.6380 13.9806
State:	 23.328 -16.825  -0.892   0.189 -0.428  0.884 176.381    170.99   42.72  -12.95   74.64   13.98

DOCKED: MODEL       63
DOCKED: USER    Run = 63
DOCKED: USER    DPF = ligand_dock.biased.dpf
DOCKED: USER  
DOCKED: USER    Estimated Free Energy of Binding    =   -9.21 kcal/mol  [=(1)+(2)+(3)-(4)]
DOCKED: USER    Estimated Inhibition Constant, Ki   =  176.74 nM (nanomolar)  [Temperature = 298.15 K]
DOCKED: USER    
DOCKED: USER    (1) Final Intermolecular Energy     =  -10.70 kcal/mol
DOCKED: USER        vdW + Hbond + desolv Energy     =  -10.70 kcal/mol
DOCKED: USER        Electrostatic Energy            =   +0.00 kcal/mol
DOCKED: USER    (2) Final Total Internal Energy     =   -0.87 kcal/mol
DOCKED: USER    (3) Torsional Free Energy           =   +1.49 kcal/mol
DOCKED: USER    (4) Unbound System's Energy  [=(2)] =   -0.87 kcal/mol
DOCKED: USER    
DOCKED: USER    
DOCKED: USER    NEWDPF move ligand.pdbqt
DOCKED: USER    NEWDPF about 0.710000 -0.190000 -0.071000
DOCKED: USER    NEWDPF tran0 23.327639 -16.825424 -0.891907
DOCKED: USER    NEWDPF quaternion0 0.188885 -0.427323 0.883584 0.031576
DOCKED: USER    NEWDPF axisangle0 0.188980 -0.427536 0.884025 176.381029
DOCKED: USER    NEWDPF quat0 0.188980 -0.427536 0.884025 176.381029
DOCKED: USER    NEWDPF dihe0 170.99 42.72 -12.95 74.64 13.98 
DOCKED: USER  keepresnum = 1 
DOCKED: USER  
DOCKED: REMARK  Name = 
DOCKED: REMARK  5 active torsions:
DOCKED: REMARK  status: ('A' for Active; 'I' for Inactive)
DOCKED: REMARK    1  A    between atoms: O_1  and  N_2
DOCKED: REMARK    2  A    between atoms: C_3  and  C_4
DOCKED: REMARK    3  A    between atoms: C_4  and  C_5
DOCKED: REMARK    4  A    between atoms: C_5  and  C_6
DOCKED: REMARK    5  A    between atoms: C_6  and  C_7
DOCKED: REMARK                            x       y       z     vdW  Elec       q    Type
DOCKED: REMARK                         _______ _______ _______ _____ _____    ______ ____
DOCKED: USER                              x       y       z     vdW  Elec       q    Type
DOCKED: USER                           _______ _______ _______ _____ _____    ______ ____
DOCKED: ROOT
DOCKED: ATOM      1  C   UNL     1      23.524 -17.374  -0.649 -0.73 -0.00    +0.000 C 
DOCKED: ENDROOT
DOCKED: BRANCH   1   2
DOCKED: ATOM      2  C   UNL     1      22.700 -18.547  -0.109 -0.79 -0.00    +0.000 C 
DOCKED: BRANCH   2   4
DOCKED: ATOM      3  N   UNL     1      20.845 -19.732  -1.378 -0.78 -0.00    +0.000 N 
DOCKED: ATOM      4  C   UNL     1      21.334 -18.556  -0.728 -0.85 -0.00    +0.000 C 
DOCKED: ATOM      5  O   UNL     1      20.632 -17.510  -0.708 -2.10 +0.00    +0.000 OA
DOCKED: ATOM      6  H   UNL     1      21.401 -20.544  -1.399 -0.22 -0.00    +0.000 HD
DOCKED: BRANCH   3   7
DOCKED: ATOM      7  O   UNL     1      19.625 -19.738  -1.964 -1.70 -0.00    +0.000 OA
DOCKED: ATOM      8  H   UNL     1      19.152 -18.922  -1.735 -0.54 -0.00    +0.000 HD
DOCKED: ENDBRANCH   3   7
DOCKED: ENDBRANCH   2   4
DOCKED: ENDBRANCH   1   2
DOCKED: BRANCH   1   9
DOCKED: ATOM      9  C   UNL     1      24.580 -17.859  -1.648 -0.67 -0.00    +0.000 C 
DOCKED: BRANCH   9  10
DOCKED: ATOM     10  C   UNL     1      25.593 -16.777  -1.913 -0.51 -0.00    +0.000 A 
DOCKED: ATOM     11  C   UNL     1      26.584 -16.486  -0.961 -0.43 -0.00    +0.000 A 
DOCKED: ATOM     12  C   UNL     1      27.504 -15.459  -1.195 -0.26 -0.00    +0.000 A 
DOCKED: ATOM     13  C   UNL     1      27.436 -14.711  -2.372 -0.22 -0.00    +0.000 A 
DOCKED: ATOM     14  C   UNL     1      26.443 -14.986  -3.319 -0.41 -0.00    +0.000 A 
DOCKED: ATOM     15  C   UNL     1      25.521 -16.011  -3.089 -0.48 -0.00    +0.000 A 
DOCKED: ENDBRANCH   9  10
DOCKED: ENDBRANCH   1   9
DOCKED: TORSDOF 5
DOCKED: TER
DOCKED: ENDMDL
________________________________________________________________________________


	BEGINNING GENETIC ALGORITHM DOCKING 64 of 100
Run: 64 Seed: 1240767392 1229322475 [ Run 64 of 100 GA/GALS ]
Beginning LAMARCKIAN GENETIC ALGORITHM (LGA), with a maximum of 2500000 energy evaluations.

Final-Value: -11.169


	FINAL GENETIC ALGORITHM DOCKED STATE
	_______________________________________________


Detailed state:  trans 23.131 -17.190 -0.059 quatxyzw -0.327306 0.731871 -0.580725 -0.141401 center 0.710 -0.190 -0.071 ntor 5 -173.5801 63.7227 144.6846 76.3792 60.8604
State:	 23.131 -17.190  -0.059  -0.331  0.739 -0.587 -163.742   -173.58   63.72  144.68   76.38   60.86

DOCKED: MODEL       64
DOCKED: USER    Run = 64
DOCKED: USER    DPF = ligand_dock.biased.dpf
DOCKED: USER  
DOCKED: USER    Estimated Free Energy of Binding    =   -8.80 kcal/mol  [=(1)+(2)+(3)-(4)]
DOCKED: USER    Estimated Inhibition Constant, Ki   =  351.83 nM (nanomolar)  [Temperature = 298.15 K]
DOCKED: USER    
DOCKED: USER    (1) Final Intermolecular Energy     =  -10.30 kcal/mol
DOCKED: USER        vdW + Hbond + desolv Energy     =  -10.30 kcal/mol
DOCKED: USER        Electrostatic Energy            =   +0.00 kcal/mol
DOCKED: USER    (2) Final Total Internal Energy     =   -0.87 kcal/mol
DOCKED: USER    (3) Torsional Free Energy           =   +1.49 kcal/mol
DOCKED: USER    (4) Unbound System's Energy  [=(2)] =   -0.87 kcal/mol
DOCKED: USER    
DOCKED: USER    
DOCKED: USER    NEWDPF move ligand.pdbqt
DOCKED: USER    NEWDPF about 0.710000 -0.190000 -0.071000
DOCKED: USER    NEWDPF tran0 23.130613 -17.190362 -0.059122
DOCKED: USER    NEWDPF quaternion0 -0.327306 0.731871 -0.580725 -0.141401
DOCKED: USER    NEWDPF axisangle0 -0.330628 0.739299 -0.586619 -163.742134
DOCKED: USER    NEWDPF quat0 -0.330628 0.739299 -0.586619 -163.742134
DOCKED: USER    NEWDPF dihe0 -173.58 63.72 144.68 76.38 60.86 
DOCKED: USER  keepresnum = 1 
DOCKED: USER  
DOCKED: REMARK  Name = 
DOCKED: REMARK  5 active torsions:
DOCKED: REMARK  status: ('A' for Active; 'I' for Inactive)
DOCKED: REMARK    1  A    between atoms: O_1  and  N_2
DOCKED: REMARK    2  A    between atoms: C_3  and  C_4
DOCKED: REMARK    3  A    between atoms: C_4  and  C_5
DOCKED: REMARK    4  A    between atoms: C_5  and  C_6
DOCKED: REMARK    5  A    between atoms: C_6  and  C_7
DOCKED: REMARK                            x       y       z     vdW  Elec       q    Type
DOCKED: REMARK                         _______ _______ _______ _____ _____    ______ ____
DOCKED: USER                              x       y       z     vdW  Elec       q    Type
DOCKED: USER                           _______ _______ _______ _____ _____    ______ ____
DOCKED: ROOT
DOCKED: ATOM      1  C   UNL     1      23.439 -17.649  -0.365 -0.74 -0.00    +0.000 C 
DOCKED: ENDROOT
DOCKED: BRANCH   1   2
DOCKED: ATOM      2  C   UNL     1      22.941 -19.030  -0.802 -0.81 -0.00    +0.000 C 
DOCKED: BRANCH   2   4
DOCKED: ATOM      3  N   UNL     1      20.856 -19.833  -2.010 -0.50 -0.00    +0.000 N 
DOCKED: ATOM      4  C   UNL     1      21.456 -19.010  -1.007 -0.85 -0.00    +0.000 C 
DOCKED: ATOM      5  O   UNL     1      20.741 -18.235  -0.318 -1.96 -0.00    +0.000 OA
DOCKED: ATOM      6  H   UNL     1      21.419 -20.431  -2.552 -0.57 -0.00    +0.000 HD
DOCKED: BRANCH   3   7
DOCKED: ATOM      7  O   UNL     1      19.518 -19.799  -2.220 -1.47 -0.00    +0.000 OA
DOCKED: ATOM      8  H   UNL     1      19.124 -19.094  -1.681 -0.55 -0.00    +0.000 HD
DOCKED: ENDBRANCH   3   7
DOCKED: ENDBRANCH   2   4
DOCKED: ENDBRANCH   1   2
DOCKED: BRANCH   1   9
DOCKED: ATOM      9  C   UNL     1      24.121 -16.918  -1.527 -0.61 -0.00    +0.000 C 
DOCKED: BRANCH   9  10
DOCKED: ATOM     10  C   UNL     1      25.558 -16.620  -1.193 -0.51 -0.00    +0.000 A 
DOCKED: ATOM     11  C   UNL     1      26.055 -15.311  -1.298 -0.37 -0.00    +0.000 A 
DOCKED: ATOM     12  C   UNL     1      27.398 -15.042  -1.019 -0.25 -0.00    +0.000 A 
DOCKED: ATOM     13  C   UNL     1      28.257 -16.078  -0.643 -0.27 -0.00    +0.000 A 
DOCKED: ATOM     14  C   UNL     1      27.773 -17.387  -0.549 -0.33 -0.00    +0.000 A 
DOCKED: ATOM     15  C   UNL     1      26.431 -17.661  -0.828 -0.51 -0.00    +0.000 A 
DOCKED: ENDBRANCH   9  10
DOCKED: ENDBRANCH   1   9
DOCKED: TORSDOF 5
DOCKED: TER
DOCKED: ENDMDL
________________________________________________________________________________


	BEGINNING GENETIC ALGORITHM DOCKING 65 of 100
Run: 65 Seed: 241848894 1707858339 [ Run 65 of 100 GA/GALS ]
Beginning LAMARCKIAN GENETIC ALGORITHM (LGA), with a maximum of 2500000 energy evaluations.

Final-Value: -11.228


	FINAL GENETIC ALGORITHM DOCKED STATE
	_______________________________________________


Detailed state:  trans 23.383 -16.878 -1.177 quatxyzw -0.193198 0.545940 -0.797765 -0.167917 center 0.710 -0.190 -0.071 ntor 5 -170.0076 57.6481 143.7039 43.8941 7.8399
State:	 23.383 -16.878  -1.177  -0.196  0.554 -0.809 -160.667   -170.01   57.65  143.70   43.89    7.84

DOCKED: MODEL       65
DOCKED: USER    Run = 65
DOCKED: USER    DPF = ligand_dock.biased.dpf
DOCKED: USER  
DOCKED: USER    Estimated Free Energy of Binding    =   -8.91 kcal/mol  [=(1)+(2)+(3)-(4)]
DOCKED: USER    Estimated Inhibition Constant, Ki   =  295.68 nM (nanomolar)  [Temperature = 298.15 K]
DOCKED: USER    
DOCKED: USER    (1) Final Intermolecular Energy     =  -10.40 kcal/mol
DOCKED: USER        vdW + Hbond + desolv Energy     =  -10.40 kcal/mol
DOCKED: USER        Electrostatic Energy            =   +0.00 kcal/mol
DOCKED: USER    (2) Final Total Internal Energy     =   -0.83 kcal/mol
DOCKED: USER    (3) Torsional Free Energy           =   +1.49 kcal/mol
DOCKED: USER    (4) Unbound System's Energy  [=(2)] =   -0.83 kcal/mol
DOCKED: USER    
DOCKED: USER    
DOCKED: USER    NEWDPF move ligand.pdbqt
DOCKED: USER    NEWDPF about 0.710000 -0.190000 -0.071000
DOCKED: USER    NEWDPF tran0 23.383279 -16.877964 -1.176785
DOCKED: USER    NEWDPF quaternion0 -0.193198 0.545940 -0.797765 -0.167917
DOCKED: USER    NEWDPF axisangle0 -0.195981 0.553803 -0.809255 -160.666575
DOCKED: USER    NEWDPF quat0 -0.195981 0.553803 -0.809255 -160.666575
DOCKED: USER    NEWDPF dihe0 -170.01 57.65 143.70 43.89 7.84 
DOCKED: USER  keepresnum = 1 
DOCKED: USER  
DOCKED: REMARK  Name = 
DOCKED: REMARK  5 active torsions:
DOCKED: REMARK  status: ('A' for Active; 'I' for Inactive)
DOCKED: REMARK    1  A    between atoms: O_1  and  N_2
DOCKED: REMARK    2  A    between atoms: C_3  and  C_4
DOCKED: REMARK    3  A    between atoms: C_4  and  C_5
DOCKED: REMARK    4  A    between atoms: C_5  and  C_6
DOCKED: REMARK    5  A    between atoms: C_6  and  C_7
DOCKED: REMARK                            x       y       z     vdW  Elec       q    Type
DOCKED: REMARK                         _______ _______ _______ _____ _____    ______ ____
DOCKED: USER                              x       y       z     vdW  Elec       q    Type
DOCKED: USER                           _______ _______ _______ _____ _____    ______ ____
DOCKED: ROOT
DOCKED: ATOM      1  C   UNL     1      23.684 -17.429  -1.104 -0.74 -0.00    +0.000 C 
DOCKED: ENDROOT
DOCKED: BRANCH   1   2
DOCKED: ATOM      2  C   UNL     1      23.110 -18.848  -1.055 -0.82 -0.00    +0.000 C 
DOCKED: BRANCH   2   4
DOCKED: ATOM      3  N   UNL     1      20.870 -19.777  -1.812 -0.67 -0.00    +0.000 N 
DOCKED: ATOM      4  C   UNL     1      21.611 -18.808  -1.067 -0.83 -0.00    +0.000 C 
DOCKED: ATOM      5  O   UNL     1      21.006 -17.892  -0.448 -2.00 -0.00    +0.000 OA
DOCKED: ATOM      6  H   UNL     1      21.347 -20.485  -2.301 -0.51 -0.00    +0.000 HD
DOCKED: BRANCH   3   7
DOCKED: ATOM      7  O   UNL     1      19.517 -19.729  -1.850 -1.66 -0.00    +0.000 OA
DOCKED: ATOM      8  H   UNL     1      19.212 -18.896  -1.456 -0.50 -0.00    +0.000 HD
DOCKED: ENDBRANCH   3   7
DOCKED: ENDBRANCH   2   4
DOCKED: ENDBRANCH   1   2
DOCKED: BRANCH   1   9
DOCKED: ATOM      9  C   UNL     1      24.851 -17.342  -2.093 -0.59 -0.00    +0.000 C 
DOCKED: BRANCH   9  10
DOCKED: ATOM     10  C   UNL     1      25.528 -16.000  -1.994 -0.49 -0.00    +0.000 A 
DOCKED: ATOM     11  C   UNL     1      25.729 -15.221  -3.146 -0.48 -0.00    +0.000 A 
DOCKED: ATOM     12  C   UNL     1      26.386 -13.990  -3.057 -0.31 -0.00    +0.000 A 
DOCKED: ATOM     13  C   UNL     1      26.855 -13.533  -1.823 -0.17 -0.00    +0.000 A 
DOCKED: ATOM     14  C   UNL     1      26.670 -14.309  -0.674 -0.27 -0.00    +0.000 A 
DOCKED: ATOM     15  C   UNL     1      26.014 -15.541  -0.758 -0.37 -0.00    +0.000 A 
DOCKED: ENDBRANCH   9  10
DOCKED: ENDBRANCH   1   9
DOCKED: TORSDOF 5
DOCKED: TER
DOCKED: ENDMDL
________________________________________________________________________________


	BEGINNING GENETIC ALGORITHM DOCKING 66 of 100
Run: 66 Seed: 886844702 1735825131 [ Run 66 of 100 GA/GALS ]
Beginning LAMARCKIAN GENETIC ALGORITHM (LGA), with a maximum of 2500000 energy evaluations.

Final-Value: -11.588


	FINAL GENETIC ALGORITHM DOCKED STATE
	_______________________________________________


Detailed state:  trans 24.337 -18.487 -1.136 quatxyzw -0.222720 0.696290 0.362053 0.578354 center 0.710 -0.190 -0.071 ntor 5 171.5575 8.9072 30.9370 -92.8063 -20.1023
State:	 24.337 -18.487  -1.136  -0.273  0.854  0.444 109.330    171.56    8.91   30.94  -92.81  -20.10

DOCKED: MODEL       66
DOCKED: USER    Run = 66
DOCKED: USER    DPF = ligand_dock.biased.dpf
DOCKED: USER  
DOCKED: USER    Estimated Free Energy of Binding    =   -9.22 kcal/mol  [=(1)+(2)+(3)-(4)]
DOCKED: USER    Estimated Inhibition Constant, Ki   =  175.44 nM (nanomolar)  [Temperature = 298.15 K]
DOCKED: USER    
DOCKED: USER    (1) Final Intermolecular Energy     =  -10.71 kcal/mol
DOCKED: USER        vdW + Hbond + desolv Energy     =  -10.71 kcal/mol
DOCKED: USER        Electrostatic Energy            =   +0.00 kcal/mol
DOCKED: USER    (2) Final Total Internal Energy     =   -0.88 kcal/mol
DOCKED: USER    (3) Torsional Free Energy           =   +1.49 kcal/mol
DOCKED: USER    (4) Unbound System's Energy  [=(2)] =   -0.88 kcal/mol
DOCKED: USER    
DOCKED: USER    
DOCKED: USER    NEWDPF move ligand.pdbqt
DOCKED: USER    NEWDPF about 0.710000 -0.190000 -0.071000
DOCKED: USER    NEWDPF tran0 24.337123 -18.487145 -1.135532
DOCKED: USER    NEWDPF quaternion0 -0.222720 0.696290 0.362053 0.578354
DOCKED: USER    NEWDPF axisangle0 -0.273012 0.853521 0.443809 109.330284
DOCKED: USER    NEWDPF quat0 -0.273012 0.853521 0.443809 109.330284
DOCKED: USER    NEWDPF dihe0 171.56 8.91 30.94 -92.81 -20.10 
DOCKED: USER  keepresnum = 1 
DOCKED: USER  
DOCKED: REMARK  Name = 
DOCKED: REMARK  5 active torsions:
DOCKED: REMARK  status: ('A' for Active; 'I' for Inactive)
DOCKED: REMARK    1  A    between atoms: O_1  and  N_2
DOCKED: REMARK    2  A    between atoms: C_3  and  C_4
DOCKED: REMARK    3  A    between atoms: C_4  and  C_5
DOCKED: REMARK    4  A    between atoms: C_5  and  C_6
DOCKED: REMARK    5  A    between atoms: C_6  and  C_7
DOCKED: REMARK                            x       y       z     vdW  Elec       q    Type
DOCKED: REMARK                         _______ _______ _______ _____ _____    ______ ____
DOCKED: USER                              x       y       z     vdW  Elec       q    Type
DOCKED: USER                           _______ _______ _______ _____ _____    ______ ____
DOCKED: ROOT
DOCKED: ATOM      1  C   UNL     1      23.754 -18.255  -1.064 -0.80 -0.00    +0.000 C 
DOCKED: ENDROOT
DOCKED: BRANCH   1   2
DOCKED: ATOM      2  C   UNL     1      22.676 -18.636  -0.045 -0.76 -0.00    +0.000 C 
DOCKED: BRANCH   2   4
DOCKED: ATOM      3  N   UNL     1      20.759 -19.774  -1.264 -0.78 -0.00    +0.000 N 
DOCKED: ATOM      4  C   UNL     1      21.318 -18.595  -0.680 -0.86 -0.00    +0.000 C 
DOCKED: ATOM      5  O   UNL     1      20.686 -17.506  -0.731 -2.10 +0.00    +0.000 OA
DOCKED: ATOM      6  H   UNL     1      21.260 -20.620  -1.229 -0.13 -0.00    +0.000 HD
DOCKED: BRANCH   3   7
DOCKED: ATOM      7  O   UNL     1      19.545 -19.736  -1.863 -1.68 -0.00    +0.000 OA
DOCKED: ATOM      8  H   UNL     1      19.128 -18.876  -1.697 -0.55 -0.00    +0.000 HD
DOCKED: ENDBRANCH   3   7
DOCKED: ENDBRANCH   2   4
DOCKED: ENDBRANCH   1   2
DOCKED: BRANCH   1   9
DOCKED: ATOM      9  C   UNL     1      23.960 -16.736  -1.103 -0.60 -0.00    +0.000 C 
DOCKED: BRANCH   9  10
DOCKED: ATOM     10  C   UNL     1      25.300 -16.400  -1.701 -0.52 -0.00    +0.000 A 
DOCKED: ATOM     11  C   UNL     1      25.381 -15.623  -2.868 -0.46 -0.00    +0.000 A 
DOCKED: ATOM     12  C   UNL     1      26.625 -15.339  -3.440 -0.41 -0.00    +0.000 A 
DOCKED: ATOM     13  C   UNL     1      27.794 -15.836  -2.858 -0.26 -0.00    +0.000 A 
DOCKED: ATOM     14  C   UNL     1      27.721 -16.622  -1.704 -0.32 -0.00    +0.000 A 
DOCKED: ATOM     15  C   UNL     1      26.479 -16.909  -1.129 -0.46 -0.00    +0.000 A 
DOCKED: ENDBRANCH   9  10
DOCKED: ENDBRANCH   1   9
DOCKED: TORSDOF 5
DOCKED: TER
DOCKED: ENDMDL
________________________________________________________________________________


	BEGINNING GENETIC ALGORITHM DOCKING 67 of 100
Run: 67 Seed: 749347588 609001932 [ Run 67 of 100 GA/GALS ]
Beginning LAMARCKIAN GENETIC ALGORITHM (LGA), with a maximum of 2500000 energy evaluations.

Final-Value: -11.188


	FINAL GENETIC ALGORITHM DOCKED STATE
	_______________________________________________


Detailed state:  trans 23.744 -17.051 -1.964 quatxyzw 0.212446 0.055184 -0.872023 -0.437491 center 0.710 -0.190 -0.071 ntor 5 -179.8568 55.0631 57.5085 -30.2411 -25.5539
State:	 23.744 -17.051  -1.964   0.236  0.061 -0.970 -128.112   -179.86   55.06   57.51  -30.24  -25.55

DOCKED: MODEL       67
DOCKED: USER    Run = 67
DOCKED: USER    DPF = ligand_dock.biased.dpf
DOCKED: USER  
DOCKED: USER    Estimated Free Energy of Binding    =   -8.85 kcal/mol  [=(1)+(2)+(3)-(4)]
DOCKED: USER    Estimated Inhibition Constant, Ki   =  323.26 nM (nanomolar)  [Temperature = 298.15 K]
DOCKED: USER    
DOCKED: USER    (1) Final Intermolecular Energy     =  -10.35 kcal/mol
DOCKED: USER        vdW + Hbond + desolv Energy     =  -10.35 kcal/mol
DOCKED: USER        Electrostatic Energy            =   +0.00 kcal/mol
DOCKED: USER    (2) Final Total Internal Energy     =   -0.84 kcal/mol
DOCKED: USER    (3) Torsional Free Energy           =   +1.49 kcal/mol
DOCKED: USER    (4) Unbound System's Energy  [=(2)] =   -0.84 kcal/mol
DOCKED: USER    
DOCKED: USER    
DOCKED: USER    NEWDPF move ligand.pdbqt
DOCKED: USER    NEWDPF about 0.710000 -0.190000 -0.071000
DOCKED: USER    NEWDPF tran0 23.744475 -17.051430 -1.964265
DOCKED: USER    NEWDPF quaternion0 0.212446 0.055184 -0.872023 -0.437491
DOCKED: USER    NEWDPF axisangle0 0.236255 0.061368 -0.969751 -128.112207
DOCKED: USER    NEWDPF quat0 0.236255 0.061368 -0.969751 -128.112207
DOCKED: USER    NEWDPF dihe0 -179.86 55.06 57.51 -30.24 -25.55 
DOCKED: USER  keepresnum = 1 
DOCKED: USER  
DOCKED: REMARK  Name = 
DOCKED: REMARK  5 active torsions:
DOCKED: REMARK  status: ('A' for Active; 'I' for Inactive)
DOCKED: REMARK    1  A    between atoms: O_1  and  N_2
DOCKED: REMARK    2  A    between atoms: C_3  and  C_4
DOCKED: REMARK    3  A    between atoms: C_4  and  C_5
DOCKED: REMARK    4  A    between atoms: C_5  and  C_6
DOCKED: REMARK    5  A    between atoms: C_6  and  C_7
DOCKED: REMARK                            x       y       z     vdW  Elec       q    Type
DOCKED: REMARK                         _______ _______ _______ _____ _____    ______ ____
DOCKED: USER                              x       y       z     vdW  Elec       q    Type
DOCKED: USER                           _______ _______ _______ _____ _____    ______ ____
DOCKED: ROOT
DOCKED: ATOM      1  C   UNL     1      23.650 -17.320  -1.400 -0.66 -0.00    +0.000 C 
DOCKED: ENDROOT
DOCKED: BRANCH   1   2
DOCKED: ATOM      2  C   UNL     1      23.069 -18.697  -1.065 -0.82 -0.00    +0.000 C 
DOCKED: BRANCH   2   4
DOCKED: ATOM      3  N   UNL     1      20.857 -19.753  -1.733 -0.72 -0.00    +0.000 N 
DOCKED: ATOM      4  C   UNL     1      21.572 -18.666  -1.140 -0.74 -0.00    +0.000 C 
DOCKED: ATOM      5  O   UNL     1      20.946 -17.660  -0.711 -2.13 -0.00    +0.000 OA
DOCKED: ATOM      6  H   UNL     1      21.351 -20.533  -2.075 -0.40 -0.00    +0.000 HD
DOCKED: BRANCH   3   7
DOCKED: ATOM      7  O   UNL     1      19.507 -19.718  -1.829 -1.65 -0.00    +0.000 OA
DOCKED: ATOM      8  H   UNL     1      19.177 -18.888  -1.451 -0.53 -0.00    +0.000 HD
DOCKED: ENDBRANCH   3   7
DOCKED: ENDBRANCH   2   4
DOCKED: ENDBRANCH   1   2
DOCKED: BRANCH   1   9
DOCKED: ATOM      9  C   UNL     1      24.971 -17.085  -0.659 -0.62 -0.00    +0.000 C 
DOCKED: BRANCH   9  10
DOCKED: ATOM     10  C   UNL     1      25.827 -16.097  -1.405 -0.46 -0.00    +0.000 A 
DOCKED: ATOM     11  C   UNL     1      26.660 -15.209  -0.705 -0.32 -0.00    +0.000 A 
DOCKED: ATOM     12  C   UNL     1      27.430 -14.271  -1.398 -0.20 -0.00    +0.000 A 
DOCKED: ATOM     13  C   UNL     1      27.367 -14.204  -2.792 -0.21 -0.00    +0.000 A 
DOCKED: ATOM     14  C   UNL     1      26.529 -15.075  -3.496 -0.42 -0.00    +0.000 A 
DOCKED: ATOM     15  C   UNL     1      25.757 -16.015  -2.807 -0.48 -0.00    +0.000 A 
DOCKED: ENDBRANCH   9  10
DOCKED: ENDBRANCH   1   9
DOCKED: TORSDOF 5
DOCKED: TER
DOCKED: ENDMDL
________________________________________________________________________________


	BEGINNING GENETIC ALGORITHM DOCKING 68 of 100
Run: 68 Seed: 77399162 1766781212 [ Run 68 of 100 GA/GALS ]
Beginning LAMARCKIAN GENETIC ALGORITHM (LGA), with a maximum of 2500000 energy evaluations.

Final-Value: -11.209


	FINAL GENETIC ALGORITHM DOCKED STATE
	_______________________________________________


Detailed state:  trans 22.968 -18.715 0.275 quatxyzw 0.256494 0.883551 -0.281944 0.272133 center 0.710 -0.190 -0.071 ntor 5 -178.5001 11.1595 172.5629 -77.7109 -74.0745
State:	 22.968 -18.715   0.275   0.267  0.918 -0.293 148.417   -178.50   11.16  172.56  -77.71  -74.07

DOCKED: MODEL       68
DOCKED: USER    Run = 68
DOCKED: USER    DPF = ligand_dock.biased.dpf
DOCKED: USER  
DOCKED: USER    Estimated Free Energy of Binding    =   -8.81 kcal/mol  [=(1)+(2)+(3)-(4)]
DOCKED: USER    Estimated Inhibition Constant, Ki   =  347.38 nM (nanomolar)  [Temperature = 298.15 K]
DOCKED: USER    
DOCKED: USER    (1) Final Intermolecular Energy     =  -10.30 kcal/mol
DOCKED: USER        vdW + Hbond + desolv Energy     =  -10.30 kcal/mol
DOCKED: USER        Electrostatic Energy            =   +0.00 kcal/mol
DOCKED: USER    (2) Final Total Internal Energy     =   -0.91 kcal/mol
DOCKED: USER    (3) Torsional Free Energy           =   +1.49 kcal/mol
DOCKED: USER    (4) Unbound System's Energy  [=(2)] =   -0.91 kcal/mol
DOCKED: USER    
DOCKED: USER    
DOCKED: USER    NEWDPF move ligand.pdbqt
DOCKED: USER    NEWDPF about 0.710000 -0.190000 -0.071000
DOCKED: USER    NEWDPF tran0 22.967758 -18.714576 0.275309
DOCKED: USER    NEWDPF quaternion0 0.256494 0.883551 -0.281944 0.272133
DOCKED: USER    NEWDPF axisangle0 0.266553 0.918204 -0.293002 148.417484
DOCKED: USER    NEWDPF quat0 0.266553 0.918204 -0.293002 148.417484
DOCKED: USER    NEWDPF dihe0 -178.50 11.16 172.56 -77.71 -74.07 
DOCKED: USER  keepresnum = 1 
DOCKED: USER  
DOCKED: REMARK  Name = 
DOCKED: REMARK  5 active torsions:
DOCKED: REMARK  status: ('A' for Active; 'I' for Inactive)
DOCKED: REMARK    1  A    between atoms: O_1  and  N_2
DOCKED: REMARK    2  A    between atoms: C_3  and  C_4
DOCKED: REMARK    3  A    between atoms: C_4  and  C_5
DOCKED: REMARK    4  A    between atoms: C_5  and  C_6
DOCKED: REMARK    5  A    between atoms: C_6  and  C_7
DOCKED: REMARK                            x       y       z     vdW  Elec       q    Type
DOCKED: REMARK                         _______ _______ _______ _____ _____    ______ ____
DOCKED: USER                              x       y       z     vdW  Elec       q    Type
DOCKED: USER                           _______ _______ _______ _____ _____    ______ ____
DOCKED: ROOT
DOCKED: ATOM      1  C   UNL     1      22.616 -18.829  -0.237 -0.76 -0.00    +0.000 C 
DOCKED: ENDROOT
DOCKED: BRANCH   1   2
DOCKED: ATOM      2  C   UNL     1      21.338 -18.131  -0.712 -0.76 -0.00    +0.000 C 
DOCKED: BRANCH   2   4
DOCKED: ATOM      3  N   UNL     1      19.299 -19.444   0.044 -0.76 -0.00    +0.000 N 
DOCKED: ATOM      4  C   UNL     1      20.257 -19.137  -0.971 -0.88 -0.00    +0.000 C 
DOCKED: ATOM      5  O   UNL     1      20.219 -19.741  -2.076 -1.87 -0.00    +0.000 OA
DOCKED: ATOM      6  H   UNL     1      19.338 -18.976   0.909 -0.26 -0.00    +0.000 HD
DOCKED: BRANCH   3   7
DOCKED: ATOM      7  O   UNL     1      18.338 -20.373  -0.174 -0.82 -0.00    +0.000 OA
DOCKED: ATOM      8  H   UNL     1      18.451 -20.754  -1.059 -0.39 -0.00    +0.000 HD
DOCKED: ENDBRANCH   3   7
DOCKED: ENDBRANCH   2   4
DOCKED: ENDBRANCH   1   2
DOCKED: BRANCH   1   9
DOCKED: ATOM      9  C   UNL     1      23.643 -18.926  -1.370 -0.74 -0.00    +0.000 C 
DOCKED: BRANCH   9  10
DOCKED: ATOM     10  C   UNL     1      24.760 -17.941  -1.157 -0.64 -0.00    +0.000 A 
DOCKED: ATOM     11  C   UNL     1      24.759 -16.709  -1.832 -0.55 -0.00    +0.000 A 
DOCKED: ATOM     12  C   UNL     1      25.814 -15.809  -1.657 -0.44 -0.00    +0.000 A 
DOCKED: ATOM     13  C   UNL     1      26.881 -16.134  -0.816 -0.38 -0.00    +0.000 A 
DOCKED: ATOM     14  C   UNL     1      26.897 -17.364  -0.150 -0.45 -0.00    +0.000 A 
DOCKED: ATOM     15  C   UNL     1      25.844 -18.268  -0.323 -0.60 -0.00    +0.000 A 
DOCKED: ENDBRANCH   9  10
DOCKED: ENDBRANCH   1   9
DOCKED: TORSDOF 5
DOCKED: TER
DOCKED: ENDMDL
________________________________________________________________________________


	BEGINNING GENETIC ALGORITHM DOCKING 69 of 100
Run: 69 Seed: 1630943470 57337226 [ Run 69 of 100 GA/GALS ]
Beginning LAMARCKIAN GENETIC ALGORITHM (LGA), with a maximum of 2500000 energy evaluations.

Final-Value: -11.835


	FINAL GENETIC ALGORITHM DOCKED STATE
	_______________________________________________


Detailed state:  trans 23.543 -16.963 -1.255 quatxyzw -0.054493 -0.179708 0.938099 0.291044 center 0.710 -0.190 -0.071 ntor 5 167.0100 40.7793 94.1327 21.7832 -32.2520
State:	 23.543 -16.963  -1.255  -0.057 -0.188  0.981 146.159    167.01   40.78   94.13   21.78  -32.25

DOCKED: MODEL       69
DOCKED: USER    Run = 69
DOCKED: USER    DPF = ligand_dock.biased.dpf
DOCKED: USER  
DOCKED: USER    Estimated Free Energy of Binding    =   -9.51 kcal/mol  [=(1)+(2)+(3)-(4)]
DOCKED: USER    Estimated Inhibition Constant, Ki   =  107.63 nM (nanomolar)  [Temperature = 298.15 K]
DOCKED: USER    
DOCKED: USER    (1) Final Intermolecular Energy     =  -11.00 kcal/mol
DOCKED: USER        vdW + Hbond + desolv Energy     =  -11.00 kcal/mol
DOCKED: USER        Electrostatic Energy            =   +0.00 kcal/mol
DOCKED: USER    (2) Final Total Internal Energy     =   -0.84 kcal/mol
DOCKED: USER    (3) Torsional Free Energy           =   +1.49 kcal/mol
DOCKED: USER    (4) Unbound System's Energy  [=(2)] =   -0.84 kcal/mol
DOCKED: USER    
DOCKED: USER    
DOCKED: USER    NEWDPF move ligand.pdbqt
DOCKED: USER    NEWDPF about 0.710000 -0.190000 -0.071000
DOCKED: USER    NEWDPF tran0 23.542637 -16.963001 -1.254590
DOCKED: USER    NEWDPF quaternion0 -0.054493 -0.179708 0.938099 0.291044
DOCKED: USER    NEWDPF axisangle0 -0.056958 -0.187840 0.980547 146.159056
DOCKED: USER    NEWDPF quat0 -0.056958 -0.187840 0.980547 146.159056
DOCKED: USER    NEWDPF dihe0 167.01 40.78 94.13 21.78 -32.25 
DOCKED: USER  keepresnum = 1 
DOCKED: USER  
DOCKED: REMARK  Name = 
DOCKED: REMARK  5 active torsions:
DOCKED: REMARK  status: ('A' for Active; 'I' for Inactive)
DOCKED: REMARK    1  A    between atoms: O_1  and  N_2
DOCKED: REMARK    2  A    between atoms: C_3  and  C_4
DOCKED: REMARK    3  A    between atoms: C_4  and  C_5
DOCKED: REMARK    4  A    between atoms: C_5  and  C_6
DOCKED: REMARK    5  A    between atoms: C_6  and  C_7
DOCKED: REMARK                            x       y       z     vdW  Elec       q    Type
DOCKED: REMARK                         _______ _______ _______ _____ _____    ______ ____
DOCKED: USER                              x       y       z     vdW  Elec       q    Type
DOCKED: USER                           _______ _______ _______ _____ _____    ______ ____
DOCKED: ROOT
DOCKED: ATOM      1  C   UNL     1      23.613 -17.304  -0.727 -0.73 -0.00    +0.000 C 
DOCKED: ENDROOT
DOCKED: BRANCH   1   2
DOCKED: ATOM      2  C   UNL     1      22.874 -18.569  -0.283 -0.82 -0.00    +0.000 C 
DOCKED: BRANCH   2   4
DOCKED: ATOM      3  N   UNL     1      21.073 -19.724  -1.654 -0.68 -0.00    +0.000 N 
DOCKED: ATOM      4  C   UNL     1      21.495 -18.604  -0.872 -0.84 -0.00    +0.000 C 
DOCKED: ATOM      5  O   UNL     1      20.721 -17.624  -0.708 -2.17 +0.00    +0.000 OA
DOCKED: ATOM      6  H   UNL     1      21.685 -20.484  -1.787 -0.40 -0.00    +0.000 HD
DOCKED: BRANCH   3   7
DOCKED: ATOM      7  O   UNL     1      19.840 -19.749  -2.212 -1.84 -0.00    +0.000 OA
DOCKED: ATOM      8  H   UNL     1      19.296 -19.044  -1.827 -0.46 -0.00    +0.000 HD
DOCKED: ENDBRANCH   3   7
DOCKED: ENDBRANCH   2   4
DOCKED: ENDBRANCH   1   2
DOCKED: BRANCH   1   9
DOCKED: ATOM      9  C   UNL     1      25.131 -17.485  -0.612 -0.67 -0.00    +0.000 C 
DOCKED: BRANCH   9  10
DOCKED: ATOM     10  C   UNL     1      25.840 -16.700  -1.683 -0.50 -0.00    +0.000 A 
DOCKED: ATOM     11  C   UNL     1      27.238 -16.768  -1.804 -0.35 -0.00    +0.000 A 
DOCKED: ATOM     12  C   UNL     1      27.897 -16.013  -2.779 -0.26 -0.00    +0.000 A 
DOCKED: ATOM     13  C   UNL     1      27.169 -15.179  -3.631 -0.35 -0.00    +0.000 A 
DOCKED: ATOM     14  C   UNL     1      25.778 -15.096  -3.508 -0.50 -0.00    +0.000 A 
DOCKED: ATOM     15  C   UNL     1      25.115 -15.848  -2.534 -0.44 -0.00    +0.000 A 
DOCKED: ENDBRANCH   9  10
DOCKED: ENDBRANCH   1   9
DOCKED: TORSDOF 5
DOCKED: TER
DOCKED: ENDMDL
________________________________________________________________________________


	BEGINNING GENETIC ALGORITHM DOCKING 70 of 100
Run: 70 Seed: 157330593 1085543000 [ Run 70 of 100 GA/GALS ]
Beginning LAMARCKIAN GENETIC ALGORITHM (LGA), with a maximum of 2500000 energy evaluations.

Final-Value: -11.806


	FINAL GENETIC ALGORITHM DOCKED STATE
	_______________________________________________


Detailed state:  trans 23.772 -18.467 -1.816 quatxyzw 0.056272 -0.461500 -0.824908 -0.321525 center 0.710 -0.190 -0.071 ntor 5 178.6758 -26.3804 56.8193 -5.5816 45.3294
State:	 23.772 -18.467  -1.816   0.059 -0.487 -0.871 -142.490    178.68  -26.38   56.82   -5.58   45.33

DOCKED: MODEL       70
DOCKED: USER    Run = 70
DOCKED: USER    DPF = ligand_dock.biased.dpf
DOCKED: USER  
DOCKED: USER    Estimated Free Energy of Binding    =   -9.43 kcal/mol  [=(1)+(2)+(3)-(4)]
DOCKED: USER    Estimated Inhibition Constant, Ki   =  122.78 nM (nanomolar)  [Temperature = 298.15 K]
DOCKED: USER    
DOCKED: USER    (1) Final Intermolecular Energy     =  -10.92 kcal/mol
DOCKED: USER        vdW + Hbond + desolv Energy     =  -10.92 kcal/mol
DOCKED: USER        Electrostatic Energy            =   +0.00 kcal/mol
DOCKED: USER    (2) Final Total Internal Energy     =   -0.89 kcal/mol
DOCKED: USER    (3) Torsional Free Energy           =   +1.49 kcal/mol
DOCKED: USER    (4) Unbound System's Energy  [=(2)] =   -0.89 kcal/mol
DOCKED: USER    
DOCKED: USER    
DOCKED: USER    NEWDPF move ligand.pdbqt
DOCKED: USER    NEWDPF about 0.710000 -0.190000 -0.071000
DOCKED: USER    NEWDPF tran0 23.771982 -18.466714 -1.816297
DOCKED: USER    NEWDPF quaternion0 0.056272 -0.461500 -0.824908 -0.321525
DOCKED: USER    NEWDPF axisangle0 0.059428 -0.487379 -0.871166 -142.489605
DOCKED: USER    NEWDPF quat0 0.059428 -0.487379 -0.871166 -142.489605
DOCKED: USER    NEWDPF dihe0 178.68 -26.38 56.82 -5.58 45.33 
DOCKED: USER  keepresnum = 1 
DOCKED: USER  
DOCKED: REMARK  Name = 
DOCKED: REMARK  5 active torsions:
DOCKED: REMARK  status: ('A' for Active; 'I' for Inactive)
DOCKED: REMARK    1  A    between atoms: O_1  and  N_2
DOCKED: REMARK    2  A    between atoms: C_3  and  C_4
DOCKED: REMARK    3  A    between atoms: C_4  and  C_5
DOCKED: REMARK    4  A    between atoms: C_5  and  C_6
DOCKED: REMARK    5  A    between atoms: C_6  and  C_7
DOCKED: REMARK                            x       y       z     vdW  Elec       q    Type
DOCKED: REMARK                         _______ _______ _______ _____ _____    ______ ____
DOCKED: USER                              x       y       z     vdW  Elec       q    Type
DOCKED: USER                           _______ _______ _______ _____ _____    ______ ____
DOCKED: ROOT
DOCKED: ATOM      1  C   UNL     1      23.590 -18.078  -1.352 -0.77 -0.00    +0.000 C 
DOCKED: ENDROOT
DOCKED: BRANCH   1   2
DOCKED: ATOM      2  C   UNL     1      22.514 -18.284  -0.282 -0.83 -0.00    +0.000 C 
DOCKED: BRANCH   2   4
DOCKED: ATOM      3  N   UNL     1      21.073 -19.728  -1.796 -0.64 -0.00    +0.000 N 
DOCKED: ATOM      4  C   UNL     1      21.195 -18.606  -0.918 -0.82 -0.00    +0.000 C 
DOCKED: ATOM      5  O   UNL     1      20.202 -17.860  -0.708 -2.16 +0.00    +0.000 OA
DOCKED: ATOM      6  H   UNL     1      21.854 -20.303  -1.964 -0.47 -0.00    +0.000 HD
DOCKED: BRANCH   3   7
DOCKED: ATOM      7  O   UNL     1      19.892 -20.007  -2.396 -1.73 -0.00    +0.000 OA
DOCKED: ATOM      8  H   UNL     1      19.224 -19.364  -2.111 -0.47 -0.00    +0.000 HD
DOCKED: ENDBRANCH   3   7
DOCKED: ENDBRANCH   2   4
DOCKED: ENDBRANCH   1   2
DOCKED: BRANCH   1   9
DOCKED: ATOM      9  C   UNL     1      24.909 -17.615  -0.725 -0.71 -0.00    +0.000 C 
DOCKED: BRANCH   9  10
DOCKED: ATOM     10  C   UNL     1      25.496 -16.474  -1.511 -0.51 -0.00    +0.000 A 
DOCKED: ATOM     11  C   UNL     1      26.203 -15.451  -0.857 -0.36 -0.00    +0.000 A 
DOCKED: ATOM     12  C   UNL     1      26.720 -14.375  -1.585 -0.26 -0.00    +0.000 A 
DOCKED: ATOM     13  C   UNL     1      26.527 -14.307  -2.967 -0.32 -0.00    +0.000 A 
DOCKED: ATOM     14  C   UNL     1      25.813 -15.314  -3.624 -0.51 -0.00    +0.000 A 
DOCKED: ATOM     15  C   UNL     1      25.293 -16.392  -2.900 -0.36 -0.00    +0.000 A 
DOCKED: ENDBRANCH   9  10
DOCKED: ENDBRANCH   1   9
DOCKED: TORSDOF 5
DOCKED: TER
DOCKED: ENDMDL
________________________________________________________________________________


	BEGINNING GENETIC ALGORITHM DOCKING 71 of 100
Run: 71 Seed: 2106004221 500646090 [ Run 71 of 100 GA/GALS ]
Beginning LAMARCKIAN GENETIC ALGORITHM (LGA), with a maximum of 2500000 energy evaluations.

Final-Value: -11.346


	FINAL GENETIC ALGORITHM DOCKED STATE
	_______________________________________________


Detailed state:  trans 23.509 -17.099 -0.877 quatxyzw 0.002007 0.502564 -0.831202 -0.237757 center 0.710 -0.190 -0.071 ntor 5 -178.5189 77.4373 179.2839 24.6342 -32.5834
State:	 23.509 -17.099  -0.877   0.002  0.517 -0.856 -152.492   -178.52   77.44  179.28   24.63  -32.58

DOCKED: MODEL       71
DOCKED: USER    Run = 71
DOCKED: USER    DPF = ligand_dock.biased.dpf
DOCKED: USER  
DOCKED: USER    Estimated Free Energy of Binding    =   -8.99 kcal/mol  [=(1)+(2)+(3)-(4)]
DOCKED: USER    Estimated Inhibition Constant, Ki   =  257.45 nM (nanomolar)  [Temperature = 298.15 K]
DOCKED: USER    
DOCKED: USER    (1) Final Intermolecular Energy     =  -10.48 kcal/mol
DOCKED: USER        vdW + Hbond + desolv Energy     =  -10.48 kcal/mol
DOCKED: USER        Electrostatic Energy            =   +0.00 kcal/mol
DOCKED: USER    (2) Final Total Internal Energy     =   -0.86 kcal/mol
DOCKED: USER    (3) Torsional Free Energy           =   +1.49 kcal/mol
DOCKED: USER    (4) Unbound System's Energy  [=(2)] =   -0.86 kcal/mol
DOCKED: USER    
DOCKED: USER    
DOCKED: USER    NEWDPF move ligand.pdbqt
DOCKED: USER    NEWDPF about 0.710000 -0.190000 -0.071000
DOCKED: USER    NEWDPF tran0 23.509007 -17.099341 -0.877185
DOCKED: USER    NEWDPF quaternion0 0.002007 0.502564 -0.831202 -0.237757
DOCKED: USER    NEWDPF axisangle0 0.002067 0.517401 -0.855741 -152.491611
DOCKED: USER    NEWDPF quat0 0.002067 0.517401 -0.855741 -152.491611
DOCKED: USER    NEWDPF dihe0 -178.52 77.44 179.28 24.63 -32.58 
DOCKED: USER  keepresnum = 1 
DOCKED: USER  
DOCKED: REMARK  Name = 
DOCKED: REMARK  5 active torsions:
DOCKED: REMARK  status: ('A' for Active; 'I' for Inactive)
DOCKED: REMARK    1  A    between atoms: O_1  and  N_2
DOCKED: REMARK    2  A    between atoms: C_3  and  C_4
DOCKED: REMARK    3  A    between atoms: C_4  and  C_5
DOCKED: REMARK    4  A    between atoms: C_5  and  C_6
DOCKED: REMARK    5  A    between atoms: C_6  and  C_7
DOCKED: REMARK                            x       y       z     vdW  Elec       q    Type
DOCKED: REMARK                         _______ _______ _______ _____ _____    ______ ____
DOCKED: USER                              x       y       z     vdW  Elec       q    Type
DOCKED: USER                           _______ _______ _______ _____ _____    ______ ____
DOCKED: ROOT
DOCKED: ATOM      1  C   UNL     1      23.699 -17.673  -0.692 -0.77 -0.00    +0.000 C 
DOCKED: ENDROOT
DOCKED: BRANCH   1   2
DOCKED: ATOM      2  C   UNL     1      23.021 -19.031  -0.891 -0.81 -0.00    +0.000 C 
DOCKED: BRANCH   2   4
DOCKED: ATOM      3  N   UNL     1      20.756 -19.895  -1.651 -0.65 -0.00    +0.000 N 
DOCKED: ATOM      4  C   UNL     1      21.541 -18.858  -1.057 -0.83 -0.00    +0.000 C 
DOCKED: ATOM      5  O   UNL     1      20.995 -17.778  -0.707 -2.15 -0.00    +0.000 OA
DOCKED: ATOM      6  H   UNL     1      21.187 -20.734  -1.931 -0.25 -0.00    +0.000 HD
DOCKED: BRANCH   3   7
DOCKED: ATOM      7  O   UNL     1      19.423 -19.734  -1.830 -1.50 -0.00    +0.000 OA
DOCKED: ATOM      8  H   UNL     1      19.160 -18.851  -1.525 -0.54 -0.00    +0.000 HD
DOCKED: ENDBRANCH   3   7
DOCKED: ENDBRANCH   2   4
DOCKED: ENDBRANCH   1   2
DOCKED: BRANCH   1   9
DOCKED: ATOM      9  C   UNL     1      25.170 -17.725  -1.121 -0.68 -0.00    +0.000 C 
DOCKED: BRANCH   9  10
DOCKED: ATOM     10  C   UNL     1      25.604 -16.397  -1.681 -0.50 -0.00    +0.000 A 
DOCKED: ATOM     11  C   UNL     1      25.511 -16.144  -3.060 -0.45 -0.00    +0.000 A 
DOCKED: ATOM     12  C   UNL     1      25.945 -14.922  -3.582 -0.48 -0.00    +0.000 A 
DOCKED: ATOM     13  C   UNL     1      26.483 -13.949  -2.736 -0.27 -0.00    +0.000 A 
DOCKED: ATOM     14  C   UNL     1      26.591 -14.198  -1.364 -0.25 -0.00    +0.000 A 
DOCKED: ATOM     15  C   UNL     1      26.159 -15.419  -0.837 -0.36 -0.00    +0.000 A 
DOCKED: ENDBRANCH   9  10
DOCKED: ENDBRANCH   1   9
DOCKED: TORSDOF 5
DOCKED: TER
DOCKED: ENDMDL
________________________________________________________________________________


	BEGINNING GENETIC ALGORITHM DOCKING 72 of 100
Run: 72 Seed: 1521379865 579354906 [ Run 72 of 100 GA/GALS ]
Beginning LAMARCKIAN GENETIC ALGORITHM (LGA), with a maximum of 2500000 energy evaluations.

Final-Value: -10.582


	FINAL GENETIC ALGORITHM DOCKED STATE
	_______________________________________________


Detailed state:  trans 21.751 -17.570 -0.099 quatxyzw -0.332038 0.622551 -0.687072 -0.173531 center 0.710 -0.190 -0.071 ntor 5 170.4452 -178.8780 -49.5499 77.1033 78.7883
State:	 21.751 -17.570  -0.099  -0.337  0.632 -0.698 -160.014    170.45 -178.88  -49.55   77.10   78.79

DOCKED: MODEL       72
DOCKED: USER    Run = 72
DOCKED: USER    DPF = ligand_dock.biased.dpf
DOCKED: USER  
DOCKED: USER    Estimated Free Energy of Binding    =   -8.21 kcal/mol  [=(1)+(2)+(3)-(4)]
DOCKED: USER    Estimated Inhibition Constant, Ki   =  963.97 nM (nanomolar)  [Temperature = 298.15 K]
DOCKED: USER    
DOCKED: USER    (1) Final Intermolecular Energy     =   -9.70 kcal/mol
DOCKED: USER        vdW + Hbond + desolv Energy     =   -9.70 kcal/mol
DOCKED: USER        Electrostatic Energy            =   +0.00 kcal/mol
DOCKED: USER    (2) Final Total Internal Energy     =   -0.88 kcal/mol
DOCKED: USER    (3) Torsional Free Energy           =   +1.49 kcal/mol
DOCKED: USER    (4) Unbound System's Energy  [=(2)] =   -0.88 kcal/mol
DOCKED: USER    
DOCKED: USER    
DOCKED: USER    NEWDPF move ligand.pdbqt
DOCKED: USER    NEWDPF about 0.710000 -0.190000 -0.071000
DOCKED: USER    NEWDPF tran0 21.751397 -17.570411 -0.098662
DOCKED: USER    NEWDPF quaternion0 -0.332038 0.622551 -0.687072 -0.173531
DOCKED: USER    NEWDPF axisangle0 -0.337153 0.632142 -0.697657 -160.013647
DOCKED: USER    NEWDPF quat0 -0.337153 0.632142 -0.697657 -160.013647
DOCKED: USER    NEWDPF dihe0 170.45 -178.88 -49.55 77.10 78.79 
DOCKED: USER  keepresnum = 1 
DOCKED: USER  
DOCKED: REMARK  Name = 
DOCKED: REMARK  5 active torsions:
DOCKED: REMARK  status: ('A' for Active; 'I' for Inactive)
DOCKED: REMARK    1  A    between atoms: O_1  and  N_2
DOCKED: REMARK    2  A    between atoms: C_3  and  C_4
DOCKED: REMARK    3  A    between atoms: C_4  and  C_5
DOCKED: REMARK    4  A    between atoms: C_5  and  C_6
DOCKED: REMARK    5  A    between atoms: C_6  and  C_7
DOCKED: REMARK                            x       y       z     vdW  Elec       q    Type
DOCKED: REMARK                         _______ _______ _______ _____ _____    ______ ____
DOCKED: USER                              x       y       z     vdW  Elec       q    Type
DOCKED: USER                           _______ _______ _______ _____ _____    ______ ____
DOCKED: ROOT
DOCKED: ATOM      1  C   UNL     1      22.132 -18.057  -0.229 -0.82 -0.00    +0.000 C 
DOCKED: ENDROOT
DOCKED: BRANCH   1   2
DOCKED: ATOM      2  C   UNL     1      21.799 -19.547  -0.344 -0.63 -0.00    +0.000 C 
DOCKED: BRANCH   2   4
DOCKED: ATOM      3  N   UNL     1      19.358 -19.955   0.233 -0.74 -0.00    +0.000 N 
DOCKED: ATOM      4  C   UNL     1      20.368 -19.734  -0.754 -0.88 -0.00    +0.000 C 
DOCKED: ATOM      5  O   UNL     1      20.064 -19.733  -1.976 -1.87 -0.00    +0.000 OA
DOCKED: ATOM      6  H   UNL     1      19.601 -19.963   1.187 -0.03 -0.00    +0.000 HD
DOCKED: BRANCH   3   7
DOCKED: ATOM      7  O   UNL     1      18.069 -20.152  -0.132 -0.76 -0.00    +0.000 OA
DOCKED: ATOM      8  H   UNL     1      17.969 -19.965  -1.079 -0.42 -0.00    +0.000 HD
DOCKED: ENDBRANCH   3   7
DOCKED: ENDBRANCH   2   4
DOCKED: ENDBRANCH   1   2
DOCKED: BRANCH   1   9
DOCKED: ATOM      9  C   UNL     1      22.933 -17.578  -1.445 -0.40 -0.00    +0.000 C 
DOCKED: BRANCH   9  10
DOCKED: ATOM     10  C   UNL     1      24.396 -17.474  -1.107 -0.65 -0.00    +0.000 A 
DOCKED: ATOM     11  C   UNL     1      25.006 -18.440  -0.292 -0.58 -0.00    +0.000 A 
DOCKED: ATOM     12  C   UNL     1      26.358 -18.324   0.047 -0.54 -0.00    +0.000 A 
DOCKED: ATOM     13  C   UNL     1      27.106 -17.239  -0.416 -0.44 -0.00    +0.000 A 
DOCKED: ATOM     14  C   UNL     1      26.502 -16.265  -1.218 -0.41 -0.00    +0.000 A 
DOCKED: ATOM     15  C   UNL     1      25.151 -16.377  -1.559 -0.53 -0.00    +0.000 A 
DOCKED: ENDBRANCH   9  10
DOCKED: ENDBRANCH   1   9
DOCKED: TORSDOF 5
DOCKED: TER
DOCKED: ENDMDL
________________________________________________________________________________


	BEGINNING GENETIC ALGORITHM DOCKING 73 of 100
Run: 73 Seed: 1021170651 1185079991 [ Run 73 of 100 GA/GALS ]
Beginning LAMARCKIAN GENETIC ALGORITHM (LGA), with a maximum of 2500000 energy evaluations.

Final-Value: -11.343


	FINAL GENETIC ALGORITHM DOCKED STATE
	_______________________________________________


Detailed state:  trans 24.456 -18.682 -1.483 quatxyzw 0.256061 -0.672946 -0.328139 -0.611475 center 0.710 -0.190 -0.071 ntor 5 169.6253 15.4706 38.3439 -106.9551 -39.1778
State:	 24.456 -18.682  -1.483   0.324 -0.850 -0.415 -104.608    169.63   15.47   38.34 -106.96  -39.18

DOCKED: MODEL       73
DOCKED: USER    Run = 73
DOCKED: USER    DPF = ligand_dock.biased.dpf
DOCKED: USER  
DOCKED: USER    Estimated Free Energy of Binding    =   -8.97 kcal/mol  [=(1)+(2)+(3)-(4)]
DOCKED: USER    Estimated Inhibition Constant, Ki   =  265.66 nM (nanomolar)  [Temperature = 298.15 K]
DOCKED: USER    
DOCKED: USER    (1) Final Intermolecular Energy     =  -10.46 kcal/mol
DOCKED: USER        vdW + Hbond + desolv Energy     =  -10.46 kcal/mol
DOCKED: USER        Electrostatic Energy            =   +0.00 kcal/mol
DOCKED: USER    (2) Final Total Internal Energy     =   -0.88 kcal/mol
DOCKED: USER    (3) Torsional Free Energy           =   +1.49 kcal/mol
DOCKED: USER    (4) Unbound System's Energy  [=(2)] =   -0.88 kcal/mol
DOCKED: USER    
DOCKED: USER    
DOCKED: USER    NEWDPF move ligand.pdbqt
DOCKED: USER    NEWDPF about 0.710000 -0.190000 -0.071000
DOCKED: USER    NEWDPF tran0 24.456231 -18.682304 -1.483398
DOCKED: USER    NEWDPF quaternion0 0.256061 -0.672946 -0.328139 -0.611475
DOCKED: USER    NEWDPF axisangle0 0.323610 -0.850470 -0.414702 -104.607598
DOCKED: USER    NEWDPF quat0 0.323610 -0.850470 -0.414702 -104.607598
DOCKED: USER    NEWDPF dihe0 169.63 15.47 38.34 -106.96 -39.18 
DOCKED: USER  keepresnum = 1 
DOCKED: USER  
DOCKED: REMARK  Name = 
DOCKED: REMARK  5 active torsions:
DOCKED: REMARK  status: ('A' for Active; 'I' for Inactive)
DOCKED: REMARK    1  A    between atoms: O_1  and  N_2
DOCKED: REMARK    2  A    between atoms: C_3  and  C_4
DOCKED: REMARK    3  A    between atoms: C_4  and  C_5
DOCKED: REMARK    4  A    between atoms: C_5  and  C_6
DOCKED: REMARK    5  A    between atoms: C_6  and  C_7
DOCKED: REMARK                            x       y       z     vdW  Elec       q    Type
DOCKED: REMARK                         _______ _______ _______ _____ _____    ______ ____
DOCKED: USER                              x       y       z     vdW  Elec       q    Type
DOCKED: USER                           _______ _______ _______ _____ _____    ______ ____
DOCKED: ROOT
DOCKED: ATOM      1  C   UNL     1      23.852 -18.521  -1.393 -0.75 -0.00    +0.000 C 
DOCKED: ENDROOT
DOCKED: BRANCH   1   2
DOCKED: ATOM      2  C   UNL     1      22.862 -19.020  -0.336 -0.75 -0.00    +0.000 C 
DOCKED: BRANCH   2   4
DOCKED: ATOM      3  N   UNL     1      20.724 -19.913  -1.378 -0.70 -0.00    +0.000 N 
DOCKED: ATOM      4  C   UNL     1      21.452 -18.823  -0.806 -0.86 -0.00    +0.000 C 
DOCKED: ATOM      5  O   UNL     1      20.922 -17.683  -0.730 -2.14 -0.00    +0.000 OA
DOCKED: ATOM      6  H   UNL     1      21.145 -20.800  -1.443 -0.11 -0.00    +0.000 HD
DOCKED: BRANCH   3   7
DOCKED: ATOM      7  O   UNL     1      19.460 -19.735  -1.830 -1.58 -0.00    +0.000 OA
DOCKED: ATOM      8  H   UNL     1      19.135 -18.865  -1.548 -0.56 -0.00    +0.000 HD
DOCKED: ENDBRANCH   3   7
DOCKED: ENDBRANCH   2   4
DOCKED: ENDBRANCH   1   2
DOCKED: BRANCH   1   9
DOCKED: ATOM      9  C   UNL     1      23.873 -16.989  -1.446 -0.60 -0.00    +0.000 C 
DOCKED: BRANCH   9  10
DOCKED: ATOM     10  C   UNL     1      25.278 -16.486  -1.644 -0.53 -0.00    +0.000 A 
DOCKED: ATOM     11  C   UNL     1      25.572 -15.593  -2.687 -0.48 -0.00    +0.000 A 
DOCKED: ATOM     12  C   UNL     1      26.883 -15.152  -2.890 -0.33 -0.00    +0.000 A 
DOCKED: ATOM     13  C   UNL     1      27.911 -15.608  -2.060 -0.24 -0.00    +0.000 A 
DOCKED: ATOM     14  C   UNL     1      27.630 -16.508  -1.028 -0.35 -0.00    +0.000 A 
DOCKED: ATOM     15  C   UNL     1      26.320 -16.952  -0.822 -0.49 -0.00    +0.000 A 
DOCKED: ENDBRANCH   9  10
DOCKED: ENDBRANCH   1   9
DOCKED: TORSDOF 5
DOCKED: TER
DOCKED: ENDMDL
________________________________________________________________________________


	BEGINNING GENETIC ALGORITHM DOCKING 74 of 100
Run: 74 Seed: 1178512699 2117165673 [ Run 74 of 100 GA/GALS ]
Beginning LAMARCKIAN GENETIC ALGORITHM (LGA), with a maximum of 2500000 energy evaluations.

Final-Value: -11.241


	FINAL GENETIC ALGORITHM DOCKED STATE
	_______________________________________________


Detailed state:  trans 23.100 -17.664 -0.451 quatxyzw -0.077364 -0.546298 0.815610 0.174221 center 0.710 -0.190 -0.071 ntor 5 -164.5882 115.7480 -153.2164 14.1912 -31.8407
State:	 23.100 -17.664  -0.451  -0.079 -0.555  0.828 159.933   -164.59  115.75 -153.22   14.19  -31.84

DOCKED: MODEL       74
DOCKED: USER    Run = 74
DOCKED: USER    DPF = ligand_dock.biased.dpf
DOCKED: USER  
DOCKED: USER    Estimated Free Energy of Binding    =   -8.93 kcal/mol  [=(1)+(2)+(3)-(4)]
DOCKED: USER    Estimated Inhibition Constant, Ki   =  284.77 nM (nanomolar)  [Temperature = 298.15 K]
DOCKED: USER    
DOCKED: USER    (1) Final Intermolecular Energy     =  -10.42 kcal/mol
DOCKED: USER        vdW + Hbond + desolv Energy     =  -10.42 kcal/mol
DOCKED: USER        Electrostatic Energy            =   +0.00 kcal/mol
DOCKED: USER    (2) Final Total Internal Energy     =   -0.82 kcal/mol
DOCKED: USER    (3) Torsional Free Energy           =   +1.49 kcal/mol
DOCKED: USER    (4) Unbound System's Energy  [=(2)] =   -0.82 kcal/mol
DOCKED: USER    
DOCKED: USER    
DOCKED: USER    NEWDPF move ligand.pdbqt
DOCKED: USER    NEWDPF about 0.710000 -0.190000 -0.071000
DOCKED: USER    NEWDPF tran0 23.099529 -17.664255 -0.450530
DOCKED: USER    NEWDPF quaternion0 -0.077364 -0.546298 0.815610 0.174221
DOCKED: USER    NEWDPF axisangle0 -0.078566 -0.554783 0.828277 159.933340
DOCKED: USER    NEWDPF quat0 -0.078566 -0.554783 0.828277 159.933340
DOCKED: USER    NEWDPF dihe0 -164.59 115.75 -153.22 14.19 -31.84 
DOCKED: USER  keepresnum = 1 
DOCKED: USER  
DOCKED: REMARK  Name = 
DOCKED: REMARK  5 active torsions:
DOCKED: REMARK  status: ('A' for Active; 'I' for Inactive)
DOCKED: REMARK    1  A    between atoms: O_1  and  N_2
DOCKED: REMARK    2  A    between atoms: C_3  and  C_4
DOCKED: REMARK    3  A    between atoms: C_4  and  C_5
DOCKED: REMARK    4  A    between atoms: C_5  and  C_6
DOCKED: REMARK    5  A    between atoms: C_6  and  C_7
DOCKED: REMARK                            x       y       z     vdW  Elec       q    Type
DOCKED: REMARK                         _______ _______ _______ _____ _____    ______ ____
DOCKED: USER                              x       y       z     vdW  Elec       q    Type
DOCKED: USER                           _______ _______ _______ _____ _____    ______ ____
DOCKED: ROOT
DOCKED: ATOM      1  C   UNL     1      23.180 -18.280  -0.334 -0.82 -0.00    +0.000 C 
DOCKED: ENDROOT
DOCKED: BRANCH   1   2
DOCKED: ATOM      2  C   UNL     1      22.291 -19.465  -0.724 -0.66 -0.00    +0.000 C 
DOCKED: BRANCH   2   4
DOCKED: ATOM      3  N   UNL     1      19.830 -20.081  -0.582 -0.76 -0.00    +0.000 N 
DOCKED: ATOM      4  C   UNL     1      20.844 -19.076  -0.664 -0.89 -0.00    +0.000 C 
DOCKED: ATOM      5  O   UNL     1      20.521 -17.860  -0.726 -2.30 -0.00    +0.000 OA
DOCKED: ATOM      6  H   UNL     1      20.087 -21.030  -0.542 -0.32 -0.00    +0.000 HD
DOCKED: BRANCH   3   7
DOCKED: ATOM      7  O   UNL     1      18.521 -19.738  -0.556 -0.78 -0.00    +0.000 OA
DOCKED: ATOM      8  H   UNL     1      18.422 -18.816  -0.842 -0.60 -0.00    +0.000 HD
DOCKED: ENDBRANCH   3   7
DOCKED: ENDBRANCH   2   4
DOCKED: ENDBRANCH   1   2
DOCKED: BRANCH   1   9
DOCKED: ATOM      9  C   UNL     1      24.640 -18.537  -0.723 -0.73 -0.00    +0.000 C 
DOCKED: BRANCH   9  10
DOCKED: ATOM     10  C   UNL     1      25.327 -17.246  -1.079 -0.58 -0.00    +0.000 A 
DOCKED: ATOM     11  C   UNL     1      24.909 -16.504  -2.196 -0.48 -0.00    +0.000 A 
DOCKED: ATOM     12  C   UNL     1      25.569 -15.322  -2.544 -0.45 -0.00    +0.000 A 
DOCKED: ATOM     13  C   UNL     1      26.656 -14.877  -1.786 -0.30 -0.00    +0.000 A 
DOCKED: ATOM     14  C   UNL     1      27.087 -15.617  -0.681 -0.32 -0.00    +0.000 A 
DOCKED: ATOM     15  C   UNL     1      26.430 -16.800  -0.330 -0.45 -0.00    +0.000 A 
DOCKED: ENDBRANCH   9  10
DOCKED: ENDBRANCH   1   9
DOCKED: TORSDOF 5
DOCKED: TER
DOCKED: ENDMDL
________________________________________________________________________________


	BEGINNING GENETIC ALGORITHM DOCKING 75 of 100
Run: 75 Seed: 2113445143 1308772625 [ Run 75 of 100 GA/GALS ]
Beginning LAMARCKIAN GENETIC ALGORITHM (LGA), with a maximum of 2500000 energy evaluations.

Final-Value: -11.708


	FINAL GENETIC ALGORITHM DOCKED STATE
	_______________________________________________


Detailed state:  trans 24.387 -18.501 -1.048 quatxyzw -0.202735 0.684589 0.469554 0.519381 center 0.710 -0.190 -0.071 ntor 5 160.4602 -4.7863 -169.0611 -73.3825 -0.0681
State:	 24.387 -18.501  -1.048  -0.237  0.801  0.549 117.419    160.46   -4.79 -169.06  -73.38   -0.07

DOCKED: MODEL       75
DOCKED: USER    Run = 75
DOCKED: USER    DPF = ligand_dock.biased.dpf
DOCKED: USER  
DOCKED: USER    Estimated Free Energy of Binding    =   -9.39 kcal/mol  [=(1)+(2)+(3)-(4)]
DOCKED: USER    Estimated Inhibition Constant, Ki   =  130.86 nM (nanomolar)  [Temperature = 298.15 K]
DOCKED: USER    
DOCKED: USER    (1) Final Intermolecular Energy     =  -10.88 kcal/mol
DOCKED: USER        vdW + Hbond + desolv Energy     =  -10.88 kcal/mol
DOCKED: USER        Electrostatic Energy            =   +0.00 kcal/mol
DOCKED: USER    (2) Final Total Internal Energy     =   -0.83 kcal/mol
DOCKED: USER    (3) Torsional Free Energy           =   +1.49 kcal/mol
DOCKED: USER    (4) Unbound System's Energy  [=(2)] =   -0.83 kcal/mol
DOCKED: USER    
DOCKED: USER    
DOCKED: USER    NEWDPF move ligand.pdbqt
DOCKED: USER    NEWDPF about 0.710000 -0.190000 -0.071000
DOCKED: USER    NEWDPF tran0 24.386762 -18.501047 -1.048035
DOCKED: USER    NEWDPF quaternion0 -0.202735 0.684589 0.469554 0.519381
DOCKED: USER    NEWDPF axisangle0 -0.237243 0.801117 0.549479 117.418557
DOCKED: USER    NEWDPF quat0 -0.237243 0.801117 0.549479 117.418557
DOCKED: USER    NEWDPF dihe0 160.46 -4.79 -169.06 -73.38 -0.07 
DOCKED: USER  keepresnum = 1 
DOCKED: USER  
DOCKED: REMARK  Name = 
DOCKED: REMARK  5 active torsions:
DOCKED: REMARK  status: ('A' for Active; 'I' for Inactive)
DOCKED: REMARK    1  A    between atoms: O_1  and  N_2
DOCKED: REMARK    2  A    between atoms: C_3  and  C_4
DOCKED: REMARK    3  A    between atoms: C_4  and  C_5
DOCKED: REMARK    4  A    between atoms: C_5  and  C_6
DOCKED: REMARK    5  A    between atoms: C_6  and  C_7
DOCKED: REMARK                            x       y       z     vdW  Elec       q    Type
DOCKED: REMARK                         _______ _______ _______ _____ _____    ______ ____
DOCKED: USER                              x       y       z     vdW  Elec       q    Type
DOCKED: USER                           _______ _______ _______ _____ _____    ______ ____
DOCKED: ROOT
DOCKED: ATOM      1  C   UNL     1      23.856 -18.177  -0.934 -0.80 -0.00    +0.000 C 
DOCKED: ENDROOT
DOCKED: BRANCH   1   2
DOCKED: ATOM      2  C   UNL     1      22.704 -18.506   0.019 -0.77 -0.00    +0.000 C 
DOCKED: BRANCH   2   4
DOCKED: ATOM      3  N   UNL     1      21.065 -19.716  -1.498 -0.72 -0.00    +0.000 N 
DOCKED: ATOM      4  C   UNL     1      21.405 -18.561  -0.728 -0.86 -0.00    +0.000 C 
DOCKED: ATOM      5  O   UNL     1      20.630 -17.568  -0.706 -2.14 +0.00    +0.000 OA
DOCKED: ATOM      6  H   UNL     1      21.678 -20.486  -1.520 -0.30 -0.00    +0.000 HD
DOCKED: BRANCH   3   7
DOCKED: ATOM      7  O   UNL     1      19.907 -19.761  -2.198 -1.89 -0.00    +0.000 OA
DOCKED: ATOM      8  H   UNL     1      19.290 -19.099  -1.846 -0.45 -0.00    +0.000 HD
DOCKED: ENDBRANCH   3   7
DOCKED: ENDBRANCH   2   4
DOCKED: ENDBRANCH   1   2
DOCKED: BRANCH   1   9
DOCKED: ATOM      9  C   UNL     1      24.344 -16.738  -0.731 -0.58 -0.00    +0.000 C 
DOCKED: BRANCH   9  10
DOCKED: ATOM     10  C   UNL     1      25.478 -16.428  -1.672 -0.51 -0.00    +0.000 A 
DOCKED: ATOM     11  C   UNL     1      26.784 -16.851  -1.373 -0.42 -0.00    +0.000 A 
DOCKED: ATOM     12  C   UNL     1      27.841 -16.533  -2.232 -0.27 -0.00    +0.000 A 
DOCKED: ATOM     13  C   UNL     1      27.604 -15.784  -3.387 -0.26 -0.00    +0.000 A 
DOCKED: ATOM     14  C   UNL     1      26.309 -15.347  -3.684 -0.47 -0.00    +0.000 A 
DOCKED: ATOM     15  C   UNL     1      25.250 -15.662  -2.828 -0.43 -0.00    +0.000 A 
DOCKED: ENDBRANCH   9  10
DOCKED: ENDBRANCH   1   9
DOCKED: TORSDOF 5
DOCKED: TER
DOCKED: ENDMDL
________________________________________________________________________________


	BEGINNING GENETIC ALGORITHM DOCKING 76 of 100
Run: 76 Seed: 1777714031 1799364236 [ Run 76 of 100 GA/GALS ]
Beginning LAMARCKIAN GENETIC ALGORITHM (LGA), with a maximum of 2500000 energy evaluations.

Final-Value: -11.522


	FINAL GENETIC ALGORITHM DOCKED STATE
	_______________________________________________


Detailed state:  trans 24.088 -17.855 -1.921 quatxyzw -0.206607 0.401277 0.729172 0.514391 center 0.710 -0.190 -0.071 ntor 5 170.9125 8.6790 168.3358 -43.0202 -45.4196
State:	 24.088 -17.855  -1.921  -0.241  0.468  0.850 118.087    170.91    8.68  168.34  -43.02  -45.42

DOCKED: MODEL       76
DOCKED: USER    Run = 76
DOCKED: USER    DPF = ligand_dock.biased.dpf
DOCKED: USER  
DOCKED: USER    Estimated Free Energy of Binding    =   -9.19 kcal/mol  [=(1)+(2)+(3)-(4)]
DOCKED: USER    Estimated Inhibition Constant, Ki   =  182.90 nM (nanomolar)  [Temperature = 298.15 K]
DOCKED: USER    
DOCKED: USER    (1) Final Intermolecular Energy     =  -10.68 kcal/mol
DOCKED: USER        vdW + Hbond + desolv Energy     =  -10.68 kcal/mol
DOCKED: USER        Electrostatic Energy            =   +0.00 kcal/mol
DOCKED: USER    (2) Final Total Internal Energy     =   -0.84 kcal/mol
DOCKED: USER    (3) Torsional Free Energy           =   +1.49 kcal/mol
DOCKED: USER    (4) Unbound System's Energy  [=(2)] =   -0.84 kcal/mol
DOCKED: USER    
DOCKED: USER    
DOCKED: USER    NEWDPF move ligand.pdbqt
DOCKED: USER    NEWDPF about 0.710000 -0.190000 -0.071000
DOCKED: USER    NEWDPF tran0 24.088230 -17.855360 -1.921395
DOCKED: USER    NEWDPF quaternion0 -0.206607 0.401277 0.729172 0.514391
DOCKED: USER    NEWDPF axisangle0 -0.240926 0.467931 0.850291 118.086505
DOCKED: USER    NEWDPF quat0 -0.240926 0.467931 0.850291 118.086505
DOCKED: USER    NEWDPF dihe0 170.91 8.68 168.34 -43.02 -45.42 
DOCKED: USER  keepresnum = 1 
DOCKED: USER  
DOCKED: REMARK  Name = 
DOCKED: REMARK  5 active torsions:
DOCKED: REMARK  status: ('A' for Active; 'I' for Inactive)
DOCKED: REMARK    1  A    between atoms: O_1  and  N_2
DOCKED: REMARK    2  A    between atoms: C_3  and  C_4
DOCKED: REMARK    3  A    between atoms: C_4  and  C_5
DOCKED: REMARK    4  A    between atoms: C_5  and  C_6
DOCKED: REMARK    5  A    between atoms: C_6  and  C_7
DOCKED: REMARK                            x       y       z     vdW  Elec       q    Type
DOCKED: REMARK                         _______ _______ _______ _____ _____    ______ ____
DOCKED: USER                              x       y       z     vdW  Elec       q    Type
DOCKED: USER                           _______ _______ _______ _____ _____    ______ ____
DOCKED: ROOT
DOCKED: ATOM      1  C   UNL     1      23.726 -17.658  -1.443 -0.72 -0.00    +0.000 C 
DOCKED: ENDROOT
DOCKED: BRANCH   1   2
DOCKED: ATOM      2  C   UNL     1      22.885 -18.477  -0.460 -0.83 -0.00    +0.000 C 
DOCKED: BRANCH   2   4
DOCKED: ATOM      3  N   UNL     1      21.102 -19.737  -1.759 -0.63 -0.00    +0.000 N 
DOCKED: ATOM      4  C   UNL     1      21.478 -18.612  -0.960 -0.82 -0.00    +0.000 C 
DOCKED: ATOM      5  O   UNL     1      20.635 -17.711  -0.706 -2.24 -0.00    +0.000 OA
DOCKED: ATOM      6  H   UNL     1      21.766 -20.434  -1.963 -0.46 -0.00    +0.000 HD
DOCKED: BRANCH   3   7
DOCKED: ATOM      7  O   UNL     1      19.840 -19.851  -2.238 -1.80 -0.00    +0.000 OA
DOCKED: ATOM      8  H   UNL     1      19.279 -19.170  -1.836 -0.46 -0.00    +0.000 HD
DOCKED: ENDBRANCH   3   7
DOCKED: ENDBRANCH   2   4
DOCKED: ENDBRANCH   1   2
DOCKED: BRANCH   1   9
DOCKED: ATOM      9  C   UNL     1      24.615 -16.654  -0.702 -0.55 -0.00    +0.000 C 
DOCKED: BRANCH   9  10
DOCKED: ATOM     10  C   UNL     1      26.014 -16.677  -1.257 -0.48 -0.00    +0.000 A 
DOCKED: ATOM     11  C   UNL     1      27.043 -17.334  -0.563 -0.46 -0.00    +0.000 A 
DOCKED: ATOM     12  C   UNL     1      28.348 -17.327  -1.064 -0.30 -0.00    +0.000 A 
DOCKED: ATOM     13  C   UNL     1      28.637 -16.657  -2.255 -0.25 -0.00    +0.000 A 
DOCKED: ATOM     14  C   UNL     1      27.622 -15.989  -2.946 -0.27 -0.00    +0.000 A 
DOCKED: ATOM     15  C   UNL     1      26.316 -15.993  -2.448 -0.42 -0.00    +0.000 A 
DOCKED: ENDBRANCH   9  10
DOCKED: ENDBRANCH   1   9
DOCKED: TORSDOF 5
DOCKED: TER
DOCKED: ENDMDL
________________________________________________________________________________


	BEGINNING GENETIC ALGORITHM DOCKING 77 of 100
Run: 77 Seed: 453952800 710763214 [ Run 77 of 100 GA/GALS ]
Beginning LAMARCKIAN GENETIC ALGORITHM (LGA), with a maximum of 2500000 energy evaluations.

Final-Value: -11.596


	FINAL GENETIC ALGORITHM DOCKED STATE
	_______________________________________________


Detailed state:  trans 23.686 -17.655 -2.081 quatxyzw -0.054232 0.134329 0.927556 0.344462 center 0.710 -0.190 -0.071 ntor 5 -180.0000 17.1374 37.6865 -1.3004 25.8326
State:	 23.686 -17.655  -2.081  -0.058  0.143  0.988 139.702   -180.00   17.14   37.69   -1.30   25.83

DOCKED: MODEL       77
DOCKED: USER    Run = 77
DOCKED: USER    DPF = ligand_dock.biased.dpf
DOCKED: USER  
DOCKED: USER    Estimated Free Energy of Binding    =   -9.25 kcal/mol  [=(1)+(2)+(3)-(4)]
DOCKED: USER    Estimated Inhibition Constant, Ki   =  164.61 nM (nanomolar)  [Temperature = 298.15 K]
DOCKED: USER    
DOCKED: USER    (1) Final Intermolecular Energy     =  -10.75 kcal/mol
DOCKED: USER        vdW + Hbond + desolv Energy     =  -10.75 kcal/mol
DOCKED: USER        Electrostatic Energy            =   +0.00 kcal/mol
DOCKED: USER    (2) Final Total Internal Energy     =   -0.85 kcal/mol
DOCKED: USER    (3) Torsional Free Energy           =   +1.49 kcal/mol
DOCKED: USER    (4) Unbound System's Energy  [=(2)] =   -0.85 kcal/mol
DOCKED: USER    
DOCKED: USER    
DOCKED: USER    NEWDPF move ligand.pdbqt
DOCKED: USER    NEWDPF about 0.710000 -0.190000 -0.071000
DOCKED: USER    NEWDPF tran0 23.685558 -17.655492 -2.081456
DOCKED: USER    NEWDPF quaternion0 -0.054232 0.134329 0.927556 0.344462
DOCKED: USER    NEWDPF axisangle0 -0.057767 0.143086 0.988023 139.702137
DOCKED: USER    NEWDPF quat0 -0.057767 0.143086 0.988023 139.702137
DOCKED: USER    NEWDPF dihe0 -180.00 17.14 37.69 -1.30 25.83 
DOCKED: USER  keepresnum = 1 
DOCKED: USER  
DOCKED: REMARK  Name = 
DOCKED: REMARK  5 active torsions:
DOCKED: REMARK  status: ('A' for Active; 'I' for Inactive)
DOCKED: REMARK    1  A    between atoms: O_1  and  N_2
DOCKED: REMARK    2  A    between atoms: C_3  and  C_4
DOCKED: REMARK    3  A    between atoms: C_4  and  C_5
DOCKED: REMARK    4  A    between atoms: C_5  and  C_6
DOCKED: REMARK    5  A    between atoms: C_6  and  C_7
DOCKED: REMARK                            x       y       z     vdW  Elec       q    Type
DOCKED: REMARK                         _______ _______ _______ _____ _____    ______ ____
DOCKED: USER                              x       y       z     vdW  Elec       q    Type
DOCKED: USER                           _______ _______ _______ _____ _____    ______ ____
DOCKED: ROOT
DOCKED: ATOM      1  C   UNL     1      23.645 -17.635  -1.451 -0.71 -0.00    +0.000 C 
DOCKED: ENDROOT
DOCKED: BRANCH   1   2
DOCKED: ATOM      2  C   UNL     1      22.838 -18.524  -0.501 -0.83 -0.00    +0.000 C 
DOCKED: BRANCH   2   4
DOCKED: ATOM      3  N   UNL     1      20.933 -19.738  -1.662 -0.72 -0.00    +0.000 N 
DOCKED: ATOM      4  C   UNL     1      21.407 -18.599  -0.941 -0.82 -0.00    +0.000 C 
DOCKED: ATOM      5  O   UNL     1      20.631 -17.634  -0.707 -2.19 +0.00    +0.000 OA
DOCKED: ATOM      6  H   UNL     1      21.545 -20.486  -1.851 -0.41 -0.00    +0.000 HD
DOCKED: BRANCH   3   7
DOCKED: ATOM      7  O   UNL     1      19.649 -19.799  -2.087 -1.66 -0.00    +0.000 OA
DOCKED: ATOM      8  H   UNL     1      19.182 -18.991  -1.823 -0.54 -0.00    +0.000 HD
DOCKED: ENDBRANCH   3   7
DOCKED: ENDBRANCH   2   4
DOCKED: ENDBRANCH   1   2
DOCKED: BRANCH   1   9
DOCKED: ATOM      9  C   UNL     1      25.104 -17.525  -0.996 -0.69 -0.00    +0.000 C 
DOCKED: BRANCH   9  10
DOCKED: ATOM     10  C   UNL     1      25.716 -16.241  -1.489 -0.48 -0.00    +0.000 A 
DOCKED: ATOM     11  C   UNL     1      26.339 -15.360  -0.589 -0.33 -0.00    +0.000 A 
DOCKED: ATOM     12  C   UNL     1      26.878 -14.153  -1.044 -0.24 -0.00    +0.000 A 
DOCKED: ATOM     13  C   UNL     1      26.792 -13.813  -2.397 -0.22 -0.00    +0.000 A 
DOCKED: ATOM     14  C   UNL     1      26.162 -14.678  -3.297 -0.42 -0.00    +0.000 A 
DOCKED: ATOM     15  C   UNL     1      25.621 -15.886  -2.846 -0.49 -0.00    +0.000 A 
DOCKED: ENDBRANCH   9  10
DOCKED: ENDBRANCH   1   9
DOCKED: TORSDOF 5
DOCKED: TER
DOCKED: ENDMDL
________________________________________________________________________________


	BEGINNING GENETIC ALGORITHM DOCKING 78 of 100
Run: 78 Seed: 513543034 432904910 [ Run 78 of 100 GA/GALS ]
Beginning LAMARCKIAN GENETIC ALGORITHM (LGA), with a maximum of 2500000 energy evaluations.

Final-Value: -11.359


	FINAL GENETIC ALGORITHM DOCKED STATE
	_______________________________________________


Detailed state:  trans 23.460 -17.497 0.228 quatxyzw 0.418275 -0.815814 0.394320 0.063291 center 0.710 -0.190 -0.071 ntor 5 -179.6920 96.2362 -99.6219 98.8758 71.2731
State:	 23.460 -17.497   0.228   0.419 -0.817  0.395 172.743   -179.69   96.24  -99.62   98.88   71.27

DOCKED: MODEL       78
DOCKED: USER    Run = 78
DOCKED: USER    DPF = ligand_dock.biased.dpf
DOCKED: USER  
DOCKED: USER    Estimated Free Energy of Binding    =   -8.96 kcal/mol  [=(1)+(2)+(3)-(4)]
DOCKED: USER    Estimated Inhibition Constant, Ki   =  271.95 nM (nanomolar)  [Temperature = 298.15 K]
DOCKED: USER    
DOCKED: USER    (1) Final Intermolecular Energy     =  -10.45 kcal/mol
DOCKED: USER        vdW + Hbond + desolv Energy     =  -10.45 kcal/mol
DOCKED: USER        Electrostatic Energy            =   +0.00 kcal/mol
DOCKED: USER    (2) Final Total Internal Energy     =   -0.91 kcal/mol
DOCKED: USER    (3) Torsional Free Energy           =   +1.49 kcal/mol
DOCKED: USER    (4) Unbound System's Energy  [=(2)] =   -0.91 kcal/mol
DOCKED: USER    
DOCKED: USER    
DOCKED: USER    NEWDPF move ligand.pdbqt
DOCKED: USER    NEWDPF about 0.710000 -0.190000 -0.071000
DOCKED: USER    NEWDPF tran0 23.460178 -17.497231 0.228300
DOCKED: USER    NEWDPF quaternion0 0.418275 -0.815814 0.394320 0.063291
DOCKED: USER    NEWDPF axisangle0 0.419115 -0.817453 0.395112 172.742525
DOCKED: USER    NEWDPF quat0 0.419115 -0.817453 0.395112 172.742525
DOCKED: USER    NEWDPF dihe0 -179.69 96.24 -99.62 98.88 71.27 
DOCKED: USER  keepresnum = 1 
DOCKED: USER  
DOCKED: REMARK  Name = 
DOCKED: REMARK  5 active torsions:
DOCKED: REMARK  status: ('A' for Active; 'I' for Inactive)
DOCKED: REMARK    1  A    between atoms: O_1  and  N_2
DOCKED: REMARK    2  A    between atoms: C_3  and  C_4
DOCKED: REMARK    3  A    between atoms: C_4  and  C_5
DOCKED: REMARK    4  A    between atoms: C_5  and  C_6
DOCKED: REMARK    5  A    between atoms: C_6  and  C_7
DOCKED: REMARK                            x       y       z     vdW  Elec       q    Type
DOCKED: REMARK                         _______ _______ _______ _____ _____    ______ ____
DOCKED: USER                              x       y       z     vdW  Elec       q    Type
DOCKED: USER                           _______ _______ _______ _____ _____    ______ ____
DOCKED: ROOT
DOCKED: ATOM      1  C   UNL     1      23.631 -17.822  -0.286 -0.74 -0.00    +0.000 C 
DOCKED: ENDROOT
DOCKED: BRANCH   1   2
DOCKED: ATOM      2  C   UNL     1      22.988 -19.067  -0.905 -0.80 -0.00    +0.000 C 
DOCKED: BRANCH   2   4
DOCKED: ATOM      3  N   UNL     1      20.699 -19.911  -1.612 -0.68 -0.00    +0.000 N 
DOCKED: ATOM      4  C   UNL     1      21.508 -18.876  -1.048 -0.84 -0.00    +0.000 C 
DOCKED: ATOM      5  O   UNL     1      20.983 -17.783  -0.706 -2.16 -0.00    +0.000 OA
DOCKED: ATOM      6  H   UNL     1      21.114 -20.760  -1.886 -0.26 -0.00    +0.000 HD
DOCKED: BRANCH   3   7
DOCKED: ATOM      7  O   UNL     1      19.366 -19.734  -1.771 -1.38 -0.00    +0.000 OA
DOCKED: ATOM      8  H   UNL     1      19.117 -18.850  -1.458 -0.57 -0.00    +0.000 HD
DOCKED: ENDBRANCH   3   7
DOCKED: ENDBRANCH   2   4
DOCKED: ENDBRANCH   1   2
DOCKED: BRANCH   1   9
DOCKED: ATOM      9  C   UNL     1      23.857 -16.737  -1.344 -0.53 -0.00    +0.000 C 
DOCKED: BRANCH   9  10
DOCKED: ATOM     10  C   UNL     1      25.325 -16.591  -1.646 -0.53 -0.00    +0.000 A 
DOCKED: ATOM     11  C   UNL     1      26.282 -17.222  -0.834 -0.51 -0.00    +0.000 A 
DOCKED: ATOM     12  C   UNL     1      27.645 -17.058  -1.097 -0.38 -0.00    +0.000 A 
DOCKED: ATOM     13  C   UNL     1      28.063 -16.258  -2.163 -0.27 -0.00    +0.000 A 
DOCKED: ATOM     14  C   UNL     1      27.117 -15.616  -2.968 -0.33 -0.00    +0.000 A 
DOCKED: ATOM     15  C   UNL     1      25.752 -15.776  -2.709 -0.47 -0.00    +0.000 A 
DOCKED: ENDBRANCH   9  10
DOCKED: ENDBRANCH   1   9
DOCKED: TORSDOF 5
DOCKED: TER
DOCKED: ENDMDL
________________________________________________________________________________


	BEGINNING GENETIC ALGORITHM DOCKING 79 of 100
Run: 79 Seed: 882258970 1413961230 [ Run 79 of 100 GA/GALS ]
Beginning LAMARCKIAN GENETIC ALGORITHM (LGA), with a maximum of 2500000 energy evaluations.

Final-Value: -11.735


	FINAL GENETIC ALGORITHM DOCKED STATE
	_______________________________________________


Detailed state:  trans 23.271 -16.754 -1.095 quatxyzw -0.189836 0.450981 -0.863811 -0.120037 center 0.710 -0.190 -0.071 ntor 5 173.8227 44.9282 -27.9419 62.1640 6.9036
State:	 23.271 -16.754  -1.095  -0.191  0.454 -0.870 -166.212    173.82   44.93  -27.94   62.16    6.90

DOCKED: MODEL       79
DOCKED: USER    Run = 79
DOCKED: USER    DPF = ligand_dock.biased.dpf
DOCKED: USER  
DOCKED: USER    Estimated Free Energy of Binding    =   -9.38 kcal/mol  [=(1)+(2)+(3)-(4)]
DOCKED: USER    Estimated Inhibition Constant, Ki   =  132.70 nM (nanomolar)  [Temperature = 298.15 K]
DOCKED: USER    
DOCKED: USER    (1) Final Intermolecular Energy     =  -10.87 kcal/mol
DOCKED: USER        vdW + Hbond + desolv Energy     =  -10.87 kcal/mol
DOCKED: USER        Electrostatic Energy            =   +0.00 kcal/mol
DOCKED: USER    (2) Final Total Internal Energy     =   -0.86 kcal/mol
DOCKED: USER    (3) Torsional Free Energy           =   +1.49 kcal/mol
DOCKED: USER    (4) Unbound System's Energy  [=(2)] =   -0.86 kcal/mol
DOCKED: USER    
DOCKED: USER    
DOCKED: USER    NEWDPF move ligand.pdbqt
DOCKED: USER    NEWDPF about 0.710000 -0.190000 -0.071000
DOCKED: USER    NEWDPF tran0 23.270635 -16.754164 -1.094855
DOCKED: USER    NEWDPF quaternion0 -0.189836 0.450981 -0.863811 -0.120037
DOCKED: USER    NEWDPF axisangle0 -0.191219 0.454266 -0.870102 -166.211528
DOCKED: USER    NEWDPF quat0 -0.191219 0.454266 -0.870102 -166.211528
DOCKED: USER    NEWDPF dihe0 173.82 44.93 -27.94 62.16 6.90 
DOCKED: USER  keepresnum = 1 
DOCKED: USER  
DOCKED: REMARK  Name = 
DOCKED: REMARK  5 active torsions:
DOCKED: REMARK  status: ('A' for Active; 'I' for Inactive)
DOCKED: REMARK    1  A    between atoms: O_1  and  N_2
DOCKED: REMARK    2  A    between atoms: C_3  and  C_4
DOCKED: REMARK    3  A    between atoms: C_4  and  C_5
DOCKED: REMARK    4  A    between atoms: C_5  and  C_6
DOCKED: REMARK    5  A    between atoms: C_6  and  C_7
DOCKED: REMARK                            x       y       z     vdW  Elec       q    Type
DOCKED: REMARK                         _______ _______ _______ _____ _____    ______ ____
DOCKED: USER                              x       y       z     vdW  Elec       q    Type
DOCKED: USER                           _______ _______ _______ _____ _____    ______ ____
DOCKED: ROOT
DOCKED: ATOM      1  C   UNL     1      23.534 -17.290  -0.887 -0.72 -0.00    +0.000 C 
DOCKED: ENDROOT
DOCKED: BRANCH   1   2
DOCKED: ATOM      2  C   UNL     1      22.867 -18.616  -0.511 -0.83 -0.00    +0.000 C 
DOCKED: BRANCH   2   4
DOCKED: ATOM      3  N   UNL     1      20.951 -19.729  -1.753 -0.71 -0.00    +0.000 N 
DOCKED: ATOM      4  C   UNL     1      21.441 -18.635  -0.974 -0.82 -0.00    +0.000 C 
DOCKED: ATOM      5  O   UNL     1      20.685 -17.664  -0.707 -2.20 +0.00    +0.000 OA
DOCKED: ATOM      6  H   UNL     1      21.547 -20.482  -1.968 -0.45 -0.00    +0.000 HD
DOCKED: BRANCH   3   7
DOCKED: ATOM      7  O   UNL     1      19.672 -19.739  -2.198 -1.68 -0.00    +0.000 OA
DOCKED: ATOM      8  H   UNL     1      19.193 -18.983  -1.823 -0.53 -0.00    +0.000 HD
DOCKED: ENDBRANCH   3   7
DOCKED: ENDBRANCH   2   4
DOCKED: ENDBRANCH   1   2
DOCKED: BRANCH   1   9
DOCKED: ATOM      9  C   UNL     1      24.707 -17.516  -1.846 -0.66 -0.00    +0.000 C 
DOCKED: BRANCH   9  10
DOCKED: ATOM     10  C   UNL     1      25.457 -16.232  -2.077 -0.50 -0.00    +0.000 A 
DOCKED: ATOM     11  C   UNL     1      26.067 -15.564  -1.002 -0.38 -0.00    +0.000 A 
DOCKED: ATOM     12  C   UNL     1      26.735 -14.354  -1.213 -0.26 -0.00    +0.000 A 
DOCKED: ATOM     13  C   UNL     1      26.791 -13.798  -2.494 -0.22 -0.00    +0.000 A 
DOCKED: ATOM     14  C   UNL     1      26.175 -14.450  -3.566 -0.42 -0.00    +0.000 A 
DOCKED: ATOM     15  C   UNL     1      25.505 -15.659  -3.360 -0.49 -0.00    +0.000 A 
DOCKED: ENDBRANCH   9  10
DOCKED: ENDBRANCH   1   9
DOCKED: TORSDOF 5
DOCKED: TER
DOCKED: ENDMDL
________________________________________________________________________________


	BEGINNING GENETIC ALGORITHM DOCKING 80 of 100
Run: 80 Seed: 639914384 1887746185 [ Run 80 of 100 GA/GALS ]
Beginning LAMARCKIAN GENETIC ALGORITHM (LGA), with a maximum of 2500000 energy evaluations.

Final-Value: -11.217


	FINAL GENETIC ALGORITHM DOCKED STATE
	_______________________________________________


Detailed state:  trans 22.967 -17.517 -0.470 quatxyzw 0.195532 -0.644086 0.737306 0.057444 center 0.710 -0.190 -0.071 ntor 5 -174.4614 99.4935 159.2158 57.0715 26.0614
State:	 22.967 -17.517  -0.470   0.196 -0.645  0.739 173.414   -174.46   99.49  159.22   57.07   26.06

DOCKED: MODEL       80
DOCKED: USER    Run = 80
DOCKED: USER    DPF = ligand_dock.biased.dpf
DOCKED: USER  
DOCKED: USER    Estimated Free Energy of Binding    =   -8.89 kcal/mol  [=(1)+(2)+(3)-(4)]
DOCKED: USER    Estimated Inhibition Constant, Ki   =  306.27 nM (nanomolar)  [Temperature = 298.15 K]
DOCKED: USER    
DOCKED: USER    (1) Final Intermolecular Energy     =  -10.38 kcal/mol
DOCKED: USER        vdW + Hbond + desolv Energy     =  -10.38 kcal/mol
DOCKED: USER        Electrostatic Energy            =   +0.00 kcal/mol
DOCKED: USER    (2) Final Total Internal Energy     =   -0.84 kcal/mol
DOCKED: USER    (3) Torsional Free Energy           =   +1.49 kcal/mol
DOCKED: USER    (4) Unbound System's Energy  [=(2)] =   -0.84 kcal/mol
DOCKED: USER    
DOCKED: USER    
DOCKED: USER    NEWDPF move ligand.pdbqt
DOCKED: USER    NEWDPF about 0.710000 -0.190000 -0.071000
DOCKED: USER    NEWDPF tran0 22.967208 -17.516666 -0.469974
DOCKED: USER    NEWDPF quaternion0 0.195532 -0.644086 0.737306 0.057444
DOCKED: USER    NEWDPF axisangle0 0.195855 -0.645151 0.738526 173.413821
DOCKED: USER    NEWDPF quat0 0.195855 -0.645151 0.738526 173.413821
DOCKED: USER    NEWDPF dihe0 -174.46 99.49 159.22 57.07 26.06 
DOCKED: USER  keepresnum = 1 
DOCKED: USER  
DOCKED: REMARK  Name = 
DOCKED: REMARK  5 active torsions:
DOCKED: REMARK  status: ('A' for Active; 'I' for Inactive)
DOCKED: REMARK    1  A    between atoms: O_1  and  N_2
DOCKED: REMARK    2  A    between atoms: C_3  and  C_4
DOCKED: REMARK    3  A    between atoms: C_4  and  C_5
DOCKED: REMARK    4  A    between atoms: C_5  and  C_6
DOCKED: REMARK    5  A    between atoms: C_6  and  C_7
DOCKED: REMARK                            x       y       z     vdW  Elec       q    Type
DOCKED: REMARK                         _______ _______ _______ _____ _____    ______ ____
DOCKED: USER                              x       y       z     vdW  Elec       q    Type
DOCKED: USER                           _______ _______ _______ _____ _____    ______ ____
DOCKED: ROOT
DOCKED: ATOM      1  C   UNL     1      23.156 -18.115  -0.546 -0.82 -0.00    +0.000 C 
DOCKED: ENDROOT
DOCKED: BRANCH   1   2
DOCKED: ATOM      2  C   UNL     1      22.319 -19.395  -0.613 -0.71 -0.00    +0.000 C 
DOCKED: BRANCH   2   4
DOCKED: ATOM      3  N   UNL     1      19.881 -20.110  -0.646 -0.76 -0.00    +0.000 N 
DOCKED: ATOM      4  C   UNL     1      20.857 -19.065  -0.645 -0.89 -0.00    +0.000 C 
DOCKED: ATOM      5  O   UNL     1      20.490 -17.861  -0.711 -2.30 -0.00    +0.000 OA
DOCKED: ATOM      6  H   UNL     1      20.172 -21.049  -0.603 -0.32 -0.00    +0.000 HD
DOCKED: BRANCH   3   7
DOCKED: ATOM      7  O   UNL     1      18.560 -19.818  -0.703 -0.78 -0.00    +0.000 OA
DOCKED: ATOM      8  H   UNL     1      18.444 -18.863  -0.828 -0.59 -0.00    +0.000 HD
DOCKED: ENDBRANCH   3   7
DOCKED: ENDBRANCH   2   4
DOCKED: ENDBRANCH   1   2
DOCKED: BRANCH   1   9
DOCKED: ATOM      9  C   UNL     1      24.142 -18.040  -1.717 -0.67 -0.00    +0.000 C 
DOCKED: BRANCH   9  10
DOCKED: ATOM     10  C   UNL     1      25.335 -17.199  -1.351 -0.57 -0.00    +0.000 A 
DOCKED: ATOM     11  C   UNL     1      25.548 -15.959  -1.976 -0.48 -0.00    +0.000 A 
DOCKED: ATOM     12  C   UNL     1      26.674 -15.194  -1.657 -0.32 -0.00    +0.000 A 
DOCKED: ATOM     13  C   UNL     1      27.599 -15.664  -0.722 -0.29 -0.00    +0.000 A 
DOCKED: ATOM     14  C   UNL     1      27.401 -16.903  -0.105 -0.35 -0.00    +0.000 A 
DOCKED: ATOM     15  C   UNL     1      26.277 -17.672  -0.421 -0.55 -0.00    +0.000 A 
DOCKED: ENDBRANCH   9  10
DOCKED: ENDBRANCH   1   9
DOCKED: TORSDOF 5
DOCKED: TER
DOCKED: ENDMDL
________________________________________________________________________________


	BEGINNING GENETIC ALGORITHM DOCKING 81 of 100
Run: 81 Seed: 807868036 1869623858 [ Run 81 of 100 GA/GALS ]
Beginning LAMARCKIAN GENETIC ALGORITHM (LGA), with a maximum of 2500000 energy evaluations.

Final-Value: -11.635


	FINAL GENETIC ALGORITHM DOCKED STATE
	_______________________________________________


Detailed state:  trans 23.299 -16.891 -1.781 quatxyzw 0.047255 -0.221732 0.932480 0.281216 center 0.710 -0.190 -0.071 ntor 5 178.6762 37.3506 2.9480 24.6231 -3.1389
State:	 23.299 -16.891  -1.781   0.049 -0.231  0.972 147.334    178.68   37.35    2.95   24.62   -3.14

DOCKED: MODEL       81
DOCKED: USER    Run = 81
DOCKED: USER    DPF = ligand_dock.biased.dpf
DOCKED: USER  
DOCKED: USER    Estimated Free Energy of Binding    =   -9.30 kcal/mol  [=(1)+(2)+(3)-(4)]
DOCKED: USER    Estimated Inhibition Constant, Ki   =  152.75 nM (nanomolar)  [Temperature = 298.15 K]
DOCKED: USER    
DOCKED: USER    (1) Final Intermolecular Energy     =  -10.79 kcal/mol
DOCKED: USER        vdW + Hbond + desolv Energy     =  -10.79 kcal/mol
DOCKED: USER        Electrostatic Energy            =   +0.00 kcal/mol
DOCKED: USER    (2) Final Total Internal Energy     =   -0.84 kcal/mol
DOCKED: USER    (3) Torsional Free Energy           =   +1.49 kcal/mol
DOCKED: USER    (4) Unbound System's Energy  [=(2)] =   -0.84 kcal/mol
DOCKED: USER    
DOCKED: USER    
DOCKED: USER    NEWDPF move ligand.pdbqt
DOCKED: USER    NEWDPF about 0.710000 -0.190000 -0.071000
DOCKED: USER    NEWDPF tran0 23.298811 -16.891461 -1.781297
DOCKED: USER    NEWDPF quaternion0 0.047255 -0.221732 0.932480 0.281216
DOCKED: USER    NEWDPF axisangle0 0.049242 -0.231056 0.971694 147.334380
DOCKED: USER    NEWDPF quat0 0.049242 -0.231056 0.971694 147.334380
DOCKED: USER    NEWDPF dihe0 178.68 37.35 2.95 24.62 -3.14 
DOCKED: USER  keepresnum = 1 
DOCKED: USER  
DOCKED: REMARK  Name = 
DOCKED: REMARK  5 active torsions:
DOCKED: REMARK  status: ('A' for Active; 'I' for Inactive)
DOCKED: REMARK    1  A    between atoms: O_1  and  N_2
DOCKED: REMARK    2  A    between atoms: C_3  and  C_4
DOCKED: REMARK    3  A    between atoms: C_4  and  C_5
DOCKED: REMARK    4  A    between atoms: C_5  and  C_6
DOCKED: REMARK    5  A    between atoms: C_6  and  C_7
DOCKED: REMARK                            x       y       z     vdW  Elec       q    Type
DOCKED: REMARK                         _______ _______ _______ _____ _____    ______ ____
DOCKED: USER                              x       y       z     vdW  Elec       q    Type
DOCKED: USER                           _______ _______ _______ _____ _____    ______ ____
DOCKED: ROOT
DOCKED: ATOM      1  C   UNL     1      23.490 -17.240  -1.291 -0.62 -0.00    +0.000 C 
DOCKED: ENDROOT
DOCKED: BRANCH   1   2
DOCKED: ATOM      2  C   UNL     1      22.895 -18.535  -0.729 -0.84 -0.00    +0.000 C 
DOCKED: BRANCH   2   4
DOCKED: ATOM      3  N   UNL     1      20.943 -19.733  -1.830 -0.70 -0.00    +0.000 N 
DOCKED: ATOM      4  C   UNL     1      21.437 -18.630  -1.066 -0.80 -0.00    +0.000 C 
DOCKED: ATOM      5  O   UNL     1      20.652 -17.712  -0.706 -2.24 -0.00    +0.000 OA
DOCKED: ATOM      6  H   UNL     1      21.562 -20.443  -2.116 -0.49 -0.00    +0.000 HD
DOCKED: BRANCH   3   7
DOCKED: ATOM      7  O   UNL     1      19.633 -19.810  -2.161 -1.62 -0.00    +0.000 OA
DOCKED: ATOM      8  H   UNL     1      19.159 -19.050  -1.788 -0.54 -0.00    +0.000 HD
DOCKED: ENDBRANCH   3   7
DOCKED: ENDBRANCH   2   4
DOCKED: ENDBRANCH   1   2
DOCKED: BRANCH   1   9
DOCKED: ATOM      9  C   UNL     1      25.001 -17.381  -1.511 -0.67 -0.00    +0.000 C 
DOCKED: BRANCH   9  10
DOCKED: ATOM     10  C   UNL     1      25.562 -16.131  -2.135 -0.49 -0.00    +0.000 A 
DOCKED: ATOM     11  C   UNL     1      26.063 -15.098  -1.327 -0.35 -0.00    +0.000 A 
DOCKED: ATOM     12  C   UNL     1      26.554 -13.924  -1.907 -0.21 -0.00    +0.000 A 
DOCKED: ATOM     13  C   UNL     1      26.540 -13.770  -3.296 -0.30 -0.00    +0.000 A 
DOCKED: ATOM     14  C   UNL     1      26.031 -14.789  -4.107 -0.50 -0.00    +0.000 A 
DOCKED: ATOM     15  C   UNL     1      25.538 -15.964  -3.531 -0.42 -0.00    +0.000 A 
DOCKED: ENDBRANCH   9  10
DOCKED: ENDBRANCH   1   9
DOCKED: TORSDOF 5
DOCKED: TER
DOCKED: ENDMDL
________________________________________________________________________________


	BEGINNING GENETIC ALGORITHM DOCKING 82 of 100
Run: 82 Seed: 710397283 957204298 [ Run 82 of 100 GA/GALS ]
Beginning LAMARCKIAN GENETIC ALGORITHM (LGA), with a maximum of 2500000 energy evaluations.

Final-Value: -11.475


	FINAL GENETIC ALGORITHM DOCKED STATE
	_______________________________________________


Detailed state:  trans 23.216 -17.601 -1.296 quatxyzw -0.287063 -0.162466 0.882621 0.334934 center 0.710 -0.190 -0.071 ntor 5 -173.7786 99.9311 99.6454 -38.3072 -43.9240
State:	 23.216 -17.601  -1.296  -0.305 -0.172  0.937 140.863   -173.78   99.93   99.65  -38.31  -43.92

DOCKED: MODEL       82
DOCKED: USER    Run = 82
DOCKED: USER    DPF = ligand_dock.biased.dpf
DOCKED: USER  
DOCKED: USER    Estimated Free Energy of Binding    =   -9.14 kcal/mol  [=(1)+(2)+(3)-(4)]
DOCKED: USER    Estimated Inhibition Constant, Ki   =  198.13 nM (nanomolar)  [Temperature = 298.15 K]
DOCKED: USER    
DOCKED: USER    (1) Final Intermolecular Energy     =  -10.64 kcal/mol
DOCKED: USER        vdW + Hbond + desolv Energy     =  -10.64 kcal/mol
DOCKED: USER        Electrostatic Energy            =   +0.00 kcal/mol
DOCKED: USER    (2) Final Total Internal Energy     =   -0.84 kcal/mol
DOCKED: USER    (3) Torsional Free Energy           =   +1.49 kcal/mol
DOCKED: USER    (4) Unbound System's Energy  [=(2)] =   -0.84 kcal/mol
DOCKED: USER    
DOCKED: USER    
DOCKED: USER    NEWDPF move ligand.pdbqt
DOCKED: USER    NEWDPF about 0.710000 -0.190000 -0.071000
DOCKED: USER    NEWDPF tran0 23.215558 -17.600619 -1.296014
DOCKED: USER    NEWDPF quaternion0 -0.287063 -0.162466 0.882621 0.334934
DOCKED: USER    NEWDPF axisangle0 -0.304660 -0.172425 0.936724 140.862994
DOCKED: USER    NEWDPF quat0 -0.304660 -0.172425 0.936724 140.862994
DOCKED: USER    NEWDPF dihe0 -173.78 99.93 99.65 -38.31 -43.92 
DOCKED: USER  keepresnum = 1 
DOCKED: USER  
DOCKED: REMARK  Name = 
DOCKED: REMARK  5 active torsions:
DOCKED: REMARK  status: ('A' for Active; 'I' for Inactive)
DOCKED: REMARK    1  A    between atoms: O_1  and  N_2
DOCKED: REMARK    2  A    between atoms: C_3  and  C_4
DOCKED: REMARK    3  A    between atoms: C_4  and  C_5
DOCKED: REMARK    4  A    between atoms: C_5  and  C_6
DOCKED: REMARK    5  A    between atoms: C_6  and  C_7
DOCKED: REMARK                            x       y       z     vdW  Elec       q    Type
DOCKED: REMARK                         _______ _______ _______ _____ _____    ______ ____
DOCKED: USER                              x       y       z     vdW  Elec       q    Type
DOCKED: USER                           _______ _______ _______ _____ _____    ______ ____
DOCKED: ROOT
DOCKED: ATOM      1  C   UNL     1      23.059 -18.003  -0.835 -0.81 -0.00    +0.000 C 
DOCKED: ENDROOT
DOCKED: BRANCH   1   2
DOCKED: ATOM      2  C   UNL     1      22.270 -19.313  -0.916 -0.75 -0.00    +0.000 C 
DOCKED: BRANCH   2   4
DOCKED: ATOM      3  N   UNL     1      19.873 -20.137  -0.751 -0.73 -0.00    +0.000 N 
DOCKED: ATOM      4  C   UNL     1      20.801 -19.049  -0.778 -0.89 -0.00    +0.000 C 
DOCKED: ATOM      5  O   UNL     1      20.382 -17.863  -0.724 -2.25 -0.00    +0.000 OA
DOCKED: ATOM      6  H   UNL     1      20.204 -21.062  -0.803 -0.40 -0.00    +0.000 HD
DOCKED: BRANCH   3   7
DOCKED: ATOM      7  O   UNL     1      18.542 -19.904  -0.655 -0.80 -0.00    +0.000 OA
DOCKED: ATOM      8  H   UNL     1      18.375 -18.950  -0.713 -0.60 -0.00    +0.000 HD
DOCKED: ENDBRANCH   3   7
DOCKED: ENDBRANCH   2   4
DOCKED: ENDBRANCH   1   2
DOCKED: BRANCH   1   9
DOCKED: ATOM      9  C   UNL     1      24.367 -18.196  -0.060 -0.70 -0.00    +0.000 C 
DOCKED: BRANCH   9  10
DOCKED: ATOM     10  C   UNL     1      25.506 -17.509  -0.766 -0.59 -0.00    +0.000 A 
DOCKED: ATOM     11  C   UNL     1      26.828 -17.699  -0.332 -0.50 -0.00    +0.000 A 
DOCKED: ATOM     12  C   UNL     1      27.881 -17.035  -0.969 -0.36 -0.00    +0.000 A 
DOCKED: ATOM     13  C   UNL     1      27.621 -16.170  -2.035 -0.29 -0.00    +0.000 A 
DOCKED: ATOM     14  C   UNL     1      26.306 -15.964  -2.464 -0.42 -0.00    +0.000 A 
DOCKED: ATOM     15  C   UNL     1      25.250 -16.626  -1.830 -0.54 -0.00    +0.000 A 
DOCKED: ENDBRANCH   9  10
DOCKED: ENDBRANCH   1   9
DOCKED: TORSDOF 5
DOCKED: TER
DOCKED: ENDMDL
________________________________________________________________________________


	BEGINNING GENETIC ALGORITHM DOCKING 83 of 100
Run: 83 Seed: 1030032125 656118845 [ Run 83 of 100 GA/GALS ]
Beginning LAMARCKIAN GENETIC ALGORITHM (LGA), with a maximum of 2500000 energy evaluations.

Final-Value: -11.432


	FINAL GENETIC ALGORITHM DOCKED STATE
	_______________________________________________


Detailed state:  trans 23.364 -17.059 -1.598 quatxyzw 0.085246 -0.216699 0.956240 0.177146 center 0.710 -0.190 -0.071 ntor 5 -180.0000 38.4659 -160.5796 37.8858 20.9662
State:	 23.364 -17.059  -1.598   0.087 -0.220  0.972 159.593   -180.00   38.47 -160.58   37.89   20.97

DOCKED: MODEL       83
DOCKED: USER    Run = 83
DOCKED: USER    DPF = ligand_dock.biased.dpf
DOCKED: USER  
DOCKED: USER    Estimated Free Energy of Binding    =   -9.10 kcal/mol  [=(1)+(2)+(3)-(4)]
DOCKED: USER    Estimated Inhibition Constant, Ki   =  214.01 nM (nanomolar)  [Temperature = 298.15 K]
DOCKED: USER    
DOCKED: USER    (1) Final Intermolecular Energy     =  -10.59 kcal/mol
DOCKED: USER        vdW + Hbond + desolv Energy     =  -10.59 kcal/mol
DOCKED: USER        Electrostatic Energy            =   +0.00 kcal/mol
DOCKED: USER    (2) Final Total Internal Energy     =   -0.84 kcal/mol
DOCKED: USER    (3) Torsional Free Energy           =   +1.49 kcal/mol
DOCKED: USER    (4) Unbound System's Energy  [=(2)] =   -0.84 kcal/mol
DOCKED: USER    
DOCKED: USER    
DOCKED: USER    NEWDPF move ligand.pdbqt
DOCKED: USER    NEWDPF about 0.710000 -0.190000 -0.071000
DOCKED: USER    NEWDPF tran0 23.364405 -17.058628 -1.597652
DOCKED: USER    NEWDPF quaternion0 0.085246 -0.216699 0.956240 0.177146
DOCKED: USER    NEWDPF axisangle0 0.086616 -0.220181 0.971606 159.592812
DOCKED: USER    NEWDPF quat0 0.086616 -0.220181 0.971606 159.592812
DOCKED: USER    NEWDPF dihe0 -180.00 38.47 -160.58 37.89 20.97 
DOCKED: USER  keepresnum = 1 
DOCKED: USER  
DOCKED: REMARK  Name = 
DOCKED: REMARK  5 active torsions:
DOCKED: REMARK  status: ('A' for Active; 'I' for Inactive)
DOCKED: REMARK    1  A    between atoms: O_1  and  N_2
DOCKED: REMARK    2  A    between atoms: C_3  and  C_4
DOCKED: REMARK    3  A    between atoms: C_4  and  C_5
DOCKED: REMARK    4  A    between atoms: C_5  and  C_6
DOCKED: REMARK    5  A    between atoms: C_6  and  C_7
DOCKED: REMARK                            x       y       z     vdW  Elec       q    Type
DOCKED: REMARK                         _______ _______ _______ _____ _____    ______ ____
DOCKED: USER                              x       y       z     vdW  Elec       q    Type
DOCKED: USER                           _______ _______ _______ _____ _____    ______ ____
DOCKED: ROOT
DOCKED: ATOM      1  C   UNL     1      23.543 -17.418  -1.110 -0.73 -0.00    +0.000 C 
DOCKED: ENDROOT
DOCKED: BRANCH   1   2
DOCKED: ATOM      2  C   UNL     1      22.787 -18.550  -0.409 -0.83 -0.00    +0.000 C 
DOCKED: BRANCH   2   4
DOCKED: ATOM      3  N   UNL     1      20.794 -19.737  -1.447 -0.79 -0.00    +0.000 N 
DOCKED: ATOM      4  C   UNL     1      21.351 -18.567  -0.842 -0.83 -0.00    +0.000 C 
DOCKED: ATOM      5  O   UNL     1      20.646 -17.532  -0.706 -2.12 +0.00    +0.000 OA
DOCKED: ATOM      6  H   UNL     1      21.351 -20.540  -1.560 -0.28 -0.00    +0.000 HD
DOCKED: BRANCH   3   7
DOCKED: ATOM      7  O   UNL     1      19.507 -19.749  -1.866 -1.65 -0.00    +0.000 OA
DOCKED: ATOM      8  H   UNL     1      19.099 -18.887  -1.684 -0.55 -0.00    +0.000 HD
DOCKED: ENDBRANCH   3   7
DOCKED: ENDBRANCH   2   4
DOCKED: ENDBRANCH   1   2
DOCKED: BRANCH   1   9
DOCKED: ATOM      9  C   UNL     1      24.965 -17.854  -1.480 -0.65 -0.00    +0.000 C 
DOCKED: BRANCH   9  10
DOCKED: ATOM     10  C   UNL     1      25.850 -16.653  -1.685 -0.50 -0.00    +0.000 A 
DOCKED: ATOM     11  C   UNL     1      25.690 -15.840  -2.819 -0.48 -0.00    +0.000 A 
DOCKED: ATOM     12  C   UNL     1      26.534 -14.744  -3.024 -0.35 -0.00    +0.000 A 
DOCKED: ATOM     13  C   UNL     1      27.547 -14.458  -2.105 -0.19 -0.00    +0.000 A 
DOCKED: ATOM     14  C   UNL     1      27.721 -15.271  -0.981 -0.24 -0.00    +0.000 A 
DOCKED: ATOM     15  C   UNL     1      26.880 -16.368  -0.772 -0.40 -0.00    +0.000 A 
DOCKED: ENDBRANCH   9  10
DOCKED: ENDBRANCH   1   9
DOCKED: TORSDOF 5
DOCKED: TER
DOCKED: ENDMDL
________________________________________________________________________________


	BEGINNING GENETIC ALGORITHM DOCKING 84 of 100
Run: 84 Seed: 611863860 230174760 [ Run 84 of 100 GA/GALS ]
Beginning LAMARCKIAN GENETIC ALGORITHM (LGA), with a maximum of 2500000 energy evaluations.

Final-Value: -11.619


	FINAL GENETIC ALGORITHM DOCKED STATE
	_______________________________________________


Detailed state:  trans 23.967 -17.936 -2.126 quatxyzw -0.163291 0.360351 0.772546 0.496645 center 0.710 -0.190 -0.071 ntor 5 173.5202 14.4903 146.2628 -40.1930 -14.9245
State:	 23.967 -17.936  -2.126  -0.188  0.415  0.890 120.443    173.52   14.49  146.26  -40.19  -14.92

DOCKED: MODEL       84
DOCKED: USER    Run = 84
DOCKED: USER    DPF = ligand_dock.biased.dpf
DOCKED: USER  
DOCKED: USER    Estimated Free Energy of Binding    =   -9.29 kcal/mol  [=(1)+(2)+(3)-(4)]
DOCKED: USER    Estimated Inhibition Constant, Ki   =  156.15 nM (nanomolar)  [Temperature = 298.15 K]
DOCKED: USER    
DOCKED: USER    (1) Final Intermolecular Energy     =  -10.78 kcal/mol
DOCKED: USER        vdW + Hbond + desolv Energy     =  -10.78 kcal/mol
DOCKED: USER        Electrostatic Energy            =   +0.00 kcal/mol
DOCKED: USER    (2) Final Total Internal Energy     =   -0.84 kcal/mol
DOCKED: USER    (3) Torsional Free Energy           =   +1.49 kcal/mol
DOCKED: USER    (4) Unbound System's Energy  [=(2)] =   -0.84 kcal/mol
DOCKED: USER    
DOCKED: USER    
DOCKED: USER    NEWDPF move ligand.pdbqt
DOCKED: USER    NEWDPF about 0.710000 -0.190000 -0.071000
DOCKED: USER    NEWDPF tran0 23.967241 -17.936150 -2.126146
DOCKED: USER    NEWDPF quaternion0 -0.163291 0.360351 0.772546 0.496645
DOCKED: USER    NEWDPF axisangle0 -0.188133 0.415173 0.890077 120.443380
DOCKED: USER    NEWDPF quat0 -0.188133 0.415173 0.890077 120.443380
DOCKED: USER    NEWDPF dihe0 173.52 14.49 146.26 -40.19 -14.92 
DOCKED: USER  keepresnum = 1 
DOCKED: USER  
DOCKED: REMARK  Name = 
DOCKED: REMARK  5 active torsions:
DOCKED: REMARK  status: ('A' for Active; 'I' for Inactive)
DOCKED: REMARK    1  A    between atoms: O_1  and  N_2
DOCKED: REMARK    2  A    between atoms: C_3  and  C_4
DOCKED: REMARK    3  A    between atoms: C_4  and  C_5
DOCKED: REMARK    4  A    between atoms: C_5  and  C_6
DOCKED: REMARK    5  A    between atoms: C_6  and  C_7
DOCKED: REMARK                            x       y       z     vdW  Elec       q    Type
DOCKED: REMARK                         _______ _______ _______ _____ _____    ______ ____
DOCKED: USER                              x       y       z     vdW  Elec       q    Type
DOCKED: USER                           _______ _______ _______ _____ _____    ______ ____
DOCKED: ROOT
DOCKED: ATOM      1  C   UNL     1      23.677 -17.738  -1.601 -0.64 -0.00    +0.000 C 
DOCKED: ENDROOT
DOCKED: BRANCH   1   2
DOCKED: ATOM      2  C   UNL     1      22.874 -18.542  -0.574 -0.83 -0.00    +0.000 C 
DOCKED: BRANCH   2   4
DOCKED: ATOM      3  N   UNL     1      20.895 -19.719  -1.649 -0.74 -0.00    +0.000 N 
DOCKED: ATOM      4  C   UNL     1      21.425 -18.584  -0.959 -0.81 -0.00    +0.000 C 
DOCKED: ATOM      5  O   UNL     1      20.683 -17.598  -0.706 -2.16 +0.00    +0.000 OA
DOCKED: ATOM      6  H   UNL     1      21.480 -20.484  -1.852 -0.41 -0.00    +0.000 HD
DOCKED: BRANCH   3   7
DOCKED: ATOM      7  O   UNL     1      19.594 -19.751  -2.024 -1.65 -0.00    +0.000 OA
DOCKED: ATOM      8  H   UNL     1      19.134 -18.976  -1.663 -0.56 -0.00    +0.000 HD
DOCKED: ENDBRANCH   3   7
DOCKED: ENDBRANCH   2   4
DOCKED: ENDBRANCH   1   2
DOCKED: BRANCH   1   9
DOCKED: ATOM      9  C   UNL     1      24.728 -16.861  -0.912 -0.63 -0.00    +0.000 C 
DOCKED: BRANCH   9  10
DOCKED: ATOM     10  C   UNL     1      25.738 -16.364  -1.911 -0.49 -0.00    +0.000 A 
DOCKED: ATOM     11  C   UNL     1      27.109 -16.593  -1.709 -0.37 -0.00    +0.000 A 
DOCKED: ATOM     12  C   UNL     1      28.048 -16.102  -2.621 -0.25 -0.00    +0.000 A 
DOCKED: ATOM     13  C   UNL     1      27.627 -15.372  -3.735 -0.31 -0.00    +0.000 A 
DOCKED: ATOM     14  C   UNL     1      26.265 -15.127  -3.937 -0.49 -0.00    +0.000 A 
DOCKED: ATOM     15  C   UNL     1      25.323 -15.615  -3.026 -0.43 -0.00    +0.000 A 
DOCKED: ENDBRANCH   9  10
DOCKED: ENDBRANCH   1   9
DOCKED: TORSDOF 5
DOCKED: TER
DOCKED: ENDMDL
________________________________________________________________________________


	BEGINNING GENETIC ALGORITHM DOCKING 85 of 100
Run: 85 Seed: 347949334 359929245 [ Run 85 of 100 GA/GALS ]
Beginning LAMARCKIAN GENETIC ALGORITHM (LGA), with a maximum of 2500000 energy evaluations.

Final-Value: -11.241


	FINAL GENETIC ALGORITHM DOCKED STATE
	_______________________________________________


Detailed state:  trans 23.284 -17.790 -0.396 quatxyzw 0.121179 0.672166 -0.717081 -0.138940 center 0.710 -0.190 -0.071 ntor 5 -160.3892 127.3444 -148.6416 8.0569 -34.7884
State:	 23.284 -17.790  -0.396   0.122  0.679 -0.724 -164.027   -160.39  127.34 -148.64    8.06  -34.79

DOCKED: MODEL       85
DOCKED: USER    Run = 85
DOCKED: USER    DPF = ligand_dock.biased.dpf
DOCKED: USER  
DOCKED: USER    Estimated Free Energy of Binding    =   -8.95 kcal/mol  [=(1)+(2)+(3)-(4)]
DOCKED: USER    Estimated Inhibition Constant, Ki   =  275.54 nM (nanomolar)  [Temperature = 298.15 K]
DOCKED: USER    
DOCKED: USER    (1) Final Intermolecular Energy     =  -10.44 kcal/mol
DOCKED: USER        vdW + Hbond + desolv Energy     =  -10.44 kcal/mol
DOCKED: USER        Electrostatic Energy            =   +0.00 kcal/mol
DOCKED: USER    (2) Final Total Internal Energy     =   -0.80 kcal/mol
DOCKED: USER    (3) Torsional Free Energy           =   +1.49 kcal/mol
DOCKED: USER    (4) Unbound System's Energy  [=(2)] =   -0.80 kcal/mol
DOCKED: USER    
DOCKED: USER    
DOCKED: USER    NEWDPF move ligand.pdbqt
DOCKED: USER    NEWDPF about 0.710000 -0.190000 -0.071000
DOCKED: USER    NEWDPF tran0 23.284089 -17.789566 -0.396057
DOCKED: USER    NEWDPF quaternion0 0.121179 0.672166 -0.717081 -0.138940
DOCKED: USER    NEWDPF axisangle0 0.122365 0.678749 -0.724104 -164.026953
DOCKED: USER    NEWDPF quat0 0.122365 0.678749 -0.724104 -164.026953
DOCKED: USER    NEWDPF dihe0 -160.39 127.34 -148.64 8.06 -34.79 
DOCKED: USER  keepresnum = 1 
DOCKED: USER  
DOCKED: REMARK  Name = 
DOCKED: REMARK  5 active torsions:
DOCKED: REMARK  status: ('A' for Active; 'I' for Inactive)
DOCKED: REMARK    1  A    between atoms: O_1  and  N_2
DOCKED: REMARK    2  A    between atoms: C_3  and  C_4
DOCKED: REMARK    3  A    between atoms: C_4  and  C_5
DOCKED: REMARK    4  A    between atoms: C_5  and  C_6
DOCKED: REMARK    5  A    between atoms: C_6  and  C_7
DOCKED: REMARK                            x       y       z     vdW  Elec       q    Type
DOCKED: REMARK                         _______ _______ _______ _____ _____    ______ ____
DOCKED: USER                              x       y       z     vdW  Elec       q    Type
DOCKED: USER                           _______ _______ _______ _____ _____    ______ ____
DOCKED: ROOT
DOCKED: ATOM      1  C   UNL     1      23.332 -18.413  -0.489 -0.82 -0.00    +0.000 C 
DOCKED: ENDROOT
DOCKED: BRANCH   1   2
DOCKED: ATOM      2  C   UNL     1      22.390 -19.356  -1.244 -0.67 -0.00    +0.000 C 
DOCKED: BRANCH   2   4
DOCKED: ATOM      3  N   UNL     1      19.966 -20.054  -0.937 -0.75 -0.00    +0.000 N 
DOCKED: ATOM      4  C   UNL     1      20.960 -19.026  -0.934 -0.88 -0.00    +0.000 C 
DOCKED: ATOM      5  O   UNL     1      20.630 -17.832  -0.708 -2.33 -0.00    +0.000 OA
DOCKED: ATOM      6  H   UNL     1      20.228 -20.985  -1.123 -0.50 -0.00    +0.000 HD
DOCKED: BRANCH   3   7
DOCKED: ATOM      7  O   UNL     1      18.669 -19.759  -0.686 -0.86 -0.00    +0.000 OA
DOCKED: ATOM      8  H   UNL     1      18.519 -18.810  -0.829 -0.56 -0.00    +0.000 HD
DOCKED: ENDBRANCH   3   7
DOCKED: ENDBRANCH   2   4
DOCKED: ENDBRANCH   1   2
DOCKED: BRANCH   1   9
DOCKED: ATOM      9  C   UNL     1      24.782 -18.603  -0.947 -0.62 -0.00    +0.000 C 
DOCKED: BRANCH   9  10
DOCKED: ATOM     10  C   UNL     1      25.518 -17.290  -0.930 -0.57 -0.00    +0.000 A 
DOCKED: ATOM     11  C   UNL     1      25.072 -16.216  -1.718 -0.50 -0.00    +0.000 A 
DOCKED: ATOM     12  C   UNL     1      25.775 -15.008  -1.725 -0.34 -0.00    +0.000 A 
DOCKED: ATOM     13  C   UNL     1      26.932 -14.866  -0.955 -0.27 -0.00    +0.000 A 
DOCKED: ATOM     14  C   UNL     1      27.391 -15.934  -0.178 -0.32 -0.00    +0.000 A 
DOCKED: ATOM     15  C   UNL     1      26.691 -17.144  -0.168 -0.46 -0.00    +0.000 A 
DOCKED: ENDBRANCH   9  10
DOCKED: ENDBRANCH   1   9
DOCKED: TORSDOF 5
DOCKED: TER
DOCKED: ENDMDL
________________________________________________________________________________


	BEGINNING GENETIC ALGORITHM DOCKING 86 of 100
Run: 86 Seed: 365679318 774196196 [ Run 86 of 100 GA/GALS ]
Beginning LAMARCKIAN GENETIC ALGORITHM (LGA), with a maximum of 2500000 energy evaluations.

Final-Value: -11.486


	FINAL GENETIC ALGORITHM DOCKED STATE
	_______________________________________________


Detailed state:  trans 23.786 -17.402 -2.053 quatxyzw 0.187973 -0.182020 -0.837407 -0.479879 center 0.710 -0.190 -0.071 ntor 5 178.5386 32.3108 144.0413 -31.8858 -36.8381
State:	 23.786 -17.402  -2.053   0.214 -0.207 -0.954 -122.645    178.54   32.31  144.04  -31.89  -36.84

DOCKED: MODEL       86
DOCKED: USER    Run = 86
DOCKED: USER    DPF = ligand_dock.biased.dpf
DOCKED: USER  
DOCKED: USER    Estimated Free Energy of Binding    =   -9.15 kcal/mol  [=(1)+(2)+(3)-(4)]
DOCKED: USER    Estimated Inhibition Constant, Ki   =  196.28 nM (nanomolar)  [Temperature = 298.15 K]
DOCKED: USER    
DOCKED: USER    (1) Final Intermolecular Energy     =  -10.64 kcal/mol
DOCKED: USER        vdW + Hbond + desolv Energy     =  -10.64 kcal/mol
DOCKED: USER        Electrostatic Energy            =   +0.00 kcal/mol
DOCKED: USER    (2) Final Total Internal Energy     =   -0.84 kcal/mol
DOCKED: USER    (3) Torsional Free Energy           =   +1.49 kcal/mol
DOCKED: USER    (4) Unbound System's Energy  [=(2)] =   -0.84 kcal/mol
DOCKED: USER    
DOCKED: USER    
DOCKED: USER    NEWDPF move ligand.pdbqt
DOCKED: USER    NEWDPF about 0.710000 -0.190000 -0.071000
DOCKED: USER    NEWDPF tran0 23.786474 -17.402393 -2.053186
DOCKED: USER    NEWDPF quaternion0 0.187973 -0.182020 -0.837407 -0.479879
DOCKED: USER    NEWDPF axisangle0 0.214255 -0.207470 -0.954490 -122.645054
DOCKED: USER    NEWDPF quat0 0.214255 -0.207470 -0.954490 -122.645054
DOCKED: USER    NEWDPF dihe0 178.54 32.31 144.04 -31.89 -36.84 
DOCKED: USER  keepresnum = 1 
DOCKED: USER  
DOCKED: REMARK  Name = 
DOCKED: REMARK  5 active torsions:
DOCKED: REMARK  status: ('A' for Active; 'I' for Inactive)
DOCKED: REMARK    1  A    between atoms: O_1  and  N_2
DOCKED: REMARK    2  A    between atoms: C_3  and  C_4
DOCKED: REMARK    3  A    between atoms: C_4  and  C_5
DOCKED: REMARK    4  A    between atoms: C_5  and  C_6
DOCKED: REMARK    5  A    between atoms: C_6  and  C_7
DOCKED: REMARK                            x       y       z     vdW  Elec       q    Type
DOCKED: REMARK                         _______ _______ _______ _____ _____    ______ ____
DOCKED: USER                              x       y       z     vdW  Elec       q    Type
DOCKED: USER                           _______ _______ _______ _____ _____    ______ ____
DOCKED: ROOT
DOCKED: ATOM      1  C   UNL     1      23.582 -17.402  -1.455 -0.65 -0.00    +0.000 C 
DOCKED: ENDROOT
DOCKED: BRANCH   1   2
DOCKED: ATOM      2  C   UNL     1      22.903 -18.522  -0.662 -0.84 -0.00    +0.000 C 
DOCKED: BRANCH   2   4
DOCKED: ATOM      3  N   UNL     1      20.877 -19.719  -1.620 -0.75 -0.00    +0.000 N 
DOCKED: ATOM      4  C   UNL     1      21.437 -18.572  -0.977 -0.81 -0.00    +0.000 C 
DOCKED: ATOM      5  O   UNL     1      20.707 -17.582  -0.707 -2.14 +0.00    +0.000 OA
DOCKED: ATOM      6  H   UNL     1      21.453 -20.487  -1.837 -0.40 -0.00    +0.000 HD
DOCKED: BRANCH   3   7
DOCKED: ATOM      7  O   UNL     1      19.560 -19.759  -1.932 -1.65 -0.00    +0.000 OA
DOCKED: ATOM      8  H   UNL     1      19.131 -18.941  -1.633 -0.56 -0.00    +0.000 HD
DOCKED: ENDBRANCH   3   7
DOCKED: ENDBRANCH   2   4
DOCKED: ENDBRANCH   1   2
DOCKED: BRANCH   1   9
DOCKED: ATOM      9  C   UNL     1      24.756 -16.806  -0.669 -0.56 -0.00    +0.000 C 
DOCKED: BRANCH   9  10
DOCKED: ATOM     10  C   UNL     1      25.887 -16.452  -1.597 -0.48 -0.00    +0.000 A 
DOCKED: ATOM     11  C   UNL     1      27.184 -16.928  -1.349 -0.40 -0.00    +0.000 A 
DOCKED: ATOM     12  C   UNL     1      28.240 -16.571  -2.193 -0.27 -0.00    +0.000 A 
DOCKED: ATOM     13  C   UNL     1      28.010 -15.730  -3.285 -0.26 -0.00    +0.000 A 
DOCKED: ATOM     14  C   UNL     1      26.724 -15.240  -3.531 -0.41 -0.00    +0.000 A 
DOCKED: ATOM     15  C   UNL     1      25.665 -15.594  -2.689 -0.47 -0.00    +0.000 A 
DOCKED: ENDBRANCH   9  10
DOCKED: ENDBRANCH   1   9
DOCKED: TORSDOF 5
DOCKED: TER
DOCKED: ENDMDL
________________________________________________________________________________


	BEGINNING GENETIC ALGORITHM DOCKING 87 of 100
Run: 87 Seed: 1990219290 820308617 [ Run 87 of 100 GA/GALS ]
Beginning LAMARCKIAN GENETIC ALGORITHM (LGA), with a maximum of 2500000 energy evaluations.

Final-Value: -11.578


	FINAL GENETIC ALGORITHM DOCKED STATE
	_______________________________________________


Detailed state:  trans 23.325 -17.936 -2.015 quatxyzw 0.037832 0.203952 0.976552 0.057613 center 0.710 -0.190 -0.071 ntor 5 180.0000 -32.9418 -110.3796 50.9884 54.9640
State:	 23.325 -17.936  -2.015   0.038  0.204  0.978 173.394    180.00  -32.94 -110.38   50.99   54.96

DOCKED: MODEL       87
DOCKED: USER    Run = 87
DOCKED: USER    DPF = ligand_dock.biased.dpf
DOCKED: USER  
DOCKED: USER    Estimated Free Energy of Binding    =   -9.20 kcal/mol  [=(1)+(2)+(3)-(4)]
DOCKED: USER    Estimated Inhibition Constant, Ki   =  180.60 nM (nanomolar)  [Temperature = 298.15 K]
DOCKED: USER    
DOCKED: USER    (1) Final Intermolecular Energy     =  -10.69 kcal/mol
DOCKED: USER        vdW + Hbond + desolv Energy     =  -10.69 kcal/mol
DOCKED: USER        Electrostatic Energy            =   +0.00 kcal/mol
DOCKED: USER    (2) Final Total Internal Energy     =   -0.89 kcal/mol
DOCKED: USER    (3) Torsional Free Energy           =   +1.49 kcal/mol
DOCKED: USER    (4) Unbound System's Energy  [=(2)] =   -0.89 kcal/mol
DOCKED: USER    
DOCKED: USER    
DOCKED: USER    NEWDPF move ligand.pdbqt
DOCKED: USER    NEWDPF about 0.710000 -0.190000 -0.071000
DOCKED: USER    NEWDPF tran0 23.325145 -17.936322 -2.014617
DOCKED: USER    NEWDPF quaternion0 0.037832 0.203952 0.976552 0.057613
DOCKED: USER    NEWDPF axisangle0 0.037895 0.204292 0.978176 173.394327
DOCKED: USER    NEWDPF quat0 0.037895 0.204292 0.978176 173.394327
DOCKED: USER    NEWDPF dihe0 180.00 -32.94 -110.38 50.99 54.96 
DOCKED: USER  keepresnum = 1 
DOCKED: USER  
DOCKED: REMARK  Name = 
DOCKED: REMARK  5 active torsions:
DOCKED: REMARK  status: ('A' for Active; 'I' for Inactive)
DOCKED: REMARK    1  A    between atoms: O_1  and  N_2
DOCKED: REMARK    2  A    between atoms: C_3  and  C_4
DOCKED: REMARK    3  A    between atoms: C_4  and  C_5
DOCKED: REMARK    4  A    between atoms: C_5  and  C_6
DOCKED: REMARK    5  A    between atoms: C_6  and  C_7
DOCKED: REMARK                            x       y       z     vdW  Elec       q    Type
DOCKED: REMARK                         _______ _______ _______ _____ _____    ______ ____
DOCKED: USER                              x       y       z     vdW  Elec       q    Type
DOCKED: USER                           _______ _______ _______ _____ _____    ______ ____
DOCKED: ROOT
DOCKED: ATOM      1  C   UNL     1      23.362 -17.817  -1.395 -0.71 -0.00    +0.000 C 
DOCKED: ENDROOT
DOCKED: BRANCH   1   2
DOCKED: ATOM      2  C   UNL     1      22.287 -17.956  -0.314 -0.82 -0.00    +0.000 C 
DOCKED: BRANCH   2   4
DOCKED: ATOM      3  N   UNL     1      21.025 -19.647  -1.730 -0.69 -0.00    +0.000 N 
DOCKED: ATOM      4  C   UNL     1      21.012 -18.478  -0.907 -0.77 -0.00    +0.000 C 
DOCKED: ATOM      5  O   UNL     1      19.933 -17.859  -0.709 -1.90 -0.00    +0.000 OA
DOCKED: ATOM      6  H   UNL     1      21.872 -20.122  -1.889 -0.49 -0.00    +0.000 HD
DOCKED: BRANCH   3   7
DOCKED: ATOM      7  O   UNL     1      19.882 -20.106  -2.292 -1.76 -0.00    +0.000 OA
DOCKED: ATOM      8  H   UNL     1      19.143 -19.531  -2.038 -0.48 -0.00    +0.000 HD
DOCKED: ENDBRANCH   3   7
DOCKED: ENDBRANCH   2   4
DOCKED: ENDBRANCH   1   2
DOCKED: BRANCH   1   9
DOCKED: ATOM      9  C   UNL     1      24.663 -18.506  -0.969 -0.68 -0.00    +0.000 C 
DOCKED: BRANCH   9  10
DOCKED: ATOM     10  C   UNL     1      25.818 -17.543  -1.035 -0.55 -0.00    +0.000 A 
DOCKED: ATOM     11  C   UNL     1      25.740 -16.397  -1.844 -0.49 -0.00    +0.000 A 
DOCKED: ATOM     12  C   UNL     1      26.826 -15.521  -1.930 -0.33 -0.00    +0.000 A 
DOCKED: ATOM     13  C   UNL     1      27.999 -15.785  -1.218 -0.26 -0.00    +0.000 A 
DOCKED: ATOM     14  C   UNL     1      28.089 -16.931  -0.420 -0.29 -0.00    +0.000 A 
DOCKED: ATOM     15  C   UNL     1      27.006 -17.811  -0.332 -0.47 -0.00    +0.000 A 
DOCKED: ENDBRANCH   9  10
DOCKED: ENDBRANCH   1   9
DOCKED: TORSDOF 5
DOCKED: TER
DOCKED: ENDMDL
________________________________________________________________________________


	BEGINNING GENETIC ALGORITHM DOCKING 88 of 100
Run: 88 Seed: 1757516080 448138291 [ Run 88 of 100 GA/GALS ]
Beginning LAMARCKIAN GENETIC ALGORITHM (LGA), with a maximum of 2500000 energy evaluations.

Final-Value: -11.644


	FINAL GENETIC ALGORITHM DOCKED STATE
	_______________________________________________


Detailed state:  trans 23.235 -16.637 -0.685 quatxyzw -0.274120 0.529264 -0.802378 -0.030438 center 0.710 -0.190 -0.071 ntor 5 169.0214 44.7557 140.7821 86.8191 51.6138
State:	 23.235 -16.637  -0.685  -0.274  0.530 -0.803 -176.511    169.02   44.76  140.78   86.82   51.61

DOCKED: MODEL       88
DOCKED: USER    Run = 88
DOCKED: USER    DPF = ligand_dock.biased.dpf
DOCKED: USER  
DOCKED: USER    Estimated Free Energy of Binding    =   -9.28 kcal/mol  [=(1)+(2)+(3)-(4)]
DOCKED: USER    Estimated Inhibition Constant, Ki   =  156.44 nM (nanomolar)  [Temperature = 298.15 K]
DOCKED: USER    
DOCKED: USER    (1) Final Intermolecular Energy     =  -10.78 kcal/mol
DOCKED: USER        vdW + Hbond + desolv Energy     =  -10.78 kcal/mol
DOCKED: USER        Electrostatic Energy            =   +0.00 kcal/mol
DOCKED: USER    (2) Final Total Internal Energy     =   -0.87 kcal/mol
DOCKED: USER    (3) Torsional Free Energy           =   +1.49 kcal/mol
DOCKED: USER    (4) Unbound System's Energy  [=(2)] =   -0.87 kcal/mol
DOCKED: USER    
DOCKED: USER    
DOCKED: USER    NEWDPF move ligand.pdbqt
DOCKED: USER    NEWDPF about 0.710000 -0.190000 -0.071000
DOCKED: USER    NEWDPF tran0 23.235147 -16.636958 -0.684898
DOCKED: USER    NEWDPF quaternion0 -0.274120 0.529264 -0.802378 -0.030438
DOCKED: USER    NEWDPF axisangle0 -0.274247 0.529510 -0.802750 -176.511493
DOCKED: USER    NEWDPF quat0 -0.274247 0.529510 -0.802750 -176.511493
DOCKED: USER    NEWDPF dihe0 169.02 44.76 140.78 86.82 51.61 
DOCKED: USER  keepresnum = 1 
DOCKED: USER  
DOCKED: REMARK  Name = 
DOCKED: REMARK  5 active torsions:
DOCKED: REMARK  status: ('A' for Active; 'I' for Inactive)
DOCKED: REMARK    1  A    between atoms: O_1  and  N_2
DOCKED: REMARK    2  A    between atoms: C_3  and  C_4
DOCKED: REMARK    3  A    between atoms: C_4  and  C_5
DOCKED: REMARK    4  A    between atoms: C_5  and  C_6
DOCKED: REMARK    5  A    between atoms: C_6  and  C_7
DOCKED: REMARK                            x       y       z     vdW  Elec       q    Type
DOCKED: REMARK                         _______ _______ _______ _____ _____    ______ ____
DOCKED: USER                              x       y       z     vdW  Elec       q    Type
DOCKED: USER                           _______ _______ _______ _____ _____    ______ ____
DOCKED: ROOT
DOCKED: ATOM      1  C   UNL     1      23.482 -17.215  -0.623 -0.69 -0.00    +0.000 C 
DOCKED: ENDROOT
DOCKED: BRANCH   1   2
DOCKED: ATOM      2  C   UNL     1      22.793 -18.529  -0.245 -0.81 -0.00    +0.000 C 
DOCKED: BRANCH   2   4
DOCKED: ATOM      3  N   UNL     1      21.023 -19.732  -1.616 -0.71 -0.00    +0.000 N 
DOCKED: ATOM      4  C   UNL     1      21.421 -18.593  -0.848 -0.84 -0.00    +0.000 C 
DOCKED: ATOM      5  O   UNL     1      20.632 -17.622  -0.708 -2.18 +0.00    +0.000 OA
DOCKED: ATOM      6  H   UNL     1      21.646 -20.485  -1.730 -0.37 -0.00    +0.000 HD
DOCKED: BRANCH   3   7
DOCKED: ATOM      7  O   UNL     1      19.796 -19.783  -2.186 -1.79 -0.00    +0.000 OA
DOCKED: ATOM      8  H   UNL     1      19.249 -19.060  -1.843 -0.48 -0.00    +0.000 HD
DOCKED: ENDBRANCH   3   7
DOCKED: ENDBRANCH   2   4
DOCKED: ENDBRANCH   1   2
DOCKED: BRANCH   1   9
DOCKED: ATOM      9  C   UNL     1      24.334 -17.385  -1.886 -0.60 -0.00    +0.000 C 
DOCKED: BRANCH   9  10
DOCKED: ATOM     10  C   UNL     1      25.732 -16.877  -1.651 -0.51 -0.00    +0.000 A 
DOCKED: ATOM     11  C   UNL     1      26.328 -15.992  -2.565 -0.42 -0.00    +0.000 A 
DOCKED: ATOM     12  C   UNL     1      27.638 -15.547  -2.362 -0.26 -0.00    +0.000 A 
DOCKED: ATOM     13  C   UNL     1      28.365 -15.989  -1.254 -0.25 -0.00    +0.000 A 
DOCKED: ATOM     14  C   UNL     1      27.784 -16.881  -0.347 -0.34 -0.00    +0.000 A 
DOCKED: ATOM     15  C   UNL     1      26.474 -17.329  -0.546 -0.51 -0.00    +0.000 A 
DOCKED: ENDBRANCH   9  10
DOCKED: ENDBRANCH   1   9
DOCKED: TORSDOF 5
DOCKED: TER
DOCKED: ENDMDL
________________________________________________________________________________


	BEGINNING GENETIC ALGORITHM DOCKING 89 of 100
Run: 89 Seed: 1504788581 443064866 [ Run 89 of 100 GA/GALS ]
Beginning LAMARCKIAN GENETIC ALGORITHM (LGA), with a maximum of 2500000 energy evaluations.

Final-Value: -11.315


	FINAL GENETIC ALGORITHM DOCKED STATE
	_______________________________________________


Detailed state:  trans 23.206 -17.559 -0.558 quatxyzw -0.068398 -0.551062 0.812016 0.179676 center 0.710 -0.190 -0.071 ntor 5 -165.9113 111.3948 -168.8677 13.6693 -35.6942
State:	 23.206 -17.559  -0.558  -0.070 -0.560  0.825 159.298   -165.91  111.39 -168.87   13.67  -35.69

DOCKED: MODEL       89
DOCKED: USER    Run = 89
DOCKED: USER    DPF = ligand_dock.biased.dpf
DOCKED: USER  
DOCKED: USER    Estimated Free Energy of Binding    =   -9.00 kcal/mol  [=(1)+(2)+(3)-(4)]
DOCKED: USER    Estimated Inhibition Constant, Ki   =  254.66 nM (nanomolar)  [Temperature = 298.15 K]
DOCKED: USER    
DOCKED: USER    (1) Final Intermolecular Energy     =  -10.49 kcal/mol
DOCKED: USER        vdW + Hbond + desolv Energy     =  -10.49 kcal/mol
DOCKED: USER        Electrostatic Energy            =   +0.00 kcal/mol
DOCKED: USER    (2) Final Total Internal Energy     =   -0.83 kcal/mol
DOCKED: USER    (3) Torsional Free Energy           =   +1.49 kcal/mol
DOCKED: USER    (4) Unbound System's Energy  [=(2)] =   -0.83 kcal/mol
DOCKED: USER    
DOCKED: USER    
DOCKED: USER    NEWDPF move ligand.pdbqt
DOCKED: USER    NEWDPF about 0.710000 -0.190000 -0.071000
DOCKED: USER    NEWDPF tran0 23.206103 -17.558913 -0.557908
DOCKED: USER    NEWDPF quaternion0 -0.068398 -0.551062 0.812016 0.179676
DOCKED: USER    NEWDPF axisangle0 -0.069529 -0.560178 0.825449 159.298265
DOCKED: USER    NEWDPF quat0 -0.069529 -0.560178 0.825449 159.298265
DOCKED: USER    NEWDPF dihe0 -165.91 111.39 -168.87 13.67 -35.69 
DOCKED: USER  keepresnum = 1 
DOCKED: USER  
DOCKED: REMARK  Name = 
DOCKED: REMARK  5 active torsions:
DOCKED: REMARK  status: ('A' for Active; 'I' for Inactive)
DOCKED: REMARK    1  A    between atoms: O_1  and  N_2
DOCKED: REMARK    2  A    between atoms: C_3  and  C_4
DOCKED: REMARK    3  A    between atoms: C_4  and  C_5
DOCKED: REMARK    4  A    between atoms: C_5  and  C_6
DOCKED: REMARK    5  A    between atoms: C_6  and  C_7
DOCKED: REMARK                            x       y       z     vdW  Elec       q    Type
DOCKED: REMARK                         _______ _______ _______ _____ _____    ______ ____
DOCKED: USER                              x       y       z     vdW  Elec       q    Type
DOCKED: USER                           _______ _______ _______ _____ _____    ______ ____
DOCKED: ROOT
DOCKED: ATOM      1  C   UNL     1      23.300 -18.174  -0.447 -0.81 -0.00    +0.000 C 
DOCKED: ENDROOT
DOCKED: BRANCH   1   2
DOCKED: ATOM      2  C   UNL     1      22.432 -19.374  -0.838 -0.73 -0.00    +0.000 C 
DOCKED: BRANCH   2   4
DOCKED: ATOM      3  N   UNL     1      19.984 -20.047  -0.756 -0.77 -0.00    +0.000 N 
DOCKED: ATOM      4  C   UNL     1      20.978 -19.019  -0.749 -0.89 -0.00    +0.000 C 
DOCKED: ATOM      5  O   UNL     1      20.632 -17.809  -0.706 -2.31 -0.00    +0.000 OA
DOCKED: ATOM      6  H   UNL     1      20.258 -20.991  -0.798 -0.36 -0.00    +0.000 HD
DOCKED: BRANCH   3   7
DOCKED: ATOM      7  O   UNL     1      18.668 -19.732  -0.704 -0.85 -0.00    +0.000 OA
DOCKED: ATOM      8  H   UNL     1      18.553 -18.787  -0.889 -0.57 -0.00    +0.000 HD
DOCKED: ENDBRANCH   3   7
DOCKED: ENDBRANCH   2   4
DOCKED: ENDBRANCH   1   2
DOCKED: BRANCH   1   9
DOCKED: ATOM      9  C   UNL     1      24.761 -18.398  -0.852 -0.70 -0.00    +0.000 C 
DOCKED: BRANCH   9  10
DOCKED: ATOM     10  C   UNL     1      25.391 -17.104  -1.294 -0.56 -0.00    +0.000 A 
DOCKED: ATOM     11  C   UNL     1      25.165 -16.611  -2.590 -0.45 -0.00    +0.000 A 
DOCKED: ATOM     12  C   UNL     1      25.777 -15.426  -3.010 -0.48 -0.00    +0.000 A 
DOCKED: ATOM     13  C   UNL     1      26.625 -14.731  -2.144 -0.30 -0.00    +0.000 A 
DOCKED: ATOM     14  C   UNL     1      26.866 -15.222  -0.857 -0.30 -0.00    +0.000 A 
DOCKED: ATOM     15  C   UNL     1      26.257 -16.406  -0.433 -0.40 -0.00    +0.000 A 
DOCKED: ENDBRANCH   9  10
DOCKED: ENDBRANCH   1   9
DOCKED: TORSDOF 5
DOCKED: TER
DOCKED: ENDMDL
________________________________________________________________________________


	BEGINNING GENETIC ALGORITHM DOCKING 90 of 100
Run: 90 Seed: 1458727228 29719537 [ Run 90 of 100 GA/GALS ]
Beginning LAMARCKIAN GENETIC ALGORITHM (LGA), with a maximum of 2500000 energy evaluations.

Final-Value: -11.007


	FINAL GENETIC ALGORITHM DOCKED STATE
	_______________________________________________


Detailed state:  trans 21.696 -17.807 -1.174 quatxyzw 0.182728 -0.256632 0.945996 0.076439 center 0.710 -0.190 -0.071 ntor 5 -180.0000 127.6251 -164.1334 75.8258 53.3283
State:	 21.696 -17.807  -1.174   0.183 -0.257  0.949 171.232   -180.00  127.63 -164.13   75.83   53.33

DOCKED: MODEL       90
DOCKED: USER    Run = 90
DOCKED: USER    DPF = ligand_dock.biased.dpf
DOCKED: USER  
DOCKED: USER    Estimated Free Energy of Binding    =   -8.65 kcal/mol  [=(1)+(2)+(3)-(4)]
DOCKED: USER    Estimated Inhibition Constant, Ki   =  459.37 nM (nanomolar)  [Temperature = 298.15 K]
DOCKED: USER    
DOCKED: USER    (1) Final Intermolecular Energy     =  -10.14 kcal/mol
DOCKED: USER        vdW + Hbond + desolv Energy     =  -10.14 kcal/mol
DOCKED: USER        Electrostatic Energy            =   +0.00 kcal/mol
DOCKED: USER    (2) Final Total Internal Energy     =   -0.87 kcal/mol
DOCKED: USER    (3) Torsional Free Energy           =   +1.49 kcal/mol
DOCKED: USER    (4) Unbound System's Energy  [=(2)] =   -0.87 kcal/mol
DOCKED: USER    
DOCKED: USER    
DOCKED: USER    NEWDPF move ligand.pdbqt
DOCKED: USER    NEWDPF about 0.710000 -0.190000 -0.071000
DOCKED: USER    NEWDPF tran0 21.695858 -17.807459 -1.174433
DOCKED: USER    NEWDPF quaternion0 0.182728 -0.256632 0.945996 0.076439
DOCKED: USER    NEWDPF axisangle0 0.183265 -0.257385 0.948771 171.232190
DOCKED: USER    NEWDPF quat0 0.183265 -0.257385 0.948771 171.232190
DOCKED: USER    NEWDPF dihe0 -180.00 127.63 -164.13 75.83 53.33 
DOCKED: USER  keepresnum = 1 
DOCKED: USER  
DOCKED: REMARK  Name = 
DOCKED: REMARK  5 active torsions:
DOCKED: REMARK  status: ('A' for Active; 'I' for Inactive)
DOCKED: REMARK    1  A    between atoms: O_1  and  N_2
DOCKED: REMARK    2  A    between atoms: C_3  and  C_4
DOCKED: REMARK    3  A    between atoms: C_4  and  C_5
DOCKED: REMARK    4  A    between atoms: C_5  and  C_6
DOCKED: REMARK    5  A    between atoms: C_6  and  C_7
DOCKED: REMARK                            x       y       z     vdW  Elec       q    Type
DOCKED: REMARK                         _______ _______ _______ _____ _____    ______ ____
DOCKED: USER                              x       y       z     vdW  Elec       q    Type
DOCKED: USER                           _______ _______ _______ _____ _____    ______ ____
DOCKED: ROOT
DOCKED: ATOM      1  C   UNL     1      21.929 -18.212  -0.749 -0.84 -0.00    +0.000 C 
DOCKED: ENDROOT
DOCKED: BRANCH   1   2
DOCKED: ATOM      2  C   UNL     1      21.197 -19.252   0.105 -0.73 -0.00    +0.000 C 
DOCKED: BRANCH   2   4
DOCKED: ATOM      3  N   UNL     1      18.797 -20.077   0.210 -0.74 -0.00    +0.000 N 
DOCKED: ATOM      4  C   UNL     1      19.929 -19.684  -0.569 -0.88 -0.00    +0.000 C 
DOCKED: ATOM      5  O   UNL     1      19.876 -19.735  -1.827 -1.88 -0.00    +0.000 OA
DOCKED: ATOM      6  H   UNL     1      18.845 -20.044   1.192 -0.02 -0.00    +0.000 HD
DOCKED: BRANCH   3   7
DOCKED: ATOM      7  O   UNL     1      17.658 -20.495  -0.392 -0.80 -0.00    +0.000 OA
DOCKED: ATOM      8  H   UNL     1      17.773 -20.470  -1.355 -0.30 -0.00    +0.000 HD
DOCKED: ENDBRANCH   3   7
DOCKED: ENDBRANCH   2   4
DOCKED: ENDBRANCH   1   2
DOCKED: BRANCH   1   9
DOCKED: ATOM      9  C   UNL     1      23.134 -18.836  -1.462 -0.77 -0.00    +0.000 C 
DOCKED: BRANCH   9  10
DOCKED: ATOM     10  C   UNL     1      24.383 -18.046  -1.179 -0.67 -0.00    +0.000 A 
DOCKED: ATOM     11  C   UNL     1      24.600 -16.811  -1.812 -0.54 -0.00    +0.000 A 
DOCKED: ATOM     12  C   UNL     1      25.776 -16.093  -1.572 -0.47 -0.00    +0.000 A 
DOCKED: ATOM     13  C   UNL     1      26.746 -16.607  -0.707 -0.43 -0.00    +0.000 A 
DOCKED: ATOM     14  C   UNL     1      26.544 -17.841  -0.083 -0.52 -0.00    +0.000 A 
DOCKED: ATOM     15  C   UNL     1      25.370 -18.563  -0.321 -0.54 -0.00    +0.000 A 
DOCKED: ENDBRANCH   9  10
DOCKED: ENDBRANCH   1   9
DOCKED: TORSDOF 5
DOCKED: TER
DOCKED: ENDMDL
________________________________________________________________________________


	BEGINNING GENETIC ALGORITHM DOCKING 91 of 100
Run: 91 Seed: 211415653 1520872641 [ Run 91 of 100 GA/GALS ]
Beginning LAMARCKIAN GENETIC ALGORITHM (LGA), with a maximum of 2500000 energy evaluations.

Final-Value: -11.264


	FINAL GENETIC ALGORITHM DOCKED STATE
	_______________________________________________


Detailed state:  trans 23.576 -18.940 0.116 quatxyzw -0.346336 0.936312 0.013208 0.056549 center 0.710 -0.190 -0.071 ntor 5 173.1260 -166.6904 -136.6472 98.8581 48.0057
State:	 23.576 -18.940   0.116  -0.347  0.938  0.013 173.517    173.13 -166.69 -136.65   98.86   48.01

DOCKED: MODEL       91
DOCKED: USER    Run = 91
DOCKED: USER    DPF = ligand_dock.biased.dpf
DOCKED: USER  
DOCKED: USER    Estimated Free Energy of Binding    =   -8.87 kcal/mol  [=(1)+(2)+(3)-(4)]
DOCKED: USER    Estimated Inhibition Constant, Ki   =  314.13 nM (nanomolar)  [Temperature = 298.15 K]
DOCKED: USER    
DOCKED: USER    (1) Final Intermolecular Energy     =  -10.36 kcal/mol
DOCKED: USER        vdW + Hbond + desolv Energy     =  -10.36 kcal/mol
DOCKED: USER        Electrostatic Energy            =   +0.00 kcal/mol
DOCKED: USER    (2) Final Total Internal Energy     =   -0.90 kcal/mol
DOCKED: USER    (3) Torsional Free Energy           =   +1.49 kcal/mol
DOCKED: USER    (4) Unbound System's Energy  [=(2)] =   -0.90 kcal/mol
DOCKED: USER    
DOCKED: USER    
DOCKED: USER    NEWDPF move ligand.pdbqt
DOCKED: USER    NEWDPF about 0.710000 -0.190000 -0.071000
DOCKED: USER    NEWDPF tran0 23.576371 -18.940313 0.116089
DOCKED: USER    NEWDPF quaternion0 -0.346336 0.936312 0.013208 0.056549
DOCKED: USER    NEWDPF axisangle0 -0.346891 0.937812 0.013229 173.516531
DOCKED: USER    NEWDPF quat0 -0.346891 0.937812 0.013229 173.516531
DOCKED: USER    NEWDPF dihe0 173.13 -166.69 -136.65 98.86 48.01 
DOCKED: USER  keepresnum = 1 
DOCKED: USER  
DOCKED: REMARK  Name = 
DOCKED: REMARK  5 active torsions:
DOCKED: REMARK  status: ('A' for Active; 'I' for Inactive)
DOCKED: REMARK    1  A    between atoms: O_1  and  N_2
DOCKED: REMARK    2  A    between atoms: C_3  and  C_4
DOCKED: REMARK    3  A    between atoms: C_4  and  C_5
DOCKED: REMARK    4  A    between atoms: C_5  and  C_6
DOCKED: REMARK    5  A    between atoms: C_6  and  C_7
DOCKED: REMARK                            x       y       z     vdW  Elec       q    Type
DOCKED: REMARK                         _______ _______ _______ _____ _____    ______ ____
DOCKED: USER                              x       y       z     vdW  Elec       q    Type
DOCKED: USER                           _______ _______ _______ _____ _____    ______ ____
DOCKED: ROOT
DOCKED: ATOM      1  C   UNL     1      23.406 -18.851  -0.486 -0.76 -0.00    +0.000 C 
DOCKED: ENDROOT
DOCKED: BRANCH   1   2
DOCKED: ATOM      2  C   UNL     1      22.144 -19.318  -1.217 -0.70 -0.00    +0.000 C 
DOCKED: BRANCH   2   4
DOCKED: ATOM      3  N   UNL     1      20.486 -19.838   0.637 -0.67 -0.00    +0.000 N 
DOCKED: ATOM      4  C   UNL     1      20.920 -18.978  -0.419 -0.86 -0.00    +0.000 C 
DOCKED: ATOM      5  O   UNL     1      20.253 -17.949  -0.708 -2.20 -0.00    +0.000 OA
DOCKED: ATOM      6  H   UNL     1      21.006 -20.645   0.854 -0.59 -0.00    +0.000 HD
DOCKED: BRANCH   3   7
DOCKED: ATOM      7  O   UNL     1      19.366 -19.551   1.342 -0.73 -0.00    +0.000 OA
DOCKED: ATOM      8  H   UNL     1      19.035 -18.677   1.082 -0.38 -0.00    +0.000 HD
DOCKED: ENDBRANCH   3   7
DOCKED: ENDBRANCH   2   4
DOCKED: ENDBRANCH   1   2
DOCKED: BRANCH   1   9
DOCKED: ATOM      9  C   UNL     1      23.652 -17.355  -0.715 -0.74 -0.00    +0.000 C 
DOCKED: BRANCH   9  10
DOCKED: ATOM     10  C   UNL     1      25.086 -17.110  -1.104 -0.58 -0.00    +0.000 A 
DOCKED: ATOM     11  C   UNL     1      26.130 -17.694  -0.369 -0.56 -0.00    +0.000 A 
DOCKED: ATOM     12  C   UNL     1      27.462 -17.439  -0.712 -0.42 -0.00    +0.000 A 
DOCKED: ATOM     13  C   UNL     1      27.759 -16.592  -1.783 -0.32 -0.00    +0.000 A 
DOCKED: ATOM     14  C   UNL     1      26.725 -15.996  -2.512 -0.37 -0.00    +0.000 A 
DOCKED: ATOM     15  C   UNL     1      25.393 -16.248  -2.172 -0.50 -0.00    +0.000 A 
DOCKED: ENDBRANCH   9  10
DOCKED: ENDBRANCH   1   9
DOCKED: TORSDOF 5
DOCKED: TER
DOCKED: ENDMDL
________________________________________________________________________________


	BEGINNING GENETIC ALGORITHM DOCKING 92 of 100
Run: 92 Seed: 1025622747 1842522926 [ Run 92 of 100 GA/GALS ]
Beginning LAMARCKIAN GENETIC ALGORITHM (LGA), with a maximum of 2500000 energy evaluations.

Final-Value: -10.863


	FINAL GENETIC ALGORITHM DOCKED STATE
	_______________________________________________


Detailed state:  trans 23.373 -18.053 -0.154 quatxyzw 0.119384 -0.841730 0.525161 -0.037989 center 0.710 -0.190 -0.071 ntor 5 174.0718 178.7775 -179.8574 39.6803 -2.8486
State:	 23.373 -18.053  -0.154   0.119 -0.842  0.526 -175.646    174.07  178.78 -179.86   39.68   -2.85

DOCKED: MODEL       92
DOCKED: USER    Run = 92
DOCKED: USER    DPF = ligand_dock.biased.dpf
DOCKED: USER  
DOCKED: USER    Estimated Free Energy of Binding    =   -8.53 kcal/mol  [=(1)+(2)+(3)-(4)]
DOCKED: USER    Estimated Inhibition Constant, Ki   =  563.41 nM (nanomolar)  [Temperature = 298.15 K]
DOCKED: USER    
DOCKED: USER    (1) Final Intermolecular Energy     =  -10.02 kcal/mol
DOCKED: USER        vdW + Hbond + desolv Energy     =  -10.02 kcal/mol
DOCKED: USER        Electrostatic Energy            =   +0.00 kcal/mol
DOCKED: USER    (2) Final Total Internal Energy     =   -0.85 kcal/mol
DOCKED: USER    (3) Torsional Free Energy           =   +1.49 kcal/mol
DOCKED: USER    (4) Unbound System's Energy  [=(2)] =   -0.85 kcal/mol
DOCKED: USER    
DOCKED: USER    
DOCKED: USER    NEWDPF move ligand.pdbqt
DOCKED: USER    NEWDPF about 0.710000 -0.190000 -0.071000
DOCKED: USER    NEWDPF tran0 23.372921 -18.053326 -0.154145
DOCKED: USER    NEWDPF quaternion0 0.119384 -0.841730 0.525161 -0.037989
DOCKED: USER    NEWDPF axisangle0 0.119471 -0.842338 0.525541 -175.645716
DOCKED: USER    NEWDPF quat0 0.119471 -0.842338 0.525541 -175.645716
DOCKED: USER    NEWDPF dihe0 174.07 178.78 -179.86 39.68 -2.85 
DOCKED: USER  keepresnum = 1 
DOCKED: USER  
DOCKED: REMARK  Name = 
DOCKED: REMARK  5 active torsions:
DOCKED: REMARK  status: ('A' for Active; 'I' for Inactive)
DOCKED: REMARK    1  A    between atoms: O_1  and  N_2
DOCKED: REMARK    2  A    between atoms: C_3  and  C_4
DOCKED: REMARK    3  A    between atoms: C_4  and  C_5
DOCKED: REMARK    4  A    between atoms: C_5  and  C_6
DOCKED: REMARK    5  A    between atoms: C_6  and  C_7
DOCKED: REMARK                            x       y       z     vdW  Elec       q    Type
DOCKED: REMARK                         _______ _______ _______ _____ _____    ______ ____
DOCKED: USER                              x       y       z     vdW  Elec       q    Type
DOCKED: USER                           _______ _______ _______ _____ _____    ______ ____
DOCKED: ROOT
DOCKED: ATOM      1  C   UNL     1      23.365 -18.547  -0.549 -0.82 -0.00    +0.000 C 
DOCKED: ENDROOT
DOCKED: BRANCH   1   2
DOCKED: ATOM      2  C   UNL     1      22.173 -19.347  -1.079 -0.73 -0.00    +0.000 C 
DOCKED: BRANCH   2   4
DOCKED: ATOM      3  N   UNL     1      20.455 -19.778   0.743 -0.67 -0.00    +0.000 N 
DOCKED: ATOM      4  C   UNL     1      20.921 -18.973  -0.342 -0.84 -0.00    +0.000 C 
DOCKED: ATOM      5  O   UNL     1      20.259 -17.965  -0.709 -2.20 -0.00    +0.000 OA
DOCKED: ATOM      6  H   UNL     1      20.970 -20.569   1.020 -0.56 -0.00    +0.000 HD
DOCKED: BRANCH   3   7
DOCKED: ATOM      7  O   UNL     1      19.311 -19.461   1.394 -0.72 -0.00    +0.000 OA
DOCKED: ATOM      8  H   UNL     1      18.977 -18.611   1.066 -0.40 -0.00    +0.000 HD
DOCKED: ENDBRANCH   3   7
DOCKED: ENDBRANCH   2   4
DOCKED: ENDBRANCH   1   2
DOCKED: BRANCH   1   9
DOCKED: ATOM      9  C   UNL     1      24.288 -18.112  -1.693 -0.64 -0.00    +0.000 C 
DOCKED: BRANCH   9  10
DOCKED: ATOM     10  C   UNL     1      25.418 -17.267  -1.169 -0.57 -0.00    +0.000 A 
DOCKED: ATOM     11  C   UNL     1      25.288 -15.870  -1.105 -0.41 -0.00    +0.000 A 
DOCKED: ATOM     12  C   UNL     1      26.351 -15.084  -0.648 -0.32 -0.00    +0.000 A 
DOCKED: ATOM     13  C   UNL     1      27.551 -15.685  -0.261 -0.29 -0.00    +0.000 A 
DOCKED: ATOM     14  C   UNL     1      27.693 -17.074  -0.335 -0.36 -0.00    +0.000 A 
DOCKED: ATOM     15  C   UNL     1      26.633 -17.864  -0.792 -0.48 -0.00    +0.000 A 
DOCKED: ENDBRANCH   9  10
DOCKED: ENDBRANCH   1   9
DOCKED: TORSDOF 5
DOCKED: TER
DOCKED: ENDMDL
________________________________________________________________________________


	BEGINNING GENETIC ALGORITHM DOCKING 93 of 100
Run: 93 Seed: 750734188 388305405 [ Run 93 of 100 GA/GALS ]
Beginning LAMARCKIAN GENETIC ALGORITHM (LGA), with a maximum of 2500000 energy evaluations.

Final-Value: -11.375


	FINAL GENETIC ALGORITHM DOCKED STATE
	_______________________________________________


Detailed state:  trans 23.140 -16.614 -0.392 quatxyzw -0.319234 0.643028 -0.689317 -0.097199 center 0.710 -0.190 -0.071 ntor 5 179.4951 72.9674 132.4248 78.7956 68.3150
State:	 23.140 -16.614  -0.392  -0.321  0.646 -0.693 -168.844    179.50   72.97  132.42   78.80   68.32

DOCKED: MODEL       93
DOCKED: USER    Run = 93
DOCKED: USER    DPF = ligand_dock.biased.dpf
DOCKED: USER  
DOCKED: USER    Estimated Free Energy of Binding    =   -8.99 kcal/mol  [=(1)+(2)+(3)-(4)]
DOCKED: USER    Estimated Inhibition Constant, Ki   =  255.04 nM (nanomolar)  [Temperature = 298.15 K]
DOCKED: USER    
DOCKED: USER    (1) Final Intermolecular Energy     =  -10.49 kcal/mol
DOCKED: USER        vdW + Hbond + desolv Energy     =  -10.49 kcal/mol
DOCKED: USER        Electrostatic Energy            =   +0.00 kcal/mol
DOCKED: USER    (2) Final Total Internal Energy     =   -0.89 kcal/mol
DOCKED: USER    (3) Torsional Free Energy           =   +1.49 kcal/mol
DOCKED: USER    (4) Unbound System's Energy  [=(2)] =   -0.89 kcal/mol
DOCKED: USER    
DOCKED: USER    
DOCKED: USER    NEWDPF move ligand.pdbqt
DOCKED: USER    NEWDPF about 0.710000 -0.190000 -0.071000
DOCKED: USER    NEWDPF tran0 23.140216 -16.613915 -0.392183
DOCKED: USER    NEWDPF quaternion0 -0.319234 0.643028 -0.689317 -0.097199
DOCKED: USER    NEWDPF axisangle0 -0.320752 0.646087 -0.692596 -168.844186
DOCKED: USER    NEWDPF quat0 -0.320752 0.646087 -0.692596 -168.844186
DOCKED: USER    NEWDPF dihe0 179.50 72.97 132.42 78.80 68.32 
DOCKED: USER  keepresnum = 1 
DOCKED: USER  
DOCKED: REMARK  Name = 
DOCKED: REMARK  5 active torsions:
DOCKED: REMARK  status: ('A' for Active; 'I' for Inactive)
DOCKED: REMARK    1  A    between atoms: O_1  and  N_2
DOCKED: REMARK    2  A    between atoms: C_3  and  C_4
DOCKED: REMARK    3  A    between atoms: C_4  and  C_5
DOCKED: REMARK    4  A    between atoms: C_5  and  C_6
DOCKED: REMARK    5  A    between atoms: C_6  and  C_7
DOCKED: REMARK                            x       y       z     vdW  Elec       q    Type
DOCKED: REMARK                         _______ _______ _______ _____ _____    ______ ____
DOCKED: USER                              x       y       z     vdW  Elec       q    Type
DOCKED: USER                           _______ _______ _______ _____ _____    ______ ____
DOCKED: ROOT
DOCKED: ATOM      1  C   UNL     1      23.440 -17.150  -0.540 -0.65 -0.00    +0.000 C 
DOCKED: ENDROOT
DOCKED: BRANCH   1   2
DOCKED: ATOM      2  C   UNL     1      22.901 -18.582  -0.588 -0.83 -0.00    +0.000 C 
DOCKED: BRANCH   2   4
DOCKED: ATOM      3  N   UNL     1      20.829 -19.735  -1.500 -0.78 -0.00    +0.000 N 
DOCKED: ATOM      4  C   UNL     1      21.438 -18.581  -0.916 -0.82 -0.00    +0.000 C 
DOCKED: ATOM      5  O   UNL     1      20.753 -17.544  -0.710 -2.11 +0.00    +0.000 OA
DOCKED: ATOM      6  H   UNL     1      21.370 -20.540  -1.668 -0.31 -0.00    +0.000 HD
DOCKED: BRANCH   3   7
DOCKED: ATOM      7  O   UNL     1      19.515 -19.730  -1.825 -1.67 -0.00    +0.000 OA
DOCKED: ATOM      8  H   UNL     1      19.127 -18.872  -1.591 -0.56 -0.00    +0.000 HD
DOCKED: ENDBRANCH   3   7
DOCKED: ENDBRANCH   2   4
DOCKED: ENDBRANCH   1   2
DOCKED: BRANCH   1   9
DOCKED: ATOM      9  C   UNL     1      24.192 -16.802  -1.830 -0.48 -0.00    +0.000 C 
DOCKED: BRANCH   9  10
DOCKED: ATOM     10  C   UNL     1      25.664 -16.642  -1.557 -0.51 -0.00    +0.000 A 
DOCKED: ATOM     11  C   UNL     1      26.390 -15.605  -2.165 -0.38 -0.00    +0.000 A 
DOCKED: ATOM     12  C   UNL     1      27.763 -15.477  -1.936 -0.24 -0.00    +0.000 A 
DOCKED: ATOM     13  C   UNL     1      28.422 -16.388  -1.106 -0.28 -0.00    +0.000 A 
DOCKED: ATOM     14  C   UNL     1      27.709 -17.431  -0.507 -0.33 -0.00    +0.000 A 
DOCKED: ATOM     15  C   UNL     1      26.336 -17.563  -0.734 -0.53 -0.00    +0.000 A 
DOCKED: ENDBRANCH   9  10
DOCKED: ENDBRANCH   1   9
DOCKED: TORSDOF 5
DOCKED: TER
DOCKED: ENDMDL
________________________________________________________________________________


	BEGINNING GENETIC ALGORITHM DOCKING 94 of 100
Run: 94 Seed: 22858042 899615666 [ Run 94 of 100 GA/GALS ]
Beginning LAMARCKIAN GENETIC ALGORITHM (LGA), with a maximum of 2500000 energy evaluations.

Final-Value: -11.406


	FINAL GENETIC ALGORITHM DOCKED STATE
	_______________________________________________


Detailed state:  trans 23.141 -19.211 0.261 quatxyzw 0.303465 -0.941654 -0.049775 0.136817 center 0.710 -0.190 -0.071 ntor 5 -161.2571 165.1002 -151.1277 91.3779 78.3599
State:	 23.141 -19.211   0.261   0.306 -0.951 -0.050 164.273   -161.26  165.10 -151.13   91.38   78.36

DOCKED: MODEL       94
DOCKED: USER    Run = 94
DOCKED: USER    DPF = ligand_dock.biased.dpf
DOCKED: USER  
DOCKED: USER    Estimated Free Energy of Binding    =   -9.04 kcal/mol  [=(1)+(2)+(3)-(4)]
DOCKED: USER    Estimated Inhibition Constant, Ki   =  236.88 nM (nanomolar)  [Temperature = 298.15 K]
DOCKED: USER    
DOCKED: USER    (1) Final Intermolecular Energy     =  -10.53 kcal/mol
DOCKED: USER        vdW + Hbond + desolv Energy     =  -10.53 kcal/mol
DOCKED: USER        Electrostatic Energy            =   +0.00 kcal/mol
DOCKED: USER    (2) Final Total Internal Energy     =   -0.88 kcal/mol
DOCKED: USER    (3) Torsional Free Energy           =   +1.49 kcal/mol
DOCKED: USER    (4) Unbound System's Energy  [=(2)] =   -0.88 kcal/mol
DOCKED: USER    
DOCKED: USER    
DOCKED: USER    NEWDPF move ligand.pdbqt
DOCKED: USER    NEWDPF about 0.710000 -0.190000 -0.071000
DOCKED: USER    NEWDPF tran0 23.141035 -19.211074 0.260856
DOCKED: USER    NEWDPF quaternion0 0.303465 -0.941654 -0.049775 0.136817
DOCKED: USER    NEWDPF axisangle0 0.306346 -0.950593 -0.050247 164.272648
DOCKED: USER    NEWDPF quat0 0.306346 -0.950593 -0.050247 164.272648
DOCKED: USER    NEWDPF dihe0 -161.26 165.10 -151.13 91.38 78.36 
DOCKED: USER  keepresnum = 1 
DOCKED: USER  
DOCKED: REMARK  Name = 
DOCKED: REMARK  5 active torsions:
DOCKED: REMARK  status: ('A' for Active; 'I' for Inactive)
DOCKED: REMARK    1  A    between atoms: O_1  and  N_2
DOCKED: REMARK    2  A    between atoms: C_3  and  C_4
DOCKED: REMARK    3  A    between atoms: C_4  and  C_5
DOCKED: REMARK    4  A    between atoms: C_5  and  C_6
DOCKED: REMARK    5  A    between atoms: C_6  and  C_7
DOCKED: REMARK                            x       y       z     vdW  Elec       q    Type
DOCKED: REMARK                         _______ _______ _______ _____ _____    ______ ____
DOCKED: USER                              x       y       z     vdW  Elec       q    Type
DOCKED: USER                           _______ _______ _______ _____ _____    ______ ____
DOCKED: ROOT
DOCKED: ATOM      1  C   UNL     1      23.190 -18.995  -0.331 -0.71 -0.00    +0.000 C 
DOCKED: ENDROOT
DOCKED: BRANCH   1   2
DOCKED: ATOM      2  C   UNL     1      22.225 -19.164  -1.508 -0.60 -0.00    +0.000 C 
DOCKED: BRANCH   2   4
DOCKED: ATOM      3  N   UNL     1      19.918 -20.119  -1.040 -0.71 -0.00    +0.000 N 
DOCKED: ATOM      4  C   UNL     1      20.807 -18.999  -1.051 -0.88 -0.00    +0.000 C 
DOCKED: ATOM      5  O   UNL     1      20.388 -17.860  -0.712 -2.26 -0.00    +0.000 OA
DOCKED: ATOM      6  H   UNL     1      20.246 -21.005  -1.314 -0.53 -0.00    +0.000 HD
DOCKED: BRANCH   3   7
DOCKED: ATOM      7  O   UNL     1      18.628 -19.971  -0.655 -0.85 -0.00    +0.000 OA
DOCKED: ATOM      8  H   UNL     1      18.382 -19.034  -0.703 -0.59 -0.00    +0.000 HD
DOCKED: ENDBRANCH   3   7
DOCKED: ENDBRANCH   2   4
DOCKED: ENDBRANCH   1   2
DOCKED: BRANCH   1   9
DOCKED: ATOM      9  C   UNL     1      23.586 -17.526  -0.151 -0.55 -0.00    +0.000 C 
DOCKED: BRANCH   9  10
DOCKED: ATOM     10  C   UNL     1      24.958 -17.275  -0.719 -0.59 -0.00    +0.000 A 
DOCKED: ATOM     11  C   UNL     1      26.078 -17.931  -0.183 -0.57 -0.00    +0.000 A 
DOCKED: ATOM     12  C   UNL     1      27.355 -17.673  -0.690 -0.41 -0.00    +0.000 A 
DOCKED: ATOM     13  C   UNL     1      27.524 -16.752  -1.727 -0.34 -0.00    +0.000 A 
DOCKED: ATOM     14  C   UNL     1      26.416 -16.085  -2.257 -0.41 -0.00    +0.000 A 
DOCKED: ATOM     15  C   UNL     1      25.137 -16.339  -1.752 -0.53 -0.00    +0.000 A 
DOCKED: ENDBRANCH   9  10
DOCKED: ENDBRANCH   1   9
DOCKED: TORSDOF 5
DOCKED: TER
DOCKED: ENDMDL
________________________________________________________________________________


	BEGINNING GENETIC ALGORITHM DOCKING 95 of 100
Run: 95 Seed: 1091017935 28129148 [ Run 95 of 100 GA/GALS ]
Beginning LAMARCKIAN GENETIC ALGORITHM (LGA), with a maximum of 2500000 energy evaluations.

Final-Value: -11.612


	FINAL GENETIC ALGORITHM DOCKED STATE
	_______________________________________________


Detailed state:  trans 23.258 -18.569 0.276 quatxyzw 0.380006 -0.913450 0.136379 0.051041 center 0.710 -0.190 -0.071 ntor 5 -167.8317 138.0570 58.6383 97.8486 59.0947
State:	 23.258 -18.569   0.276   0.381 -0.915  0.137 174.149   -167.83  138.06   58.64   97.85   59.09

DOCKED: MODEL       95
DOCKED: USER    Run = 95
DOCKED: USER    DPF = ligand_dock.biased.dpf
DOCKED: USER  
DOCKED: USER    Estimated Free Energy of Binding    =   -9.26 kcal/mol  [=(1)+(2)+(3)-(4)]
DOCKED: USER    Estimated Inhibition Constant, Ki   =  163.09 nM (nanomolar)  [Temperature = 298.15 K]
DOCKED: USER    
DOCKED: USER    (1) Final Intermolecular Energy     =  -10.75 kcal/mol
DOCKED: USER        vdW + Hbond + desolv Energy     =  -10.75 kcal/mol
DOCKED: USER        Electrostatic Energy            =   +0.00 kcal/mol
DOCKED: USER    (2) Final Total Internal Energy     =   -0.86 kcal/mol
DOCKED: USER    (3) Torsional Free Energy           =   +1.49 kcal/mol
DOCKED: USER    (4) Unbound System's Energy  [=(2)] =   -0.86 kcal/mol
DOCKED: USER    
DOCKED: USER    
DOCKED: USER    NEWDPF move ligand.pdbqt
DOCKED: USER    NEWDPF about 0.710000 -0.190000 -0.071000
DOCKED: USER    NEWDPF tran0 23.257867 -18.568833 0.276207
DOCKED: USER    NEWDPF quaternion0 0.380006 -0.913450 0.136379 0.051041
DOCKED: USER    NEWDPF axisangle0 0.380502 -0.914642 0.136557 174.148551
DOCKED: USER    NEWDPF quat0 0.380502 -0.914642 0.136557 174.148551
DOCKED: USER    NEWDPF dihe0 -167.83 138.06 58.64 97.85 59.09 
DOCKED: USER  keepresnum = 1 
DOCKED: USER  
DOCKED: REMARK  Name = 
DOCKED: REMARK  5 active torsions:
DOCKED: REMARK  status: ('A' for Active; 'I' for Inactive)
DOCKED: REMARK    1  A    between atoms: O_1  and  N_2
DOCKED: REMARK    2  A    between atoms: C_3  and  C_4
DOCKED: REMARK    3  A    between atoms: C_4  and  C_5
DOCKED: REMARK    4  A    between atoms: C_5  and  C_6
DOCKED: REMARK    5  A    between atoms: C_6  and  C_7
DOCKED: REMARK                            x       y       z     vdW  Elec       q    Type
DOCKED: REMARK                         _______ _______ _______ _____ _____    ______ ____
DOCKED: USER                              x       y       z     vdW  Elec       q    Type
DOCKED: USER                           _______ _______ _______ _____ _____    ______ ____
DOCKED: ROOT
DOCKED: ATOM      1  C   UNL     1      23.275 -18.613  -0.354 -0.81 -0.00    +0.000 C 
DOCKED: ENDROOT
DOCKED: BRANCH   1   2
DOCKED: ATOM      2  C   UNL     1      22.330 -19.356  -1.302 -0.65 -0.00    +0.000 C 
DOCKED: BRANCH   2   4
DOCKED: ATOM      3  N   UNL     1      19.917 -20.083  -0.978 -0.74 -0.00    +0.000 N 
DOCKED: ATOM      4  C   UNL     1      20.902 -19.046  -0.967 -0.88 -0.00    +0.000 C 
DOCKED: ATOM      5  O   UNL     1      20.564 -17.860  -0.712 -2.32 -0.00    +0.000 OA
DOCKED: ATOM      6  H   UNL     1      20.184 -21.007  -1.187 -0.52 -0.00    +0.000 HD
DOCKED: BRANCH   3   7
DOCKED: ATOM      7  O   UNL     1      18.621 -19.805  -0.704 -0.82 -0.00    +0.000 OA
DOCKED: ATOM      8  H   UNL     1      18.488 -18.843  -0.711 -0.55 -0.00    +0.000 HD
DOCKED: ENDBRANCH   3   7
DOCKED: ENDBRANCH   2   4
DOCKED: ENDBRANCH   1   2
DOCKED: BRANCH   1   9
DOCKED: ATOM      9  C   UNL     1      23.489 -17.166  -0.814 -0.71 -0.00    +0.000 C 
DOCKED: BRANCH   9  10
DOCKED: ATOM     10  C   UNL     1      24.948 -16.905  -1.075 -0.57 -0.00    +0.000 A 
DOCKED: ATOM     11  C   UNL     1      25.340 -16.005  -2.080 -0.49 -0.00    +0.000 A 
DOCKED: ATOM     12  C   UNL     1      26.696 -15.788  -2.343 -0.36 -0.00    +0.000 A 
DOCKED: ATOM     13  C   UNL     1      27.669 -16.474  -1.612 -0.32 -0.00    +0.000 A 
DOCKED: ATOM     14  C   UNL     1      27.288 -17.381  -0.619 -0.43 -0.00    +0.000 A 
DOCKED: ATOM     15  C   UNL     1      25.934 -17.602  -0.353 -0.57 -0.00    +0.000 A 
DOCKED: ENDBRANCH   9  10
DOCKED: ENDBRANCH   1   9
DOCKED: TORSDOF 5
DOCKED: TER
DOCKED: ENDMDL
________________________________________________________________________________


	BEGINNING GENETIC ALGORITHM DOCKING 96 of 100
Run: 96 Seed: 193196062 1384193832 [ Run 96 of 100 GA/GALS ]
Beginning LAMARCKIAN GENETIC ALGORITHM (LGA), with a maximum of 2500000 energy evaluations.

Final-Value: -11.388


	FINAL GENETIC ALGORITHM DOCKED STATE
	_______________________________________________


Detailed state:  trans 23.513 -16.655 -0.930 quatxyzw 0.266175 -0.533056 0.799438 0.076816 center 0.710 -0.190 -0.071 ntor 5 172.3180 52.5854 138.0458 72.8941 5.8080
State:	 23.513 -16.655  -0.930   0.267 -0.535  0.802 171.189    172.32   52.59  138.05   72.89    5.81

DOCKED: MODEL       96
DOCKED: USER    Run = 96
DOCKED: USER    DPF = ligand_dock.biased.dpf
DOCKED: USER  
DOCKED: USER    Estimated Free Energy of Binding    =   -9.03 kcal/mol  [=(1)+(2)+(3)-(4)]
DOCKED: USER    Estimated Inhibition Constant, Ki   =  238.41 nM (nanomolar)  [Temperature = 298.15 K]
DOCKED: USER    
DOCKED: USER    (1) Final Intermolecular Energy     =  -10.53 kcal/mol
DOCKED: USER        vdW + Hbond + desolv Energy     =  -10.53 kcal/mol
DOCKED: USER        Electrostatic Energy            =   +0.00 kcal/mol
DOCKED: USER    (2) Final Total Internal Energy     =   -0.86 kcal/mol
DOCKED: USER    (3) Torsional Free Energy           =   +1.49 kcal/mol
DOCKED: USER    (4) Unbound System's Energy  [=(2)] =   -0.86 kcal/mol
DOCKED: USER    
DOCKED: USER    
DOCKED: USER    NEWDPF move ligand.pdbqt
DOCKED: USER    NEWDPF about 0.710000 -0.190000 -0.071000
DOCKED: USER    NEWDPF tran0 23.513214 -16.655006 -0.930039
DOCKED: USER    NEWDPF quaternion0 0.266175 -0.533056 0.799438 0.076816
DOCKED: USER    NEWDPF axisangle0 0.266964 -0.534636 0.801807 171.188838
DOCKED: USER    NEWDPF quat0 0.266964 -0.534636 0.801807 171.188838
DOCKED: USER    NEWDPF dihe0 172.32 52.59 138.05 72.89 5.81 
DOCKED: USER  keepresnum = 1 
DOCKED: USER  
DOCKED: REMARK  Name = 
DOCKED: REMARK  5 active torsions:
DOCKED: REMARK  status: ('A' for Active; 'I' for Inactive)
DOCKED: REMARK    1  A    between atoms: O_1  and  N_2
DOCKED: REMARK    2  A    between atoms: C_3  and  C_4
DOCKED: REMARK    3  A    between atoms: C_4  and  C_5
DOCKED: REMARK    4  A    between atoms: C_5  and  C_6
DOCKED: REMARK    5  A    between atoms: C_6  and  C_7
DOCKED: REMARK                            x       y       z     vdW  Elec       q    Type
DOCKED: REMARK                         _______ _______ _______ _____ _____    ______ ____
DOCKED: USER                              x       y       z     vdW  Elec       q    Type
DOCKED: USER                           _______ _______ _______ _____ _____    ______ ____
DOCKED: ROOT
DOCKED: ATOM      1  C   UNL     1      23.793 -17.218  -0.872 -0.71 -0.00    +0.000 C 
DOCKED: ENDROOT
DOCKED: BRANCH   1   2
DOCKED: ATOM      2  C   UNL     1      23.170 -18.587  -0.581 -0.83 -0.00    +0.000 C 
DOCKED: BRANCH   2   4
DOCKED: ATOM      3  N   UNL     1      21.174 -19.711  -1.681 -0.62 -0.00    +0.000 N 
DOCKED: ATOM      4  C   UNL     1      21.722 -18.596  -0.973 -0.82 -0.00    +0.000 C 
DOCKED: ATOM      5  O   UNL     1      20.997 -17.600  -0.709 -2.10 -0.00    +0.000 OA
DOCKED: ATOM      6  H   UNL     1      21.746 -20.483  -1.893 -0.43 -0.00    +0.000 HD
DOCKED: BRANCH   3   7
DOCKED: ATOM      7  O   UNL     1      19.875 -19.714  -2.062 -1.85 -0.00    +0.000 OA
DOCKED: ATOM      8  H   UNL     1      19.423 -18.947  -1.676 -0.35 -0.00    +0.000 HD
DOCKED: ENDBRANCH   3   7
DOCKED: ENDBRANCH   2   4
DOCKED: ENDBRANCH   1   2
DOCKED: BRANCH   1   9
DOCKED: ATOM      9  C   UNL     1      24.727 -17.287  -2.085 -0.59 -0.00    +0.000 C 
DOCKED: BRANCH   9  10
DOCKED: ATOM     10  C   UNL     1      25.441 -15.976  -2.277 -0.49 -0.00    +0.000 A 
DOCKED: ATOM     11  C   UNL     1      25.515 -15.387  -3.550 -0.50 -0.00    +0.000 A 
DOCKED: ATOM     12  C   UNL     1      26.206 -14.186  -3.732 -0.41 -0.00    +0.000 A 
DOCKED: ATOM     13  C   UNL     1      26.836 -13.569  -2.648 -0.21 -0.00    +0.000 A 
DOCKED: ATOM     14  C   UNL     1      26.779 -14.155  -1.380 -0.24 -0.00    +0.000 A 
DOCKED: ATOM     15  C   UNL     1      26.090 -15.357  -1.194 -0.37 -0.00    +0.000 A 
DOCKED: ENDBRANCH   9  10
DOCKED: ENDBRANCH   1   9
DOCKED: TORSDOF 5
DOCKED: TER
DOCKED: ENDMDL
________________________________________________________________________________


	BEGINNING GENETIC ALGORITHM DOCKING 97 of 100
Run: 97 Seed: 1298979551 1721002700 [ Run 97 of 100 GA/GALS ]
Beginning LAMARCKIAN GENETIC ALGORITHM (LGA), with a maximum of 2500000 energy evaluations.

Final-Value: -11.719


	FINAL GENETIC ALGORITHM DOCKED STATE
	_______________________________________________


Detailed state:  trans 24.421 -18.761 -0.983 quatxyzw -0.140631 0.768185 0.209044 0.588571 center 0.710 -0.190 -0.071 ntor 5 164.8226 -13.2597 61.1258 -103.5215 -50.1471
State:	 24.421 -18.761  -0.983  -0.174  0.950  0.259 107.889    164.82  -13.26   61.13 -103.52  -50.15

DOCKED: MODEL       97
DOCKED: USER    Run = 97
DOCKED: USER    DPF = ligand_dock.biased.dpf
DOCKED: USER  
DOCKED: USER    Estimated Free Energy of Binding    =   -9.35 kcal/mol  [=(1)+(2)+(3)-(4)]
DOCKED: USER    Estimated Inhibition Constant, Ki   =  140.73 nM (nanomolar)  [Temperature = 298.15 K]
DOCKED: USER    
DOCKED: USER    (1) Final Intermolecular Energy     =  -10.84 kcal/mol
DOCKED: USER        vdW + Hbond + desolv Energy     =  -10.84 kcal/mol
DOCKED: USER        Electrostatic Energy            =   +0.00 kcal/mol
DOCKED: USER    (2) Final Total Internal Energy     =   -0.88 kcal/mol
DOCKED: USER    (3) Torsional Free Energy           =   +1.49 kcal/mol
DOCKED: USER    (4) Unbound System's Energy  [=(2)] =   -0.88 kcal/mol
DOCKED: USER    
DOCKED: USER    
DOCKED: USER    NEWDPF move ligand.pdbqt
DOCKED: USER    NEWDPF about 0.710000 -0.190000 -0.071000
DOCKED: USER    NEWDPF tran0 24.420972 -18.761345 -0.982748
DOCKED: USER    NEWDPF quaternion0 -0.140631 0.768185 0.209044 0.588571
DOCKED: USER    NEWDPF axisangle0 -0.173952 0.950200 0.258576 107.888663
DOCKED: USER    NEWDPF quat0 -0.173952 0.950200 0.258576 107.888663
DOCKED: USER    NEWDPF dihe0 164.82 -13.26 61.13 -103.52 -50.15 
DOCKED: USER  keepresnum = 1 
DOCKED: USER  
DOCKED: REMARK  Name = 
DOCKED: REMARK  5 active torsions:
DOCKED: REMARK  status: ('A' for Active; 'I' for Inactive)
DOCKED: REMARK    1  A    between atoms: O_1  and  N_2
DOCKED: REMARK    2  A    between atoms: C_3  and  C_4
DOCKED: REMARK    3  A    between atoms: C_4  and  C_5
DOCKED: REMARK    4  A    between atoms: C_5  and  C_6
DOCKED: REMARK    5  A    between atoms: C_6  and  C_7
DOCKED: REMARK                            x       y       z     vdW  Elec       q    Type
DOCKED: REMARK                         _______ _______ _______ _____ _____    ______ ____
DOCKED: USER                              x       y       z     vdW  Elec       q    Type
DOCKED: USER                           _______ _______ _______ _____ _____    ______ ____
DOCKED: ROOT
DOCKED: ATOM      1  C   UNL     1      23.829 -18.549  -1.040 -0.80 -0.00    +0.000 C 
DOCKED: ENDROOT
DOCKED: BRANCH   1   2
DOCKED: ATOM      2  C   UNL     1      22.679 -18.597  -0.030 -0.77 -0.00    +0.000 C 
DOCKED: BRANCH   2   4
DOCKED: ATOM      3  N   UNL     1      20.937 -19.738  -1.486 -0.75 -0.00    +0.000 N 
DOCKED: ATOM      4  C   UNL     1      21.358 -18.593  -0.739 -0.86 -0.00    +0.000 C 
DOCKED: ATOM      5  O   UNL     1      20.635 -17.562  -0.708 -2.14 +0.00    +0.000 OA
DOCKED: ATOM      6  H   UNL     1      21.509 -20.538  -1.515 -0.23 -0.00    +0.000 HD
DOCKED: BRANCH   3   7
DOCKED: ATOM      7  O   UNL     1      19.758 -19.730  -2.152 -1.76 -0.00    +0.000 OA
DOCKED: ATOM      8  H   UNL     1      19.214 -18.990  -1.838 -0.52 -0.00    +0.000 HD
DOCKED: ENDBRANCH   3   7
DOCKED: ENDBRANCH   2   4
DOCKED: ENDBRANCH   1   2
DOCKED: BRANCH   1   9
DOCKED: ATOM      9  C   UNL     1      24.002 -17.136  -1.608 -0.60 -0.00    +0.000 C 
DOCKED: BRANCH   9  10
DOCKED: ATOM     10  C   UNL     1      25.440 -16.702  -1.515 -0.53 -0.00    +0.000 A 
DOCKED: ATOM     11  C   UNL     1      25.976 -15.813  -2.461 -0.45 -0.00    +0.000 A 
DOCKED: ATOM     12  C   UNL     1      27.321 -15.436  -2.391 -0.28 -0.00    +0.000 A 
DOCKED: ATOM     13  C   UNL     1      28.141 -15.950  -1.384 -0.26 -0.00    +0.000 A 
DOCKED: ATOM     14  C   UNL     1      27.619 -16.845  -0.446 -0.37 -0.00    +0.000 A 
DOCKED: ATOM     15  C   UNL     1      26.275 -17.226  -0.512 -0.52 -0.00    +0.000 A 
DOCKED: ENDBRANCH   9  10
DOCKED: ENDBRANCH   1   9
DOCKED: TORSDOF 5
DOCKED: TER
DOCKED: ENDMDL
________________________________________________________________________________


	BEGINNING GENETIC ALGORITHM DOCKING 98 of 100
Run: 98 Seed: 1357350812 1377824913 [ Run 98 of 100 GA/GALS ]
Beginning LAMARCKIAN GENETIC ALGORITHM (LGA), with a maximum of 2500000 energy evaluations.

Final-Value: -11.586


	FINAL GENETIC ALGORITHM DOCKED STATE
	_______________________________________________


Detailed state:  trans 24.099 -18.142 -1.843 quatxyzw 0.220256 -0.467195 -0.672362 -0.530231 center 0.710 -0.190 -0.071 ntor 5 173.7079 16.5111 -20.7826 -58.2804 -21.5034
State:	 24.099 -18.142  -1.843   0.260 -0.551 -0.793 -115.958    173.71   16.51  -20.78  -58.28  -21.50

DOCKED: MODEL       98
DOCKED: USER    Run = 98
DOCKED: USER    DPF = ligand_dock.biased.dpf
DOCKED: USER  
DOCKED: USER    Estimated Free Energy of Binding    =   -9.24 kcal/mol  [=(1)+(2)+(3)-(4)]
DOCKED: USER    Estimated Inhibition Constant, Ki   =  168.34 nM (nanomolar)  [Temperature = 298.15 K]
DOCKED: USER    
DOCKED: USER    (1) Final Intermolecular Energy     =  -10.73 kcal/mol
DOCKED: USER        vdW + Hbond + desolv Energy     =  -10.73 kcal/mol
DOCKED: USER        Electrostatic Energy            =   +0.00 kcal/mol
DOCKED: USER    (2) Final Total Internal Energy     =   -0.85 kcal/mol
DOCKED: USER    (3) Torsional Free Energy           =   +1.49 kcal/mol
DOCKED: USER    (4) Unbound System's Energy  [=(2)] =   -0.85 kcal/mol
DOCKED: USER    
DOCKED: USER    
DOCKED: USER    NEWDPF move ligand.pdbqt
DOCKED: USER    NEWDPF about 0.710000 -0.190000 -0.071000
DOCKED: USER    NEWDPF tran0 24.098789 -18.142392 -1.843360
DOCKED: USER    NEWDPF quaternion0 0.220256 -0.467195 -0.672362 -0.530231
DOCKED: USER    NEWDPF axisangle0 0.259781 -0.551033 -0.793017 -115.957934
DOCKED: USER    NEWDPF quat0 0.259781 -0.551033 -0.793017 -115.957934
DOCKED: USER    NEWDPF dihe0 173.71 16.51 -20.78 -58.28 -21.50 
DOCKED: USER  keepresnum = 1 
DOCKED: USER  
DOCKED: REMARK  Name = 
DOCKED: REMARK  5 active torsions:
DOCKED: REMARK  status: ('A' for Active; 'I' for Inactive)
DOCKED: REMARK    1  A    between atoms: O_1  and  N_2
DOCKED: REMARK    2  A    between atoms: C_3  and  C_4
DOCKED: REMARK    3  A    between atoms: C_4  and  C_5
DOCKED: REMARK    4  A    between atoms: C_5  and  C_6
DOCKED: REMARK    5  A    between atoms: C_6  and  C_7
DOCKED: REMARK                            x       y       z     vdW  Elec       q    Type
DOCKED: REMARK                         _______ _______ _______ _____ _____    ______ ____
DOCKED: USER                              x       y       z     vdW  Elec       q    Type
DOCKED: USER                           _______ _______ _______ _____ _____    ______ ____
DOCKED: ROOT
DOCKED: ATOM      1  C   UNL     1      23.678 -17.910  -1.433 -0.75 -0.00    +0.000 C 
DOCKED: ENDROOT
DOCKED: BRANCH   1   2
DOCKED: ATOM      2  C   UNL     1      22.790 -18.652  -0.430 -0.83 -0.00    +0.000 C 
DOCKED: BRANCH   2   4
DOCKED: ATOM      3  N   UNL     1      20.790 -19.764  -1.533 -0.76 -0.00    +0.000 N 
DOCKED: ATOM      4  C   UNL     1      21.359 -18.628  -0.878 -0.84 -0.00    +0.000 C 
DOCKED: ATOM      5  O   UNL     1      20.670 -17.587  -0.711 -2.15 +0.00    +0.000 OA
DOCKED: ATOM      6  H   UNL     1      21.334 -20.572  -1.670 -0.29 -0.00    +0.000 HD
DOCKED: BRANCH   3   7
DOCKED: ATOM      7  O   UNL     1      19.507 -19.737  -1.966 -1.61 -0.00    +0.000 OA
DOCKED: ATOM      8  H   UNL     1      19.082 -18.917  -1.669 -0.56 -0.00    +0.000 HD
DOCKED: ENDBRANCH   3   7
DOCKED: ENDBRANCH   2   4
DOCKED: ENDBRANCH   1   2
DOCKED: BRANCH   1   9
DOCKED: ATOM      9  C   UNL     1      24.427 -16.757  -0.756 -0.59 -0.00    +0.000 C 
DOCKED: BRANCH   9  10
DOCKED: ATOM     10  C   UNL     1      25.645 -16.378  -1.555 -0.50 -0.00    +0.000 A 
DOCKED: ATOM     11  C   UNL     1      25.508 -15.781  -2.819 -0.49 -0.00    +0.000 A 
DOCKED: ATOM     12  C   UNL     1      26.640 -15.459  -3.573 -0.42 -0.00    +0.000 A 
DOCKED: ATOM     13  C   UNL     1      27.916 -15.738  -3.076 -0.26 -0.00    +0.000 A 
DOCKED: ATOM     14  C   UNL     1      28.061 -16.344  -1.824 -0.28 -0.00    +0.000 A 
DOCKED: ATOM     15  C   UNL     1      26.932 -16.669  -1.067 -0.42 -0.00    +0.000 A 
DOCKED: ENDBRANCH   9  10
DOCKED: ENDBRANCH   1   9
DOCKED: TORSDOF 5
DOCKED: TER
DOCKED: ENDMDL
________________________________________________________________________________


	BEGINNING GENETIC ALGORITHM DOCKING 99 of 100
Run: 99 Seed: 469831749 585432812 [ Run 99 of 100 GA/GALS ]
Beginning LAMARCKIAN GENETIC ALGORITHM (LGA), with a maximum of 2500000 energy evaluations.

Final-Value: -11.395


	FINAL GENETIC ALGORITHM DOCKED STATE
	_______________________________________________


Detailed state:  trans 23.316 -17.906 -0.033 quatxyzw -0.165275 -0.747284 0.629721 0.133054 center 0.710 -0.190 -0.071 ntor 5 -159.3060 141.3477 -150.8349 6.9716 -68.7098
State:	 23.316 -17.906  -0.033  -0.167 -0.754  0.635 164.708   -159.31  141.35 -150.83    6.97  -68.71

DOCKED: MODEL       99
DOCKED: USER    Run = 99
DOCKED: USER    DPF = ligand_dock.biased.dpf
DOCKED: USER  
DOCKED: USER    Estimated Free Energy of Binding    =   -9.07 kcal/mol  [=(1)+(2)+(3)-(4)]
DOCKED: USER    Estimated Inhibition Constant, Ki   =  226.25 nM (nanomolar)  [Temperature = 298.15 K]
DOCKED: USER    
DOCKED: USER    (1) Final Intermolecular Energy     =  -10.56 kcal/mol
DOCKED: USER        vdW + Hbond + desolv Energy     =  -10.56 kcal/mol
DOCKED: USER        Electrostatic Energy            =   +0.00 kcal/mol
DOCKED: USER    (2) Final Total Internal Energy     =   -0.84 kcal/mol
DOCKED: USER    (3) Torsional Free Energy           =   +1.49 kcal/mol
DOCKED: USER    (4) Unbound System's Energy  [=(2)] =   -0.84 kcal/mol
DOCKED: USER    
DOCKED: USER    
DOCKED: USER    NEWDPF move ligand.pdbqt
DOCKED: USER    NEWDPF about 0.710000 -0.190000 -0.071000
DOCKED: USER    NEWDPF tran0 23.315773 -17.905676 -0.032601
DOCKED: USER    NEWDPF quaternion0 -0.165275 -0.747284 0.629721 0.133054
DOCKED: USER    NEWDPF axisangle0 -0.166757 -0.753988 0.635370 164.707802
DOCKED: USER    NEWDPF quat0 -0.166757 -0.753988 0.635370 164.707802
DOCKED: USER    NEWDPF dihe0 -159.31 141.35 -150.83 6.97 -68.71 
DOCKED: USER  keepresnum = 1 
DOCKED: USER  
DOCKED: REMARK  Name = 
DOCKED: REMARK  5 active torsions:
DOCKED: REMARK  status: ('A' for Active; 'I' for Inactive)
DOCKED: REMARK    1  A    between atoms: O_1  and  N_2
DOCKED: REMARK    2  A    between atoms: C_3  and  C_4
DOCKED: REMARK    3  A    between atoms: C_4  and  C_5
DOCKED: REMARK    4  A    between atoms: C_5  and  C_6
DOCKED: REMARK    5  A    between atoms: C_6  and  C_7
DOCKED: REMARK                            x       y       z     vdW  Elec       q    Type
DOCKED: REMARK                         _______ _______ _______ _____ _____    ______ ____
DOCKED: USER                              x       y       z     vdW  Elec       q    Type
DOCKED: USER                           _______ _______ _______ _____ _____    ______ ____
DOCKED: ROOT
DOCKED: ATOM      1  C   UNL     1      23.357 -18.490  -0.269 -0.79 -0.00    +0.000 C 
DOCKED: ENDROOT
DOCKED: BRANCH   1   2
DOCKED: ATOM      2  C   UNL     1      22.444 -19.198  -1.274 -0.71 -0.00    +0.000 C 
DOCKED: BRANCH   2   4
DOCKED: ATOM      3  N   UNL     1      20.049 -19.991  -0.971 -0.77 -0.00    +0.000 N 
DOCKED: ATOM      4  C   UNL     1      21.004 -18.927  -0.954 -0.87 -0.00    +0.000 C 
DOCKED: ATOM      5  O   UNL     1      20.630 -17.750  -0.706 -2.27 -0.00    +0.000 OA
DOCKED: ATOM      6  H   UNL     1      20.344 -20.908  -1.174 -0.44 -0.00    +0.000 HD
DOCKED: BRANCH   3   7
DOCKED: ATOM      7  O   UNL     1      18.743 -19.749  -0.711 -0.91 -0.00    +0.000 OA
DOCKED: ATOM      8  H   UNL     1      18.553 -18.808  -0.854 -0.56 -0.00    +0.000 HD
DOCKED: ENDBRANCH   3   7
DOCKED: ENDBRANCH   2   4
DOCKED: ENDBRANCH   1   2
DOCKED: BRANCH   1   9
DOCKED: ATOM      9  C   UNL     1      24.828 -18.613  -0.682 -0.68 -0.00    +0.000 C 
DOCKED: BRANCH   9  10
DOCKED: ATOM     10  C   UNL     1      25.372 -17.274  -1.104 -0.58 -0.00    +0.000 A 
DOCKED: ATOM     11  C   UNL     1      24.823 -16.601  -2.208 -0.47 -0.00    +0.000 A 
DOCKED: ATOM     12  C   UNL     1      25.351 -15.373  -2.618 -0.44 -0.00    +0.000 A 
DOCKED: ATOM     13  C   UNL     1      26.433 -14.813  -1.936 -0.32 -0.00    +0.000 A 
DOCKED: ATOM     14  C   UNL     1      26.994 -15.482  -0.843 -0.31 -0.00    +0.000 A 
DOCKED: ATOM     15  C   UNL     1      26.470 -16.711  -0.431 -0.44 -0.00    +0.000 A 
DOCKED: ENDBRANCH   9  10
DOCKED: ENDBRANCH   1   9
DOCKED: TORSDOF 5
DOCKED: TER
DOCKED: ENDMDL
________________________________________________________________________________


	BEGINNING GENETIC ALGORITHM DOCKING 100 of 100
Run: 100 Seed: 965823111 1168924370 [ Run 100 of 100 GA/GALS ]
Beginning LAMARCKIAN GENETIC ALGORITHM (LGA), with a maximum of 2500000 energy evaluations.

Final-Value: -11.319


	FINAL GENETIC ALGORITHM DOCKED STATE
	_______________________________________________


Detailed state:  trans 23.740 -18.623 -1.915 quatxyzw 0.278237 -0.465356 -0.602397 -0.585787 center 0.710 -0.190 -0.071 ntor 5 -168.1298 53.0899 3.1069 -88.9776 -39.9276
State:	 23.740 -18.623  -1.915   0.343 -0.574 -0.743 -108.283   -168.13   53.09    3.11  -88.98  -39.93

DOCKED: MODEL      100
DOCKED: USER    Run = 100
DOCKED: USER    DPF = ligand_dock.biased.dpf
DOCKED: USER  
DOCKED: USER    Estimated Free Energy of Binding    =   -8.98 kcal/mol  [=(1)+(2)+(3)-(4)]
DOCKED: USER    Estimated Inhibition Constant, Ki   =  263.65 nM (nanomolar)  [Temperature = 298.15 K]
DOCKED: USER    
DOCKED: USER    (1) Final Intermolecular Energy     =  -10.47 kcal/mol
DOCKED: USER        vdW + Hbond + desolv Energy     =  -10.47 kcal/mol
DOCKED: USER        Electrostatic Energy            =   +0.00 kcal/mol
DOCKED: USER    (2) Final Total Internal Energy     =   -0.85 kcal/mol
DOCKED: USER    (3) Torsional Free Energy           =   +1.49 kcal/mol
DOCKED: USER    (4) Unbound System's Energy  [=(2)] =   -0.85 kcal/mol
DOCKED: USER    
DOCKED: USER    
DOCKED: USER    NEWDPF move ligand.pdbqt
DOCKED: USER    NEWDPF about 0.710000 -0.190000 -0.071000
DOCKED: USER    NEWDPF tran0 23.740411 -18.622527 -1.914600
DOCKED: USER    NEWDPF quaternion0 0.278237 -0.465356 -0.602397 -0.585787
DOCKED: USER    NEWDPF axisangle0 0.343305 -0.574183 -0.743273 -108.282831
DOCKED: USER    NEWDPF quat0 0.343305 -0.574183 -0.743273 -108.282831
DOCKED: USER    NEWDPF dihe0 -168.13 53.09 3.11 -88.98 -39.93 
DOCKED: USER  keepresnum = 1 
DOCKED: USER  
DOCKED: REMARK  Name = 
DOCKED: REMARK  5 active torsions:
DOCKED: REMARK  status: ('A' for Active; 'I' for Inactive)
DOCKED: REMARK    1  A    between atoms: O_1  and  N_2
DOCKED: REMARK    2  A    between atoms: C_3  and  C_4
DOCKED: REMARK    3  A    between atoms: C_4  and  C_5
DOCKED: REMARK    4  A    between atoms: C_5  and  C_6
DOCKED: REMARK    5  A    between atoms: C_6  and  C_7
DOCKED: REMARK                            x       y       z     vdW  Elec       q    Type
DOCKED: REMARK                         _______ _______ _______ _____ _____    ______ ____
DOCKED: USER                              x       y       z     vdW  Elec       q    Type
DOCKED: USER                           _______ _______ _______ _____ _____    ______ ____
DOCKED: ROOT
DOCKED: ATOM      1  C   UNL     1      23.259 -18.473  -1.534 -0.73 -0.00    +0.000 C 
DOCKED: ENDROOT
DOCKED: BRANCH   1   2
DOCKED: ATOM      2  C   UNL     1      22.483 -19.359  -0.556 -0.71 -0.00    +0.000 C 
DOCKED: BRANCH   2   4
DOCKED: ATOM      3  N   UNL     1      20.059 -20.116  -0.636 -0.76 -0.00    +0.000 N 
DOCKED: ATOM      4  C   UNL     1      21.016 -19.055  -0.622 -0.88 -0.00    +0.000 C 
DOCKED: ATOM      5  O   UNL     1      20.631 -17.858  -0.706 -2.35 -0.00    +0.000 OA
DOCKED: ATOM      6  H   UNL     1      20.365 -21.050  -0.579 -0.23 -0.00    +0.000 HD
DOCKED: BRANCH   3   7
DOCKED: ATOM      7  O   UNL     1      18.735 -19.849  -0.724 -0.89 -0.00    +0.000 OA
DOCKED: ATOM      8  H   UNL     1      18.608 -18.916  -0.958 -0.57 -0.00    +0.000 HD
DOCKED: ENDBRANCH   3   7
DOCKED: ENDBRANCH   2   4
DOCKED: ENDBRANCH   1   2
DOCKED: BRANCH   1   9
DOCKED: ATOM      9  C   UNL     1      23.719 -17.178  -0.856 -0.71 -0.00    +0.000 C 
DOCKED: BRANCH   9  10
DOCKED: ATOM     10  C   UNL     1      25.112 -16.816  -1.299 -0.56 -0.00    +0.000 A 
DOCKED: ATOM     11  C   UNL     1      25.308 -15.969  -2.402 -0.48 -0.00    +0.000 A 
DOCKED: ATOM     12  C   UNL     1      26.602 -15.660  -2.832 -0.39 -0.00    +0.000 A 
DOCKED: ATOM     13  C   UNL     1      27.708 -16.200  -2.170 -0.29 -0.00    +0.000 A 
DOCKED: ATOM     14  C   UNL     1      27.521 -17.055  -1.079 -0.39 -0.00    +0.000 A 
DOCKED: ATOM     15  C   UNL     1      26.229 -17.367  -0.647 -0.53 -0.00    +0.000 A 
DOCKED: ENDBRANCH   9  10
DOCKED: ENDBRANCH   1   9
DOCKED: TORSDOF 5
DOCKED: TER
DOCKED: ENDMDL
________________________________________________________________________________

DPF>                           # do this many hybrid GA-LS runs

DPF> analysis                             # perform a ranked cluster analysis


		CLUSTER ANALYSIS OF CONFORMATIONS
		_________________________________

Number of conformations = 100

RMSD cluster analysis will be performed using the ligand atoms only (15 / 15 total atoms).

Outputting structurally similar clusters, ranked in order of increasing energy.


________________________________________________________________________________

Number of distinct conformational clusters found = 1,  out of 100 runs,
Using an rmsd-tolerance of 2.0 A


	CLUSTERING HISTOGRAM
	____________________

________________________________________________________________________________
     |           |     |           |     |                                    
Clus | Lowest    | Run | Mean      | Num | Histogram                          
-ter | Binding   |     | Binding   | in  |                                    
Rank | Energy    |     | Energy    | Clus|    5    10   15   20   25   30   35
_____|___________|_____|___________|_____|____:____|____:____|____:____|____:___
   1 |     -9.51 |  69 |     -9.05 | 100 |####################################################################################################
_____|___________|_____|___________|_____|______________________________________


Number of multi-member conformational clusters found = 1, out of 100 runs.

	RMSD TABLE
	__________

_____________________________________________________________________
     |      |      |           |         |                 |
Rank | Sub- | Run  | Binding   | Cluster | Reference       | Grep
     | Rank |      | Energy    | RMSD    | RMSD            | Pattern
_____|______|______|___________|_________|_________________|___________
   1      1     69       -9.51      0.00     28.51           RANKING
   1      2      2       -9.48      0.98     28.47           RANKING
   1      3     14       -9.48      0.77     28.72           RANKING
   1      4     13       -9.48      0.64     28.44           RANKING
   1      5     50       -9.44      0.74     28.56           RANKING
   1      6     70       -9.43      0.88     28.18           RANKING
   1      7     21       -9.40      0.37     28.66           RANKING
   1      8     75       -9.39      0.53     28.52           RANKING
   1      9     47       -9.39      0.55     28.43           RANKING
   1     10     40       -9.39      0.79     28.32           RANKING
   1     11     10       -9.39      0.37     28.53           RANKING
   1     12     79       -9.38      1.00     28.10           RANKING
   1     13     11       -9.37      0.87     28.22           RANKING
   1     14     25       -9.35      0.37     28.51           RANKING
   1     15     97       -9.35      0.82     28.64           RANKING
   1     16     48       -9.31      0.91     28.08           RANKING
   1     17     39       -9.31      0.82     28.58           RANKING
   1     18     27       -9.30      0.49     28.68           RANKING
   1     19     81       -9.30      0.93     28.08           RANKING
   1     20     49       -9.30      0.88     28.40           RANKING
   1     21     62       -9.30      0.90     28.48           RANKING
   1     22     84       -9.29      0.46     28.52           RANKING
   1     23     88       -9.28      0.84     28.75           RANKING
   1     24     52       -9.28      0.92     28.11           RANKING
   1     25     45       -9.28      0.43     28.59           RANKING
   1     26     60       -9.27      0.72     28.74           RANKING
   1     27     95       -9.26      1.17     28.39           RANKING
   1     28     77       -9.25      1.04     28.17           RANKING
   1     29     30       -9.25      0.76     28.39           RANKING
   1     30     98       -9.24      0.57     28.56           RANKING
   1     31     29       -9.24      0.57     28.55           RANKING
   1     32     42       -9.22      0.89     28.14           RANKING
   1     33     66       -9.22      0.57     28.45           RANKING
   1     34     12       -9.22      0.40     28.57           RANKING
   1     35     63       -9.21      0.75     28.38           RANKING
   1     36     23       -9.20      0.82     28.82           RANKING
   1     37     87       -9.20      1.01     28.76           RANKING
   1     38     76       -9.19      0.76     28.96           RANKING
   1     39     22       -9.19      1.25     28.39           RANKING
   1     40     31       -9.19      1.05     28.34           RANKING
   1     41     15       -9.18      0.56     28.68           RANKING
   1     42     38       -9.18      1.04     28.12           RANKING
   1     43     86       -9.15      0.49     28.64           RANKING
   1     44     28       -9.15      0.41     28.58           RANKING
   1     45     82       -9.14      1.28     28.56           RANKING
   1     46      4       -9.11      1.18     28.25           RANKING
   1     47     83       -9.10      0.84     28.43           RANKING
   1     48     41       -9.07      0.98     28.56           RANKING
   1     49     33       -9.07      0.96     28.15           RANKING
   1     50     99       -9.07      1.21     28.21           RANKING
   1     51      7       -9.05      1.11     28.22           RANKING
   1     52     35       -9.04      1.02     28.72           RANKING
   1     53     61       -9.04      1.20     28.50           RANKING
   1     54     94       -9.04      1.24     28.46           RANKING
   1     55     17       -9.04      1.32     28.59           RANKING
   1     56     96       -9.03      1.04     28.13           RANKING
   1     57      1       -9.01      0.99     28.53           RANKING
   1     58     89       -9.00      1.24     28.20           RANKING
   1     59     93       -8.99      0.88     28.70           RANKING
   1     60     71       -8.99      0.96     28.20           RANKING
   1     61      5       -8.99      1.13     28.29           RANKING
   1     62    100       -8.98      1.11     28.44           RANKING
   1     63     73       -8.97      0.73     28.53           RANKING
   1     64      6       -8.96      0.99     28.33           RANKING
   1     65     78       -8.96      0.69     28.62           RANKING
   1     66     85       -8.95      1.37     28.33           RANKING
   1     67     18       -8.95      1.32     28.44           RANKING
   1     68     24       -8.93      0.94     28.10           RANKING
   1     69     74       -8.93      1.36     28.19           RANKING
   1     70     26       -8.92      1.09     28.67           RANKING
   1     71     34       -8.91      1.13     28.64           RANKING
   1     72     65       -8.91      1.22     28.13           RANKING
   1     73     55       -8.89      0.94     28.92           RANKING
   1     74     80       -8.89      1.38     28.43           RANKING
   1     75     91       -8.87      1.66     28.54           RANKING
   1     76      9       -8.86      1.71     28.30           RANKING
   1     77     67       -8.85      0.97     28.33           RANKING
   1     78     54       -8.85      1.09     28.34           RANKING
   1     79     32       -8.85      1.07     28.39           RANKING
   1     80     53       -8.84      1.19     28.28           RANKING
   1     81      3       -8.83      1.61     28.58           RANKING
   1     82     20       -8.82      1.33     28.54           RANKING
   1     83     36       -8.81      1.62     28.45           RANKING
   1     84     68       -8.81      1.69     28.22           RANKING
   1     85     64       -8.80      1.06     28.71           RANKING
   1     86     37       -8.79      1.60     28.23           RANKING
   1     87     43       -8.77      1.61     28.32           RANKING
   1     88     58       -8.77      1.56     28.62           RANKING
   1     89     59       -8.75      1.79     28.10           RANKING
   1     90     19       -8.74      1.63     28.56           RANKING
   1     91     44       -8.72      1.14     28.50           RANKING
   1     92      8       -8.71      1.35     28.56           RANKING
   1     93     16       -8.67      1.00     28.98           RANKING
   1     94     51       -8.66      1.83     28.57           RANKING
   1     95     56       -8.65      1.73     28.51           RANKING
   1     96     90       -8.65      1.95     28.14           RANKING
   1     97     57       -8.57      1.82     28.31           RANKING
   1     98     92       -8.53      1.87     28.50           RANKING
   1     99     72       -8.21      1.85     28.24           RANKING
   1    100     46       -7.37      1.78     28.39           RANKING
_______________________________________________________________________



	INFORMATION ENTROPY ANALYSIS FOR THIS CLUSTERING
	________________________________________________


Information entropy for this clustering = 0.00  (rmstol = 2.00 Angstrom)

_______________________________________________________________________


	STATISTICAL MECHANICAL ANALYSIS
	_______________________________


Partition function, Q =   101.54            at Temperature, T = 298.15 K
Free energy,        A ~ -2737.52 kcal/mol   at Temperature, T = 298.15 K
Internal energy,    U =    -9.05 kcal/mol   at Temperature, T = 298.15 K
Entropy,            S =     9.15 kcal/mol/K at Temperature, T = 298.15 K

_______________________________________________________________________


	LOWEST ENERGY DOCKED CONFORMATION from EACH CLUSTER
	___________________________________________________



Keeping original residue number (specified in the input PDBQ file) for outputting.

MODEL       69
USER    Run = 69
USER    Cluster Rank = 1
USER    Number of conformations in this cluster = 100
USER  
USER    RMSD from reference structure       = 28.512 A
USER  
USER    Estimated Free Energy of Binding    =   -9.51 kcal/mol  [=(1)+(2)+(3)-(4)]
USER    Estimated Inhibition Constant, Ki   =  107.63 nM (nanomolar)  [Temperature = 298.15 K]
USER    
USER    (1) Final Intermolecular Energy     =  -11.00 kcal/mol
USER        vdW + Hbond + desolv Energy     =  -11.00 kcal/mol
USER        Electrostatic Energy            =   +0.00 kcal/mol
USER    (2) Final Total Internal Energy     =   -0.84 kcal/mol
USER    (3) Torsional Free Energy           =   +1.49 kcal/mol
USER    (4) Unbound System's Energy  [=(2)] =   -0.84 kcal/mol
USER    
USER    
USER  
USER    DPF = ligand_dock.biased.dpf
USER    NEWDPF move	ligand.pdbqt
USER    NEWDPF about	0.710000 -0.190000 -0.071000
USER    NEWDPF tran0	23.542637 -16.963001 -1.254590
USER    NEWDPF axisangle0	-0.056958 -0.187840 0.980547 146.159056
USER    NEWDPF quaternion0	-0.054493 -0.179708 0.938099 0.291044
USER    NEWDPF dihe0	167.01 40.78 94.13 21.78 -32.25 
USER  
USER                              x       y       z    vdW   Elec        q     RMS 
ATOM      1  C   UNL     1      23.613 -17.304  -0.727 -0.73 -0.00    +0.000    28.512
ATOM      2  C   UNL     1      22.874 -18.569  -0.283 -0.82 -0.00    +0.000    28.512
ATOM      3  N   UNL     1      21.073 -19.724  -1.654 -0.68 -0.00    +0.000    28.512
ATOM      4  C   UNL     1      21.495 -18.604  -0.872 -0.84 -0.00    +0.000    28.512
ATOM      5  O   UNL     1      20.721 -17.624  -0.708 -2.17 +0.00    +0.000    28.512
ATOM      6  H   UNL     1      21.685 -20.484  -1.787 -0.40 -0.00    +0.000    28.512
ATOM      7  O   UNL     1      19.840 -19.749  -2.212 -1.84 -0.00    +0.000    28.512
ATOM      8  H   UNL     1      19.296 -19.044  -1.827 -0.46 -0.00    +0.000    28.512
ATOM      9  C   UNL     1      25.131 -17.485  -0.612 -0.67 -0.00    +0.000    28.512
ATOM     10  C   UNL     1      25.840 -16.700  -1.683 -0.50 -0.00    +0.000    28.512
ATOM     11  C   UNL     1      27.238 -16.768  -1.804 -0.35 -0.00    +0.000    28.512
ATOM     12  C   UNL     1      27.897 -16.013  -2.779 -0.26 -0.00    +0.000    28.512
ATOM     13  C   UNL     1      27.169 -15.179  -3.631 -0.35 -0.00    +0.000    28.512
ATOM     14  C   UNL     1      25.778 -15.096  -3.508 -0.50 -0.00    +0.000    28.512
ATOM     15  C   UNL     1      25.115 -15.848  -2.534 -0.44 -0.00    +0.000    28.512
TER
ENDMDL


AVSFLD: # AVS field file
AVSFLD: #
AVSFLD: # Created by AutoDock
AVSFLD: #
AVSFLD: ndim=2           # number of dimensions in the field
AVSFLD: nspace=1         # number of physical coordinates
AVSFLD: veclen=7         # vector size
AVSFLD: dim1=15          # atoms
AVSFLD: dim2=1           # conformations
AVSFLD: data=Real       # data type (byte,integer,Real,double)
AVSFLD: field=uniform    # field coordinate layout
AVSFLD: label= x y z vdW Elec q RMS
AVSFLD: variable 1 file = ligand_dock.biased.dlg.pdb filetype = ascii offset = 5 stride = 12
AVSFLD: variable 2 file = ligand_dock.biased.dlg.pdb filetype = ascii offset = 6 stride = 12
AVSFLD: variable 3 file = ligand_dock.biased.dlg.pdb filetype = ascii offset = 7 stride = 12
AVSFLD: variable 4 file = ligand_dock.biased.dlg.pdb filetype = ascii offset = 8 stride = 12
AVSFLD: variable 5 file = ligand_dock.biased.dlg.pdb filetype = ascii offset = 9 stride = 12
AVSFLD: variable 6 file = ligand_dock.biased.dlg.pdb filetype = ascii offset = 10 stride = 12
AVSFLD: variable 7 file = ligand_dock.biased.dlg.pdb filetype = ascii offset = 11 stride = 12
AVSFLD: # end of file

>>> Closing the docking parameter file (DPF)...
This docking finished at:			10:10 58" a.m., 11/08/2024


________________________________________________________________________________

autodock4: Successful Completion on "ThinkStation-P620"

Real= 7m 41.74s,  CPU= 7m 41.41s,  System= 0.21s
________________________________________________________________________________

