REMARK  Name = 
REMARK  11 active torsions:
REMARK  status: ('A' for Active; 'I' for Inactive)
REMARK    1  A    between atoms: C_1  and  N_2
REMARK    2  A    between atoms: N_2  and  C_3
REMARK    3  A    between atoms: N_2  and  C_22
REMARK    4  A    between atoms: C_6  and  C_9
REMARK    5  A    between atoms: C_9  and  C_10
REMARK    6  A    between atoms: C_10  and  C_11
REMARK    7  A    between atoms: C_10  and  C_20
REMARK    8  A    between atoms: C_12  and  C_13
REMARK    9  A    between atoms: C_12  and  C_19
REMARK   10  A    between atoms: C_14  and  C_15
REMARK   11  A    between atoms: N_16  and  O_17
REMARK                            x       y       z     vdW  Elec       q    Type
REMARK                         _______ _______ _______ _____ _____    ______ ____
ROOT
ATOM      1  C   UNL     1       0.914  -0.390   1.474  0.00  0.00    +0.000 C 
ATOM      2  C   UNL     1       0.908  -0.649   2.984  0.00  0.00    +0.000 C 
ENDROOT
BRANCH   1   3
ATOM      3  C   UNL     1       2.320  -0.094   0.994  0.00  0.00    +0.000 C 
ATOM      4  C   UNL     1       2.730  -0.216  -0.286  0.00  0.00    +0.000 C 
ATOM      5  C   UNL     1       1.798  -0.688  -1.380  0.00  0.00    +0.000 C 
BRANCH   4   6
ATOM      6  C   UNL     1       4.158   0.065  -0.587  0.00  0.00    +0.000 C 
ATOM      7  C   UNL     1       4.793  -0.433  -1.658  0.00  0.00    +0.000 C 
BRANCH   7   8
ATOM      8  C   UNL     1       6.212  -0.159  -1.965  0.00  0.00    +0.000 C 
ATOM      9  N   UNL     1       7.128   0.337  -0.979  0.00  0.00    +0.000 N 
ATOM     10  O   UNL     1       6.631  -0.393  -3.130  0.00  0.00    +0.000 OA
ATOM     11  H   UNL     1       6.839   0.428  -0.042  0.00  0.00    +0.000 HD
BRANCH   9  12
ATOM     12  O   UNL     1       8.389   0.680  -1.333  0.00  0.00    +0.000 OA
ATOM     13  H   UNL     1       8.510   0.532  -2.284  0.00  0.00    +0.000 HD
ENDBRANCH   9  12
ENDBRANCH   7   8
ENDBRANCH   4   6
ENDBRANCH   1   3
BRANCH   1  14
ATOM     14  C   UNL     1      -0.010   0.765   1.154  0.00  0.00    +0.000 C 
ATOM     15  O   UNL     1       0.395   1.943   1.363  0.00  0.00    +0.000 OA
BRANCH  14  19
ATOM     16  C   UNL     1      -4.001   0.210  -0.417  0.00  0.00    +0.000 A 
ATOM     17  C   UNL     1      -3.298   1.415  -0.614  0.00  0.00    +0.000 A 
ATOM     18  C   UNL     1      -2.010   1.587  -0.100  0.00  0.00    +0.000 A 
ATOM     19  C   UNL     1      -1.382   0.559   0.621  0.00  0.00    +0.000 A 
ATOM     20  C   UNL     1      -2.082  -0.642   0.830  0.00  0.00    +0.000 A 
ATOM     21  C   UNL     1      -3.370  -0.815   0.317  0.00  0.00    +0.000 A 
BRANCH  16  23
ATOM     22  C   UNL     1      -5.889  -1.318  -1.147  0.00  0.00    +0.000 C 
ATOM     23  N   UNL     1      -5.338   0.029  -0.952  0.00  0.00    +0.000 N 
ATOM     24  C   UNL     1      -6.164   1.190  -1.306  0.00  0.00    +0.000 C 
ENDBRANCH  16  23
ENDBRANCH  14  19
ENDBRANCH   1  14
TORSDOF 7
