          AutoDock 4.2 Release 4.2.6   
         (C) 1989-2012 The Scripps Research Institute
        AutoDock comes with ABSOLUTELY NO WARRANTY.
        AutoDock is free software, and you are welcome
        to redistribute it under certain conditions;
        for details type 'autodock4 -C'

                     main.cc  $Revision: 1.213 $

                   Compiled on Feb 20 2022 at 09:48:33


This file was created at:			10:03 16" a.m., 11/08/2024
                   on host:		"ThinkStation-P620"
Current Working Directory = "/home/antonio/Documenti/buccheri/IDROSSAMICO HDAC/HDAC 2/P/Ligand_2"

      ________________________________________________________________

                   SETTING UP DEFAULT PARAMETER LIBRARY
      ________________________________________________________________


Random number generator was seeded with values 328166, 1731056596.
Docking parameter file (DPF) used for this docking:		ligand_dock.biased.dpf
DPF> autodock_parameter_version 4.2       # used by autodock to validate parameter set

	Autodock parameter version 4.2.
DPF> outlev 1                             # diagnostic output level

Output Level = 1  ADT-COMPATIBLE OUTPUT DURING DOCKING.
DPF> intelec                              # calculate internal electrostatics

Electrostatic energies will be calculated for all non-bonds between moving atoms.
DPF> seed pid time                        # seeds for random generator

Random number generator was seeded with values 328166, 1731056596.
DPF> ligand_types A C HD OA N             # atoms types in ligand

DPF> fld receptor.maps.fld                # grid_data_file

Opening Grid Map Dimensions file:		receptor.maps.fld
Grid Point Spacing =				0.375 Angstroms

Even Number of User-specified Grid Points =	70 x-points
						70 y-points
						70 z-points

Coordinates of Central Grid Point of Maps =	(24.757, -16.735, 0.794)
Macromolecule file used to create Grid Maps =	receptor.pdbqt
Grid Parameter file used to create Grid Maps =	receptor.gpf
Minimum coordinates in grid = (11.632, -29.860, -12.331)
Maximum coordinates in grid = (37.882, -3.610, 13.919)

DPF> map receptor.A.map                   # atom-specific affinity map

DPF> map receptor.C.map                   # atom-specific affinity map

DPF> map receptor.HD.biased.map

DPF> map receptor.OA.biased.map

DPF> map receptor.N.map                   # atom-specific affinity map

DPF> elecmap receptor.e.map               # electrostatics map

DPF> desolvmap receptor.d.map             # desolvation map

DPF> move ligand.pdbqt                    # small molecule

1,4-interactions will be _ignored_ in the non-bonded internal energy calculation.

Ligand PDBQT file = "ligand.pdbqt"

INPUT LIGAND PDBQT FILE:
________________________

INPUT-LIGAND-PDBQT: REMARK  Name = 
INPUT-LIGAND-PDBQT: REMARK  11 active torsions:
INPUT-LIGAND-PDBQT: REMARK  status: ('A' for Active; 'I' for Inactive)
INPUT-LIGAND-PDBQT: REMARK    1  A    between atoms: C_1  and  N_2
INPUT-LIGAND-PDBQT: REMARK    2  A    between atoms: N_2  and  C_3
INPUT-LIGAND-PDBQT: REMARK    3  A    between atoms: N_2  and  C_22
INPUT-LIGAND-PDBQT: REMARK    4  A    between atoms: C_6  and  C_9
INPUT-LIGAND-PDBQT: REMARK    5  A    between atoms: C_9  and  C_10
INPUT-LIGAND-PDBQT: REMARK    6  A    between atoms: C_10  and  C_11
INPUT-LIGAND-PDBQT: REMARK    7  A    between atoms: C_10  and  C_20
INPUT-LIGAND-PDBQT: REMARK    8  A    between atoms: C_12  and  C_13
INPUT-LIGAND-PDBQT: REMARK    9  A    between atoms: C_12  and  C_19
INPUT-LIGAND-PDBQT: REMARK   10  A    between atoms: C_14  and  C_15
INPUT-LIGAND-PDBQT: REMARK   11  A    between atoms: N_16  and  O_17
INPUT-LIGAND-PDBQT: REMARK                            x       y       z     vdW  Elec       q    Type
INPUT-LIGAND-PDBQT: REMARK                         _______ _______ _______ _____ _____    ______ ____
INPUT-LIGAND-PDBQT: ROOT
INPUT-LIGAND-PDBQT: ATOM      1  C   UNL     1       0.914  -0.390   1.474  0.00  0.00    +0.000 C 
INPUT-LIGAND-PDBQT: ATOM      2  C   UNL     1       0.908  -0.649   2.984  0.00  0.00    +0.000 C 
INPUT-LIGAND-PDBQT: ENDROOT
INPUT-LIGAND-PDBQT: BRANCH   1   3
INPUT-LIGAND-PDBQT: ATOM      3  C   UNL     1       2.320  -0.094   0.994  0.00  0.00    +0.000 C 
INPUT-LIGAND-PDBQT: ATOM      4  C   UNL     1       2.730  -0.216  -0.286  0.00  0.00    +0.000 C 
INPUT-LIGAND-PDBQT: ATOM      5  C   UNL     1       1.798  -0.688  -1.380  0.00  0.00    +0.000 C 
INPUT-LIGAND-PDBQT: BRANCH   4   6
INPUT-LIGAND-PDBQT: ATOM      6  C   UNL     1       4.158   0.065  -0.587  0.00  0.00    +0.000 C 
INPUT-LIGAND-PDBQT: ATOM      7  C   UNL     1       4.793  -0.433  -1.658  0.00  0.00    +0.000 C 
INPUT-LIGAND-PDBQT: BRANCH   7   8
INPUT-LIGAND-PDBQT: ATOM      8  C   UNL     1       6.212  -0.159  -1.965  0.00  0.00    +0.000 C 
INPUT-LIGAND-PDBQT: ATOM      9  N   UNL     1       7.128   0.337  -0.979  0.00  0.00    +0.000 N 
INPUT-LIGAND-PDBQT: ATOM     10  O   UNL     1       6.631  -0.393  -3.130  0.00  0.00    +0.000 OA
INPUT-LIGAND-PDBQT: ATOM     11  H   UNL     1       6.839   0.428  -0.042  0.00  0.00    +0.000 HD
INPUT-LIGAND-PDBQT: BRANCH   9  12
INPUT-LIGAND-PDBQT: ATOM     12  O   UNL     1       8.389   0.680  -1.333  0.00  0.00    +0.000 OA
INPUT-LIGAND-PDBQT: ATOM     13  H   UNL     1       8.510   0.532  -2.284  0.00  0.00    +0.000 HD
INPUT-LIGAND-PDBQT: ENDBRANCH   9  12
INPUT-LIGAND-PDBQT: ENDBRANCH   7   8
INPUT-LIGAND-PDBQT: ENDBRANCH   4   6
INPUT-LIGAND-PDBQT: ENDBRANCH   1   3
INPUT-LIGAND-PDBQT: BRANCH   1  14
INPUT-LIGAND-PDBQT: ATOM     14  C   UNL     1      -0.010   0.765   1.154  0.00  0.00    +0.000 C 
INPUT-LIGAND-PDBQT: ATOM     15  O   UNL     1       0.395   1.943   1.363  0.00  0.00    +0.000 OA
INPUT-LIGAND-PDBQT: BRANCH  14  19
INPUT-LIGAND-PDBQT: ATOM     16  C   UNL     1      -4.001   0.210  -0.417  0.00  0.00    +0.000 A 
INPUT-LIGAND-PDBQT: ATOM     17  C   UNL     1      -3.298   1.415  -0.614  0.00  0.00    +0.000 A 
INPUT-LIGAND-PDBQT: ATOM     18  C   UNL     1      -2.010   1.587  -0.100  0.00  0.00    +0.000 A 
INPUT-LIGAND-PDBQT: ATOM     19  C   UNL     1      -1.382   0.559   0.621  0.00  0.00    +0.000 A 
INPUT-LIGAND-PDBQT: ATOM     20  C   UNL     1      -2.082  -0.642   0.830  0.00  0.00    +0.000 A 
INPUT-LIGAND-PDBQT: ATOM     21  C   UNL     1      -3.370  -0.815   0.317  0.00  0.00    +0.000 A 
INPUT-LIGAND-PDBQT: BRANCH  16  23
INPUT-LIGAND-PDBQT: ATOM     22  C   UNL     1      -5.889  -1.318  -1.147  0.00  0.00    +0.000 C 
INPUT-LIGAND-PDBQT: ATOM     23  N   UNL     1      -5.338   0.029  -0.952  0.00  0.00    +0.000 N 
INPUT-LIGAND-PDBQT: ATOM     24  C   UNL     1      -6.164   1.190  -1.306  0.00  0.00    +0.000 C 
INPUT-LIGAND-PDBQT: ENDBRANCH  16  23
INPUT-LIGAND-PDBQT: ENDBRANCH  14  19
INPUT-LIGAND-PDBQT: ENDBRANCH   1  14
INPUT-LIGAND-PDBQT: TORSDOF 7
________________________________________________________________________________

Total charge on ligand                               =	+0.000 e
REMARK  Name = 
REMARK  11 active torsions:
REMARK  status: ('A' for Active; 'I' for Inactive)
REMARK    1  A    between atoms: C_1  and  N_2
REMARK    2  A    between atoms: N_2  and  C_3
REMARK    3  A    between atoms: N_2  and  C_22
REMARK    4  A    between atoms: C_6  and  C_9
REMARK    5  A    between atoms: C_9  and  C_10
REMARK    6  A    between atoms: C_10  and  C_11
REMARK    7  A    between atoms: C_10  and  C_20
REMARK    8  A    between atoms: C_12  and  C_13
REMARK    9  A    between atoms: C_12  and  C_19
REMARK   10  A    between atoms: C_14  and  C_15
REMARK   11  A    between atoms: N_16  and  O_17
REMARK                            x       y       z     vdW  Elec       q    Type
REMARK                         _______ _______ _______ _____ _____    ______ ____


Number of Rotatable Bonds in Small Molecule =	7 torsions
Number of atoms in ligand:  24

Number of non-hydrogen atoms in ligand:  22

Number of vibrational degrees of freedom of ligand:  66


Number of torsional degrees of freedom = 7
Estimated loss of torsional free energy upon binding = +2.0881 kcal/mol


DPF> about 1.174 0.164 -0.352            # small molecule center

Small molecule center of rotation =	(+1.174, +0.164, -0.352)

DPF> tran0 random                         # initial coordinates/A or random

Initial translation =			(34.145, -14.213, -9.821) Angstroms
DPF> quaternion0 random                   # initial orientation

Each run will begin with a new, random initial orientation.
Initial quaternion,  (x,y,z,w) =	( -0.478, -0.004, 0.253, 0.841 ),
DPF> dihe0 random                         # initial dihedrals (relative) or random

DPF> torsdof 7                            # torsional degrees of freedom

Number of torsional degrees of freedom = 7
Free energy coefficient for torsional degrees of freedom = 0.2983, the factory default value.

Estimated loss of torsional free energy upon binding = +2.0881 kcal/mol

DPF> rmstol 2.0                           # cluster_tolerance/A

Maximum RMS tolerance for conformational cluster analysis = 2.00 Angstroms
DPF> extnrg 1000.0                        # external grid energy

External grid energy (beyond grid map walls) = 1000.00

DPF> e0max 0.0 10000                      # max initial energy; max number of retries

Using user-specified maximum number of retries for simanneal initialization, 10000 retries.
If the simanneal initial energy is greater than e0max, 0.000,
then a new, random initial state will be created.

DPF> ga_pop_size 150                      # number of individuals in population

A population of 150 individuals will be used
DPF> ga_num_evals 2500000                 # maximum number of energy evaluations

There will be at most 2500000 function evaluations used.
DPF> ga_num_generations 27000             # maximum number of generations

The GA will run for at most 27000 generations.
DPF> ga_elitism 1                         # number of top individuals to survive to next generation

The 1 best will be preserved each GA generation.
DPF> ga_mutation_rate 0.02                # rate of gene mutation

The mutation rate is 0.020000.
DPF> ga_crossover_rate 0.8                # rate of crossover

The crossover rate is 0.800000.
DPF> ga_window_size 10                    # 

The GA's selection window is 10 generations.
DPF> ga_cauchy_alpha 0.0                  # Alpha parameter of Cauchy distribution

The alpha parameter (for the Cauchy distribution) is being set to 0.000000.
DPF> ga_cauchy_beta 1.0                   # Beta parameter Cauchy distribution

The beta parameter (for the Cauchy distribution) is being set to 1.000000.
DPF> set_ga                               # set the above parameters for GA or LGA

DPF> sw_max_its 300                       # iterations of Solis & Wets local search

Solis & Wets algorithms will perform at most 300 iterations.
DPF> sw_max_succ 4                        # consecutive successes before changing rho

Solis & Wets algorithms expand rho every 4 in a row successes.
DPF> sw_max_fail 4                        # consecutive failures before changing rho

Solis & Wets algorithms contract rho every 4 in a row failures.
DPF> sw_rho 1.0                           # size of local search space to sample

rho is set to 1.000000.
DPF> sw_lb_rho 0.01                       # lower bound on rho

rho will never get smaller than 0.010000.
DPF> ls_search_freq 0.06                  # probability of performing local search on individual

Local search will be performed with frequency 0.060000.
DPF> set_psw1                             # set the above pseudo-Solis & Wets parameters

Creating a new Local Search object using the pseudo-Solis-Wets algorithm (pSW1) with the current settings.

DPF> unbound_model bound                  # state of unbound ligand

DPF> ga_run 100

centering ligand on specified point: 1.174 0.164 -0.352
Furthest true ligand atom from "about" center is 7.595 Angstroms (maxrad).
Number of requested GA dockings = 100 runs
Unbound model to be used is 'same as bound' [AutoDock 4.2 default].

	BEGINNING GENETIC ALGORITHM DOCKING 1 of 100
Run: 1 Seed: 637355820 456078854 [ Run 1 of 100 GA/GALS ]
Beginning LAMARCKIAN GENETIC ALGORITHM (LGA), with a maximum of 2500000 energy evaluations.

Final-Value: -13.524


	FINAL GENETIC ALGORITHM DOCKED STATE
	_______________________________________________


Detailed state:  trans 24.927 -14.478 -2.853 quatxyzw 0.479364 -0.585014 0.650117 0.072915 center 1.174 0.164 -0.352 ntor 7 1.5818 19.0329 -166.6483 -131.2666 -110.9968 -101.1161 -28.3169
State:	 24.927 -14.478  -2.853   0.481 -0.587  0.652 171.637      1.58   19.03 -166.65 -131.27 -111.00 -101.12  -28.32

DOCKED: MODEL        1
DOCKED: USER    Run = 1
DOCKED: USER    DPF = ligand_dock.biased.dpf
DOCKED: USER  
DOCKED: USER    Estimated Free Energy of Binding    =   -9.96 kcal/mol  [=(1)+(2)+(3)-(4)]
DOCKED: USER    Estimated Inhibition Constant, Ki   =   49.92 nM (nanomolar)  [Temperature = 298.15 K]
DOCKED: USER    
DOCKED: USER    (1) Final Intermolecular Energy     =  -12.05 kcal/mol
DOCKED: USER        vdW + Hbond + desolv Energy     =  -12.05 kcal/mol
DOCKED: USER        Electrostatic Energy            =   +0.00 kcal/mol
DOCKED: USER    (2) Final Total Internal Energy     =   -1.47 kcal/mol
DOCKED: USER    (3) Torsional Free Energy           =   +2.09 kcal/mol
DOCKED: USER    (4) Unbound System's Energy  [=(2)] =   -1.47 kcal/mol
DOCKED: USER    
DOCKED: USER    
DOCKED: USER    NEWDPF move ligand.pdbqt
DOCKED: USER    NEWDPF about 1.174000 0.164000 -0.352000
DOCKED: USER    NEWDPF tran0 24.927480 -14.477767 -2.852656
DOCKED: USER    NEWDPF quaternion0 0.479364 -0.585014 0.650117 0.072915
DOCKED: USER    NEWDPF axisangle0 0.480643 -0.586575 0.651852 171.637099
DOCKED: USER    NEWDPF quat0 0.480643 -0.586575 0.651852 171.637099
DOCKED: USER    NEWDPF dihe0 1.58 19.03 -166.65 -131.27 -111.00 -101.12 -28.32 
DOCKED: USER  keepresnum = 1 
DOCKED: USER  
DOCKED: REMARK  Name = 
DOCKED: REMARK  11 active torsions:
DOCKED: REMARK  status: ('A' for Active; 'I' for Inactive)
DOCKED: REMARK    1  A    between atoms: C_1  and  N_2
DOCKED: REMARK    2  A    between atoms: N_2  and  C_3
DOCKED: REMARK    3  A    between atoms: N_2  and  C_22
DOCKED: REMARK    4  A    between atoms: C_6  and  C_9
DOCKED: REMARK    5  A    between atoms: C_9  and  C_10
DOCKED: REMARK    6  A    between atoms: C_10  and  C_11
DOCKED: REMARK    7  A    between atoms: C_10  and  C_20
DOCKED: REMARK    8  A    between atoms: C_12  and  C_13
DOCKED: REMARK    9  A    between atoms: C_12  and  C_19
DOCKED: REMARK   10  A    between atoms: C_14  and  C_15
DOCKED: REMARK   11  A    between atoms: N_16  and  O_17
DOCKED: REMARK                            x       y       z     vdW  Elec       q    Type
DOCKED: REMARK                         _______ _______ _______ _____ _____    ______ ____
DOCKED: USER                              x       y       z     vdW  Elec       q    Type
DOCKED: USER                           _______ _______ _______ _____ _____    ______ ____
DOCKED: ROOT
DOCKED: ATOM      1  C   UNL     1      26.617 -15.400  -2.795 -0.42 -0.00    +0.000 C 
DOCKED: ATOM      2  C   UNL     1      27.811 -16.360  -2.801 -0.25 -0.00    +0.000 C 
DOCKED: ENDROOT
DOCKED: BRANCH   1   3
DOCKED: ATOM      3  C   UNL     1      25.394 -16.080  -2.216 -0.56 -0.00    +0.000 C 
DOCKED: ATOM      4  C   UNL     1      25.334 -16.615  -0.978 -0.58 -0.00    +0.000 C 
DOCKED: ATOM      5  C   UNL     1      26.523 -16.594  -0.042 -0.36 -0.00    +0.000 C 
DOCKED: BRANCH   4   6
DOCKED: ATOM      6  C   UNL     1      24.075 -17.293  -0.576 -0.67 -0.00    +0.000 C 
DOCKED: ATOM      7  C   UNL     1      23.220 -17.834  -1.456 -0.66 -0.00    +0.000 C 
DOCKED: BRANCH   7   8
DOCKED: ATOM      8  C   UNL     1      21.966 -18.510  -1.065 -0.80 -0.00    +0.000 C 
DOCKED: ATOM      9  N   UNL     1      21.414 -19.598  -1.820 -0.50 -0.00    +0.000 N 
DOCKED: ATOM     10  O   UNL     1      21.378 -18.128  -0.018 -1.41 -0.00    +0.000 OA
DOCKED: ATOM     11  H   UNL     1      21.914 -19.971  -2.581 -0.58 -0.00    +0.000 HD
DOCKED: BRANCH   9  12
DOCKED: ATOM     12  O   UNL     1      20.206 -20.112  -1.488 -1.62 -0.00    +0.000 OA
DOCKED: ATOM     13  H   UNL     1      19.838 -19.618  -0.739 -0.04 -0.00    +0.000 HD
DOCKED: ENDBRANCH   9  12
DOCKED: ENDBRANCH   7   8
DOCKED: ENDBRANCH   4   6
DOCKED: ENDBRANCH   1   3
DOCKED: BRANCH   1  14
DOCKED: ATOM     14  C   UNL     1      26.342 -14.925  -4.206 -0.54 -0.00    +0.000 C 
DOCKED: ATOM     15  O   UNL     1      26.244 -15.783  -5.128 -1.10 +0.00    +0.000 OA
DOCKED: BRANCH  14  19
DOCKED: ATOM     16  C   UNL     1      25.980 -10.732  -5.203 -0.24 -0.00    +0.000 A 
DOCKED: ATOM     17  C   UNL     1      27.218 -11.399  -5.283 -0.16 -0.00    +0.000 A 
DOCKED: ATOM     18  C   UNL     1      27.327 -12.754  -4.956 -0.21 -0.00    +0.000 A 
DOCKED: ATOM     19  C   UNL     1      26.201 -13.485  -4.545 -0.30 -0.00    +0.000 A 
DOCKED: ATOM     20  C   UNL     1      24.965 -12.823  -4.453 -0.21 -0.00    +0.000 A 
DOCKED: ATOM     21  C   UNL     1      24.855 -11.469  -4.779 -0.33 -0.00    +0.000 A 
DOCKED: BRANCH  16  23
DOCKED: ATOM     22  C   UNL     1      24.565  -8.647  -5.489 -0.29 -0.00    +0.000 C 
DOCKED: ATOM     23  N   UNL     1      25.865  -9.326  -5.545 -0.14 -0.00    +0.000 N 
DOCKED: ATOM     24  C   UNL     1      27.049  -8.558  -5.951 -0.06 -0.00    +0.000 C 
DOCKED: ENDBRANCH  16  23
DOCKED: ENDBRANCH  14  19
DOCKED: ENDBRANCH   1  14
DOCKED: TORSDOF 7
DOCKED: TER
DOCKED: ENDMDL
________________________________________________________________________________


	BEGINNING GENETIC ALGORITHM DOCKING 2 of 100
Run: 2 Seed: 1841782675 1280051741 [ Run 2 of 100 GA/GALS ]
Beginning LAMARCKIAN GENETIC ALGORITHM (LGA), with a maximum of 2500000 energy evaluations.

Final-Value: -14.311


	FINAL GENETIC ALGORITHM DOCKED STATE
	_______________________________________________


Detailed state:  trans 24.318 -14.963 -1.896 quatxyzw 0.449886 -0.675832 0.551125 0.192651 center 1.174 0.164 -0.352 ntor 7 28.7551 179.5693 8.5933 150.1032 -117.2101 -104.7218 76.0454
State:	 24.318 -14.963  -1.896   0.458 -0.689  0.562 157.785     28.76  179.57    8.59  150.10 -117.21 -104.72   76.05

DOCKED: MODEL        2
DOCKED: USER    Run = 2
DOCKED: USER    DPF = ligand_dock.biased.dpf
DOCKED: USER  
DOCKED: USER    Estimated Free Energy of Binding    =  -10.96 kcal/mol  [=(1)+(2)+(3)-(4)]
DOCKED: USER    Estimated Inhibition Constant, Ki   =    9.30 nM (nanomolar)  [Temperature = 298.15 K]
DOCKED: USER    
DOCKED: USER    (1) Final Intermolecular Energy     =  -13.04 kcal/mol
DOCKED: USER        vdW + Hbond + desolv Energy     =  -13.04 kcal/mol
DOCKED: USER        Electrostatic Energy            =   +0.00 kcal/mol
DOCKED: USER    (2) Final Total Internal Energy     =   -1.27 kcal/mol
DOCKED: USER    (3) Torsional Free Energy           =   +2.09 kcal/mol
DOCKED: USER    (4) Unbound System's Energy  [=(2)] =   -1.27 kcal/mol
DOCKED: USER    
DOCKED: USER    
DOCKED: USER    NEWDPF move ligand.pdbqt
DOCKED: USER    NEWDPF about 1.174000 0.164000 -0.352000
DOCKED: USER    NEWDPF tran0 24.317598 -14.963125 -1.895938
DOCKED: USER    NEWDPF quaternion0 0.449886 -0.675832 0.551125 0.192651
DOCKED: USER    NEWDPF axisangle0 0.458474 -0.688734 0.561646 157.784940
DOCKED: USER    NEWDPF quat0 0.458474 -0.688734 0.561646 157.784940
DOCKED: USER    NEWDPF dihe0 28.76 179.57 8.59 150.10 -117.21 -104.72 76.05 
DOCKED: USER  keepresnum = 1 
DOCKED: USER  
DOCKED: REMARK  Name = 
DOCKED: REMARK  11 active torsions:
DOCKED: REMARK  status: ('A' for Active; 'I' for Inactive)
DOCKED: REMARK    1  A    between atoms: C_1  and  N_2
DOCKED: REMARK    2  A    between atoms: N_2  and  C_3
DOCKED: REMARK    3  A    between atoms: N_2  and  C_22
DOCKED: REMARK    4  A    between atoms: C_6  and  C_9
DOCKED: REMARK    5  A    between atoms: C_9  and  C_10
DOCKED: REMARK    6  A    between atoms: C_10  and  C_11
DOCKED: REMARK    7  A    between atoms: C_10  and  C_20
DOCKED: REMARK    8  A    between atoms: C_12  and  C_13
DOCKED: REMARK    9  A    between atoms: C_12  and  C_19
DOCKED: REMARK   10  A    between atoms: C_14  and  C_15
DOCKED: REMARK   11  A    between atoms: N_16  and  O_17
DOCKED: REMARK                            x       y       z     vdW  Elec       q    Type
DOCKED: REMARK                         _______ _______ _______ _____ _____    ______ ____
DOCKED: USER                              x       y       z     vdW  Elec       q    Type
DOCKED: USER                           _______ _______ _______ _____ _____    ______ ____
DOCKED: ROOT
DOCKED: ATOM      1  C   UNL     1      26.053 -15.787  -2.030 -0.49 -0.00    +0.000 C 
DOCKED: ATOM      2  C   UNL     1      27.301 -16.642  -2.274 -0.30 -0.00    +0.000 C 
DOCKED: ENDROOT
DOCKED: BRANCH   1   3
DOCKED: ATOM      3  C   UNL     1      24.841 -16.670  -1.818 -0.62 -0.00    +0.000 C 
DOCKED: ATOM      4  C   UNL     1      24.764 -17.651  -0.894 -0.72 -0.00    +0.000 C 
DOCKED: ATOM      5  C   UNL     1      25.923 -17.974   0.024 -0.64 -0.00    +0.000 C 
DOCKED: BRANCH   4   6
DOCKED: ATOM      6  C   UNL     1      23.520 -18.463  -0.846 -0.82 -0.00    +0.000 C 
DOCKED: ATOM      7  C   UNL     1      22.297 -17.923  -0.741 -0.81 -0.00    +0.000 C 
DOCKED: BRANCH   7   8
DOCKED: ATOM      8  C   UNL     1      21.055 -18.723  -0.692 -0.86 -0.00    +0.000 C 
DOCKED: ATOM      9  N   UNL     1      21.029 -20.070  -0.203 -0.64 -0.00    +0.000 N 
DOCKED: ATOM     10  O   UNL     1      19.980 -18.187  -1.075 -1.88 -0.00    +0.000 OA
DOCKED: ATOM     11  H   UNL     1      21.841 -20.465   0.192 -0.58 -0.00    +0.000 HD
DOCKED: BRANCH   9  12
DOCKED: ATOM     12  O   UNL     1      19.893 -20.802  -0.281 -0.74 -0.00    +0.000 OA
DOCKED: ATOM     13  H   UNL     1      19.368 -20.504  -1.041 -0.55 -0.00    +0.000 HD
DOCKED: ENDBRANCH   9  12
DOCKED: ENDBRANCH   7   8
DOCKED: ENDBRANCH   4   6
DOCKED: ENDBRANCH   1   3
DOCKED: BRANCH   1  14
DOCKED: ATOM     14  C   UNL     1      25.836 -14.860  -3.206 -0.51 -0.00    +0.000 C 
DOCKED: ATOM     15  O   UNL     1      24.667 -14.445  -3.445 -0.84 -0.00    +0.000 OA
DOCKED: BRANCH  14  19
DOCKED: ATOM     16  C   UNL     1      29.059 -13.670  -5.832 -0.20 -0.00    +0.000 A 
DOCKED: ATOM     17  C   UNL     1      28.350 -14.869  -6.041 -0.36 -0.00    +0.000 A 
DOCKED: ATOM     18  C   UNL     1      27.312 -15.248  -5.186 -0.41 -0.00    +0.000 A 
DOCKED: ATOM     19  C   UNL     1      26.946 -14.437  -4.099 -0.36 -0.00    +0.000 A 
DOCKED: ATOM     20  C   UNL     1      27.657 -13.245  -3.879 -0.18 -0.00    +0.000 A 
DOCKED: ATOM     21  C   UNL     1      28.695 -12.866  -4.733 -0.11 -0.00    +0.000 A 
DOCKED: BRANCH  16  23
DOCKED: ATOM     22  C   UNL     1      30.819 -14.270  -7.557 -0.21 -0.00    +0.000 C 
DOCKED: ATOM     23  N   UNL     1      30.136 -13.275  -6.721 -0.15 -0.00    +0.000 N 
DOCKED: ATOM     24  C   UNL     1      30.561 -11.871  -6.801 -0.07 -0.00    +0.000 C 
DOCKED: ENDBRANCH  16  23
DOCKED: ENDBRANCH  14  19
DOCKED: ENDBRANCH   1  14
DOCKED: TORSDOF 7
DOCKED: TER
DOCKED: ENDMDL
________________________________________________________________________________


	BEGINNING GENETIC ALGORITHM DOCKING 3 of 100
Run: 3 Seed: 205334629 1607747681 [ Run 3 of 100 GA/GALS ]
Beginning LAMARCKIAN GENETIC ALGORITHM (LGA), with a maximum of 2500000 energy evaluations.

Final-Value: -14.758


	FINAL GENETIC ALGORITHM DOCKED STATE
	_______________________________________________


Detailed state:  trans 26.053 -15.869 -0.500 quatxyzw 0.313455 -0.938735 -0.132496 -0.054465 center 1.174 0.164 -0.352 ntor 7 3.5188 -11.8930 -42.4760 -149.2664 -164.9698 -25.5132 -69.9056
State:	 26.053 -15.869  -0.500   0.314 -0.940 -0.133 -173.756      3.52  -11.89  -42.48 -149.27 -164.97  -25.51  -69.91

DOCKED: MODEL        3
DOCKED: USER    Run = 3
DOCKED: USER    DPF = ligand_dock.biased.dpf
DOCKED: USER  
DOCKED: USER    Estimated Free Energy of Binding    =  -10.79 kcal/mol  [=(1)+(2)+(3)-(4)]
DOCKED: USER    Estimated Inhibition Constant, Ki   =   12.25 nM (nanomolar)  [Temperature = 298.15 K]
DOCKED: USER    
DOCKED: USER    (1) Final Intermolecular Energy     =  -12.88 kcal/mol
DOCKED: USER        vdW + Hbond + desolv Energy     =  -12.88 kcal/mol
DOCKED: USER        Electrostatic Energy            =   +0.00 kcal/mol
DOCKED: USER    (2) Final Total Internal Energy     =   -1.88 kcal/mol
DOCKED: USER    (3) Torsional Free Energy           =   +2.09 kcal/mol
DOCKED: USER    (4) Unbound System's Energy  [=(2)] =   -1.88 kcal/mol
DOCKED: USER    
DOCKED: USER    
DOCKED: USER    NEWDPF move ligand.pdbqt
DOCKED: USER    NEWDPF about 1.174000 0.164000 -0.352000
DOCKED: USER    NEWDPF tran0 26.053311 -15.868823 -0.500186
DOCKED: USER    NEWDPF quaternion0 0.313455 -0.938735 -0.132496 -0.054465
DOCKED: USER    NEWDPF axisangle0 0.313921 -0.940131 -0.132693 -173.755670
DOCKED: USER    NEWDPF quat0 0.313921 -0.940131 -0.132693 -173.755670
DOCKED: USER    NEWDPF dihe0 3.52 -11.89 -42.48 -149.27 -164.97 -25.51 -69.91 
DOCKED: USER  keepresnum = 1 
DOCKED: USER  
DOCKED: REMARK  Name = 
DOCKED: REMARK  11 active torsions:
DOCKED: REMARK  status: ('A' for Active; 'I' for Inactive)
DOCKED: REMARK    1  A    between atoms: C_1  and  N_2
DOCKED: REMARK    2  A    between atoms: N_2  and  C_3
DOCKED: REMARK    3  A    between atoms: N_2  and  C_22
DOCKED: REMARK    4  A    between atoms: C_6  and  C_9
DOCKED: REMARK    5  A    between atoms: C_9  and  C_10
DOCKED: REMARK    6  A    between atoms: C_10  and  C_11
DOCKED: REMARK    7  A    between atoms: C_10  and  C_20
DOCKED: REMARK    8  A    between atoms: C_12  and  C_13
DOCKED: REMARK    9  A    between atoms: C_12  and  C_19
DOCKED: REMARK   10  A    between atoms: C_14  and  C_15
DOCKED: REMARK   11  A    between atoms: N_16  and  O_17
DOCKED: REMARK                            x       y       z     vdW  Elec       q    Type
DOCKED: REMARK                         _______ _______ _______ _____ _____    ______ ____
DOCKED: USER                              x       y       z     vdW  Elec       q    Type
DOCKED: USER                           _______ _______ _______ _____ _____    ______ ____
DOCKED: ROOT
DOCKED: ATOM      1  C   UNL     1      26.240 -15.746  -2.413 -0.47 -0.00    +0.000 C 
DOCKED: ATOM      2  C   UNL     1      26.114 -15.617  -3.934 -0.55 -0.00    +0.000 C 
DOCKED: ENDROOT
DOCKED: BRANCH   1   3
DOCKED: ATOM      3  C   UNL     1      25.038 -16.469  -1.842 -0.60 -0.00    +0.000 C 
DOCKED: ATOM      4  C   UNL     1      25.108 -17.468  -0.937 -0.68 -0.00    +0.000 C 
DOCKED: ATOM      5  C   UNL     1      26.433 -17.976  -0.411 -0.61 -0.00    +0.000 C 
DOCKED: BRANCH   4   6
DOCKED: ATOM      6  C   UNL     1      23.837 -18.110  -0.512 -0.79 -0.00    +0.000 C 
DOCKED: ATOM      7  C   UNL     1      22.654 -17.845  -1.086 -0.73 -0.00    +0.000 C 
DOCKED: BRANCH   7   8
DOCKED: ATOM      8  C   UNL     1      21.386 -18.478  -0.671 -0.85 -0.00    +0.000 C 
DOCKED: ATOM      9  N   UNL     1      21.345 -19.752  -0.013 -0.63 -0.00    +0.000 N 
DOCKED: ATOM     10  O   UNL     1      20.308 -17.862  -0.884 -2.21 -0.00    +0.000 OA
DOCKED: ATOM     11  H   UNL     1      22.183 -20.197   0.250 -0.54 -0.00    +0.000 HD
DOCKED: BRANCH   9  12
DOCKED: ATOM     12  O   UNL     1      20.156 -20.345   0.248 -0.81 -0.00    +0.000 OA
DOCKED: ATOM     13  H   UNL     1      19.438 -19.808  -0.123 -0.03 -0.00    +0.000 HD
DOCKED: ENDBRANCH   9  12
DOCKED: ENDBRANCH   7   8
DOCKED: ENDBRANCH   4   6
DOCKED: ENDBRANCH   1   3
DOCKED: BRANCH   1  14
DOCKED: ATOM     14  C   UNL     1      26.374 -14.370  -1.797 -0.32 -0.00    +0.000 C 
DOCKED: ATOM     15  O   UNL     1      26.202 -13.356  -2.531 -0.21 -0.00    +0.000 OA
DOCKED: BRANCH  14  19
DOCKED: ATOM     16  C   UNL     1      27.407 -13.831   2.368 -0.28 -0.00    +0.000 A 
DOCKED: ATOM     17  C   UNL     1      27.992 -14.853   1.595 -0.10 -0.00    +0.000 A 
DOCKED: ATOM     18  C   UNL     1      27.649 -15.023   0.251 -0.26 -0.00    +0.000 A 
DOCKED: ATOM     19  C   UNL     1      26.718 -14.172  -0.365 -0.27 -0.00    +0.000 A 
DOCKED: ATOM     20  C   UNL     1      26.123 -13.156   0.403 -0.26 -0.00    +0.000 A 
DOCKED: ATOM     21  C   UNL     1      26.464 -12.986   1.747 -0.28 -0.00    +0.000 A 
DOCKED: BRANCH  16  23
DOCKED: ATOM     22  C   UNL     1      27.770 -12.314   4.368 -0.37 +0.00    +0.000 C 
DOCKED: ATOM     23  N   UNL     1      27.763 -13.652   3.763 -0.42 -0.00    +0.000 N 
DOCKED: ATOM     24  C   UNL     1      28.120 -14.807   4.596 -0.61 -0.00    +0.000 C 
DOCKED: ENDBRANCH  16  23
DOCKED: ENDBRANCH  14  19
DOCKED: ENDBRANCH   1  14
DOCKED: TORSDOF 7
DOCKED: TER
DOCKED: ENDMDL
________________________________________________________________________________


	BEGINNING GENETIC ALGORITHM DOCKING 4 of 100
Run: 4 Seed: 1656343887 99797226 [ Run 4 of 100 GA/GALS ]
Beginning LAMARCKIAN GENETIC ALGORITHM (LGA), with a maximum of 2500000 energy evaluations.

Final-Value: -14.095


	FINAL GENETIC ALGORITHM DOCKED STATE
	_______________________________________________


Detailed state:  trans 25.970 -15.684 -0.839 quatxyzw 0.197991 -0.966851 -0.152714 -0.051741 center 1.174 0.164 -0.352 ntor 7 -166.3331 81.5745 -147.2181 -58.4286 -142.1259 -13.6913 -73.0319
State:	 25.970 -15.684  -0.839   0.198 -0.968 -0.153 -174.068   -166.33   81.57 -147.22  -58.43 -142.13  -13.69  -73.03

DOCKED: MODEL        4
DOCKED: USER    Run = 4
DOCKED: USER    DPF = ligand_dock.biased.dpf
DOCKED: USER  
DOCKED: USER    Estimated Free Energy of Binding    =  -10.66 kcal/mol  [=(1)+(2)+(3)-(4)]
DOCKED: USER    Estimated Inhibition Constant, Ki   =   15.31 nM (nanomolar)  [Temperature = 298.15 K]
DOCKED: USER    
DOCKED: USER    (1) Final Intermolecular Energy     =  -12.75 kcal/mol
DOCKED: USER        vdW + Hbond + desolv Energy     =  -12.75 kcal/mol
DOCKED: USER        Electrostatic Energy            =   +0.00 kcal/mol
DOCKED: USER    (2) Final Total Internal Energy     =   -1.35 kcal/mol
DOCKED: USER    (3) Torsional Free Energy           =   +2.09 kcal/mol
DOCKED: USER    (4) Unbound System's Energy  [=(2)] =   -1.35 kcal/mol
DOCKED: USER    
DOCKED: USER    
DOCKED: USER    NEWDPF move ligand.pdbqt
DOCKED: USER    NEWDPF about 1.174000 0.164000 -0.352000
DOCKED: USER    NEWDPF tran0 25.969823 -15.684360 -0.839009
DOCKED: USER    NEWDPF quaternion0 0.197991 -0.966851 -0.152714 -0.051741
DOCKED: USER    NEWDPF axisangle0 0.198256 -0.968148 -0.152918 -174.068252
DOCKED: USER    NEWDPF quat0 0.198256 -0.968148 -0.152918 -174.068252
DOCKED: USER    NEWDPF dihe0 -166.33 81.57 -147.22 -58.43 -142.13 -13.69 -73.03 
DOCKED: USER  keepresnum = 1 
DOCKED: USER  
DOCKED: REMARK  Name = 
DOCKED: REMARK  11 active torsions:
DOCKED: REMARK  status: ('A' for Active; 'I' for Inactive)
DOCKED: REMARK    1  A    between atoms: C_1  and  N_2
DOCKED: REMARK    2  A    between atoms: N_2  and  C_3
DOCKED: REMARK    3  A    between atoms: N_2  and  C_22
DOCKED: REMARK    4  A    between atoms: C_6  and  C_9
DOCKED: REMARK    5  A    between atoms: C_9  and  C_10
DOCKED: REMARK    6  A    between atoms: C_10  and  C_11
DOCKED: REMARK    7  A    between atoms: C_10  and  C_20
DOCKED: REMARK    8  A    between atoms: C_12  and  C_13
DOCKED: REMARK    9  A    between atoms: C_12  and  C_19
DOCKED: REMARK   10  A    between atoms: C_14  and  C_15
DOCKED: REMARK   11  A    between atoms: N_16  and  O_17
DOCKED: REMARK                            x       y       z     vdW  Elec       q    Type
DOCKED: REMARK                         _______ _______ _______ _____ _____    ______ ____
DOCKED: USER                              x       y       z     vdW  Elec       q    Type
DOCKED: USER                           _______ _______ _______ _____ _____    ______ ____
DOCKED: ROOT
DOCKED: ATOM      1  C   UNL     1      26.118 -15.564  -2.755 -0.50 -0.00    +0.000 C 
DOCKED: ATOM      2  C   UNL     1      25.976 -15.373  -4.269 -0.59 -0.00    +0.000 C 
DOCKED: ENDROOT
DOCKED: BRANCH   1   3
DOCKED: ATOM      3  C   UNL     1      24.798 -15.997  -2.151 -0.46 -0.00    +0.000 C 
DOCKED: ATOM      4  C   UNL     1      24.680 -16.841  -1.105 -0.65 -0.00    +0.000 C 
DOCKED: ATOM      5  C   UNL     1      25.889 -17.458  -0.437 -0.62 -0.00    +0.000 C 
DOCKED: BRANCH   4   6
DOCKED: ATOM      6  C   UNL     1      23.309 -17.208  -0.661 -0.71 -0.00    +0.000 C 
DOCKED: ATOM      7  C   UNL     1      22.701 -18.347  -1.025 -0.82 -0.00    +0.000 C 
DOCKED: BRANCH   7   8
DOCKED: ATOM      8  C   UNL     1      21.340 -18.719  -0.589 -0.85 -0.00    +0.000 C 
DOCKED: ATOM      9  N   UNL     1      21.043 -19.997  -0.009 -0.64 -0.00    +0.000 N 
DOCKED: ATOM     10  O   UNL     1      20.416 -17.872  -0.713 -2.27 -0.00    +0.000 OA
DOCKED: ATOM     11  H   UNL     1      21.773 -20.629   0.186 -0.58 -0.00    +0.000 HD
DOCKED: BRANCH   9  12
DOCKED: ATOM     12  O   UNL     1      19.763 -20.336   0.272 -0.81 -0.00    +0.000 OA
DOCKED: ATOM     13  H   UNL     1      19.754 -21.118   0.846 -0.11 -0.00    +0.000 HD
DOCKED: ENDBRANCH   9  12
DOCKED: ENDBRANCH   7   8
DOCKED: ENDBRANCH   4   6
DOCKED: ENDBRANCH   1   3
DOCKED: BRANCH   1  14
DOCKED: ATOM     14  C   UNL     1      26.592 -14.273  -2.124 -0.30 -0.00    +0.000 C 
DOCKED: ATOM     15  O   UNL     1      26.698 -13.244  -2.849 -0.25 -0.00    +0.000 OA
DOCKED: BRANCH  14  19
DOCKED: ATOM     16  C   UNL     1      27.684 -14.034   2.054 -0.27 -0.00    +0.000 A 
DOCKED: ATOM     17  C   UNL     1      28.365 -14.891   1.168 -0.12 -0.00    +0.000 A 
DOCKED: ATOM     18  C   UNL     1      28.004 -14.965  -0.180 -0.22 -0.00    +0.000 A 
DOCKED: ATOM     19  C   UNL     1      26.955 -14.180  -0.686 -0.24 -0.00    +0.000 A 
DOCKED: ATOM     20  C   UNL     1      26.265 -13.330   0.196 -0.26 -0.00    +0.000 A 
DOCKED: ATOM     21  C   UNL     1      26.625 -13.256   1.544 -0.27 -0.00    +0.000 A 
DOCKED: BRANCH  16  23
DOCKED: ATOM     22  C   UNL     1      27.101 -14.313   4.507 -0.52 -0.00    +0.000 C 
DOCKED: ATOM     23  N   UNL     1      28.060 -13.955   3.454 -0.39 -0.00    +0.000 N 
DOCKED: ATOM     24  C   UNL     1      29.407 -13.519   3.842 -0.28 -0.00    +0.000 C 
DOCKED: ENDBRANCH  16  23
DOCKED: ENDBRANCH  14  19
DOCKED: ENDBRANCH   1  14
DOCKED: TORSDOF 7
DOCKED: TER
DOCKED: ENDMDL
________________________________________________________________________________


	BEGINNING GENETIC ALGORITHM DOCKING 5 of 100
Run: 5 Seed: 51268859 635575994 [ Run 5 of 100 GA/GALS ]
Beginning LAMARCKIAN GENETIC ALGORITHM (LGA), with a maximum of 2500000 energy evaluations.

Final-Value: -13.606


	FINAL GENETIC ALGORITHM DOCKED STATE
	_______________________________________________


Detailed state:  trans 24.469 -14.427 -1.834 quatxyzw -0.493957 0.690403 -0.523303 -0.074194 center 1.174 0.164 -0.352 ntor 7 -3.0832 76.2361 -57.8733 -143.1165 -130.6375 -103.4793 53.6849
State:	 24.469 -14.427  -1.834  -0.495  0.692 -0.525 -171.490     -3.08   76.24  -57.87 -143.12 -130.64 -103.48   53.68

DOCKED: MODEL        5
DOCKED: USER    Run = 5
DOCKED: USER    DPF = ligand_dock.biased.dpf
DOCKED: USER  
DOCKED: USER    Estimated Free Energy of Binding    =  -10.14 kcal/mol  [=(1)+(2)+(3)-(4)]
DOCKED: USER    Estimated Inhibition Constant, Ki   =   36.93 nM (nanomolar)  [Temperature = 298.15 K]
DOCKED: USER    
DOCKED: USER    (1) Final Intermolecular Energy     =  -12.23 kcal/mol
DOCKED: USER        vdW + Hbond + desolv Energy     =  -12.23 kcal/mol
DOCKED: USER        Electrostatic Energy            =   +0.00 kcal/mol
DOCKED: USER    (2) Final Total Internal Energy     =   -1.38 kcal/mol
DOCKED: USER    (3) Torsional Free Energy           =   +2.09 kcal/mol
DOCKED: USER    (4) Unbound System's Energy  [=(2)] =   -1.38 kcal/mol
DOCKED: USER    
DOCKED: USER    
DOCKED: USER    NEWDPF move ligand.pdbqt
DOCKED: USER    NEWDPF about 1.174000 0.164000 -0.352000
DOCKED: USER    NEWDPF tran0 24.468736 -14.427426 -1.834359
DOCKED: USER    NEWDPF quaternion0 -0.493957 0.690403 -0.523303 -0.074194
DOCKED: USER    NEWDPF axisangle0 -0.495322 0.692311 -0.524749 -171.490168
DOCKED: USER    NEWDPF quat0 -0.495322 0.692311 -0.524749 -171.490168
DOCKED: USER    NEWDPF dihe0 -3.08 76.24 -57.87 -143.12 -130.64 -103.48 53.68 
DOCKED: USER  keepresnum = 1 
DOCKED: USER  
DOCKED: REMARK  Name = 
DOCKED: REMARK  11 active torsions:
DOCKED: REMARK  status: ('A' for Active; 'I' for Inactive)
DOCKED: REMARK    1  A    between atoms: C_1  and  N_2
DOCKED: REMARK    2  A    between atoms: N_2  and  C_3
DOCKED: REMARK    3  A    between atoms: N_2  and  C_22
DOCKED: REMARK    4  A    between atoms: C_6  and  C_9
DOCKED: REMARK    5  A    between atoms: C_9  and  C_10
DOCKED: REMARK    6  A    between atoms: C_10  and  C_11
DOCKED: REMARK    7  A    between atoms: C_10  and  C_20
DOCKED: REMARK    8  A    between atoms: C_12  and  C_13
DOCKED: REMARK    9  A    between atoms: C_12  and  C_19
DOCKED: REMARK   10  A    between atoms: C_14  and  C_15
DOCKED: REMARK   11  A    between atoms: N_16  and  O_17
DOCKED: REMARK                            x       y       z     vdW  Elec       q    Type
DOCKED: REMARK                         _______ _______ _______ _____ _____    ______ ____
DOCKED: USER                              x       y       z     vdW  Elec       q    Type
DOCKED: USER                           _______ _______ _______ _____ _____    ______ ____
DOCKED: ROOT
DOCKED: ATOM      1  C   UNL     1      26.065 -15.396  -2.307 -0.46 -0.00    +0.000 C 
DOCKED: ATOM      2  C   UNL     1      27.160 -16.362  -2.770 -0.23 -0.00    +0.000 C 
DOCKED: ENDROOT
DOCKED: BRANCH   1   3
DOCKED: ATOM      3  C   UNL     1      24.884 -16.163  -1.748 -0.53 -0.00    +0.000 C 
DOCKED: ATOM      4  C   UNL     1      24.965 -17.060  -0.743 -0.64 -0.00    +0.000 C 
DOCKED: ATOM      5  C   UNL     1      26.282 -17.397  -0.080 -0.54 -0.00    +0.000 C 
DOCKED: BRANCH   4   6
DOCKED: ATOM      6  C   UNL     1      23.721 -17.766  -0.342 -0.74 -0.00    +0.000 C 
DOCKED: ATOM      7  C   UNL     1      22.602 -17.758  -1.082 -0.71 -0.00    +0.000 C 
DOCKED: BRANCH   7   8
DOCKED: ATOM      8  C   UNL     1      21.361 -18.458  -0.692 -0.84 -0.00    +0.000 C 
DOCKED: ATOM      9  N   UNL     1      21.372 -19.757  -0.082 -0.64 -0.00    +0.000 N 
DOCKED: ATOM     10  O   UNL     1      20.259 -17.878  -0.882 -2.19 -0.00    +0.000 OA
DOCKED: ATOM     11  H   UNL     1      22.228 -20.176   0.164 -0.54 -0.00    +0.000 HD
DOCKED: BRANCH   9  12
DOCKED: ATOM     12  O   UNL     1      20.208 -20.407   0.155 -0.81 -0.00    +0.000 OA
DOCKED: ATOM     13  H   UNL     1      19.463 -19.841  -0.100 -0.03 -0.00    +0.000 HD
DOCKED: ENDBRANCH   9  12
DOCKED: ENDBRANCH   7   8
DOCKED: ENDBRANCH   4   6
DOCKED: ENDBRANCH   1   3
DOCKED: BRANCH   1  14
DOCKED: ATOM     14  C   UNL     1      25.632 -14.527  -3.468 -0.52 -0.00    +0.000 C 
DOCKED: ATOM     15  O   UNL     1      24.397 -14.386  -3.693 -0.89 -0.00    +0.000 OA
DOCKED: BRANCH  14  19
DOCKED: ATOM     16  C   UNL     1      28.485 -12.605  -6.089 -0.18 -0.00    +0.000 A 
DOCKED: ATOM     17  C   UNL     1      28.271 -13.997  -6.135 -0.29 -0.00    +0.000 A 
DOCKED: ATOM     18  C   UNL     1      27.349 -14.610  -5.282 -0.37 -0.00    +0.000 A 
DOCKED: ATOM     19  C   UNL     1      26.609 -13.852  -4.361 -0.36 -0.00    +0.000 A 
DOCKED: ATOM     20  C   UNL     1      26.825 -12.464  -4.303 -0.23 -0.00    +0.000 A 
DOCKED: ATOM     21  C   UNL     1      27.746 -11.850  -5.155 -0.14 -0.00    +0.000 A 
DOCKED: BRANCH  16  23
DOCKED: ATOM     22  C   UNL     1      30.530 -11.145  -6.433 -0.04 -0.00    +0.000 C 
DOCKED: ATOM     23  N   UNL     1      29.440 -11.966  -6.975 -0.11 -0.00    +0.000 N 
DOCKED: ATOM     24  C   UNL     1      29.335 -12.132  -8.430 -0.21 -0.00    +0.000 C 
DOCKED: ENDBRANCH  16  23
DOCKED: ENDBRANCH  14  19
DOCKED: ENDBRANCH   1  14
DOCKED: TORSDOF 7
DOCKED: TER
DOCKED: ENDMDL
________________________________________________________________________________


	BEGINNING GENETIC ALGORITHM DOCKING 6 of 100
Run: 6 Seed: 1038989691 1567955671 [ Run 6 of 100 GA/GALS ]
Beginning LAMARCKIAN GENETIC ALGORITHM (LGA), with a maximum of 2500000 energy evaluations.

Final-Value: -14.652


	FINAL GENETIC ALGORITHM DOCKED STATE
	_______________________________________________


Detailed state:  trans 25.705 -15.493 -0.573 quatxyzw -0.269855 0.951925 0.025659 -0.142686 center 1.174 0.164 -0.352 ntor 7 14.1595 158.5130 56.1139 22.4299 -169.7518 -31.0745 -50.2005
State:	 25.705 -15.493  -0.573  -0.273  0.962  0.026 -163.593     14.16  158.51   56.11   22.43 -169.75  -31.07  -50.20

DOCKED: MODEL        6
DOCKED: USER    Run = 6
DOCKED: USER    DPF = ligand_dock.biased.dpf
DOCKED: USER  
DOCKED: USER    Estimated Free Energy of Binding    =  -10.86 kcal/mol  [=(1)+(2)+(3)-(4)]
DOCKED: USER    Estimated Inhibition Constant, Ki   =   10.88 nM (nanomolar)  [Temperature = 298.15 K]
DOCKED: USER    
DOCKED: USER    (1) Final Intermolecular Energy     =  -12.95 kcal/mol
DOCKED: USER        vdW + Hbond + desolv Energy     =  -12.95 kcal/mol
DOCKED: USER        Electrostatic Energy            =   +0.00 kcal/mol
DOCKED: USER    (2) Final Total Internal Energy     =   -1.70 kcal/mol
DOCKED: USER    (3) Torsional Free Energy           =   +2.09 kcal/mol
DOCKED: USER    (4) Unbound System's Energy  [=(2)] =   -1.70 kcal/mol
DOCKED: USER    
DOCKED: USER    
DOCKED: USER    NEWDPF move ligand.pdbqt
DOCKED: USER    NEWDPF about 1.174000 0.164000 -0.352000
DOCKED: USER    NEWDPF tran0 25.705306 -15.493175 -0.573079
DOCKED: USER    NEWDPF quaternion0 -0.269855 0.951925 0.025659 -0.142686
DOCKED: USER    NEWDPF axisangle0 -0.272645 0.961765 0.025924 -163.593375
DOCKED: USER    NEWDPF quat0 -0.272645 0.961765 0.025924 -163.593375
DOCKED: USER    NEWDPF dihe0 14.16 158.51 56.11 22.43 -169.75 -31.07 -50.20 
DOCKED: USER  keepresnum = 1 
DOCKED: USER  
DOCKED: REMARK  Name = 
DOCKED: REMARK  11 active torsions:
DOCKED: REMARK  status: ('A' for Active; 'I' for Inactive)
DOCKED: REMARK    1  A    between atoms: C_1  and  N_2
DOCKED: REMARK    2  A    between atoms: N_2  and  C_3
DOCKED: REMARK    3  A    between atoms: N_2  and  C_22
DOCKED: REMARK    4  A    between atoms: C_6  and  C_9
DOCKED: REMARK    5  A    between atoms: C_9  and  C_10
DOCKED: REMARK    6  A    between atoms: C_10  and  C_11
DOCKED: REMARK    7  A    between atoms: C_10  and  C_20
DOCKED: REMARK    8  A    between atoms: C_12  and  C_13
DOCKED: REMARK    9  A    between atoms: C_12  and  C_19
DOCKED: REMARK   10  A    between atoms: C_14  and  C_15
DOCKED: REMARK   11  A    between atoms: N_16  and  O_17
DOCKED: REMARK                            x       y       z     vdW  Elec       q    Type
DOCKED: REMARK                         _______ _______ _______ _____ _____    ______ ____
DOCKED: USER                              x       y       z     vdW  Elec       q    Type
DOCKED: USER                           _______ _______ _______ _____ _____    ______ ____
DOCKED: ROOT
DOCKED: ATOM      1  C   UNL     1      26.676 -15.604  -2.232 -0.40 -0.00    +0.000 C 
DOCKED: ATOM      2  C   UNL     1      27.205 -15.632  -3.670 -0.37 -0.00    +0.000 C 
DOCKED: ENDROOT
DOCKED: BRANCH   1   3
DOCKED: ATOM      3  C   UNL     1      25.254 -16.124  -2.182 -0.57 -0.00    +0.000 C 
DOCKED: ATOM      4  C   UNL     1      24.827 -17.096  -1.349 -0.67 -0.00    +0.000 C 
DOCKED: ATOM      5  C   UNL     1      25.762 -17.779  -0.376 -0.66 -0.00    +0.000 C 
DOCKED: BRANCH   4   6
DOCKED: ATOM      6  C   UNL     1      23.410 -17.529  -1.458 -0.63 -0.00    +0.000 C 
DOCKED: ATOM      7  C   UNL     1      22.879 -18.497  -0.696 -0.84 -0.00    +0.000 C 
DOCKED: BRANCH   7   8
DOCKED: ATOM      8  C   UNL     1      21.471 -18.935  -0.798 -0.86 -0.00    +0.000 C 
DOCKED: ATOM      9  N   UNL     1      20.994 -19.735  -1.888 -0.64 -0.00    +0.000 N 
DOCKED: ATOM     10  O   UNL     1      20.673 -18.609   0.121 -1.33 -0.00    +0.000 OA
DOCKED: ATOM     11  H   UNL     1      21.627 -20.080  -2.558 -0.60 -0.00    +0.000 HD
DOCKED: BRANCH   9  12
DOCKED: ATOM     12  O   UNL     1      19.674 -20.017  -1.998 -1.59 -0.00    +0.000 OA
DOCKED: ATOM     13  H   UNL     1      19.168 -19.435  -1.410 -0.42 -0.00    +0.000 HD
DOCKED: ENDBRANCH   9  12
DOCKED: ENDBRANCH   7   8
DOCKED: ENDBRANCH   4   6
DOCKED: ENDBRANCH   1   3
DOCKED: BRANCH   1  14
DOCKED: ATOM     14  C   UNL     1      26.744 -14.191  -1.695 -0.28 -0.00    +0.000 C 
DOCKED: ATOM     15  O   UNL     1      26.660 -13.227  -2.507 -0.25 -0.00    +0.000 OA
DOCKED: BRANCH  14  19
DOCKED: ATOM     16  C   UNL     1      27.296 -13.386   2.518 -0.31 -0.00    +0.000 A 
DOCKED: ATOM     17  C   UNL     1      27.882 -14.511   1.905 -0.22 -0.00    +0.000 A 
DOCKED: ATOM     18  C   UNL     1      27.696 -14.765   0.544 -0.25 -0.00    +0.000 A 
DOCKED: ATOM     19  C   UNL     1      26.924 -13.901  -0.248 -0.25 -0.00    +0.000 A 
DOCKED: ATOM     20  C   UNL     1      26.328 -12.782   0.359 -0.24 -0.00    +0.000 A 
DOCKED: ATOM     21  C   UNL     1      26.513 -12.527   1.720 -0.31 +0.00    +0.000 A 
DOCKED: BRANCH  16  23
DOCKED: ATOM     22  C   UNL     1      27.435 -14.209   4.913 -0.53 -0.00    +0.000 C 
DOCKED: ATOM     23  N   UNL     1      27.491 -13.119   3.932 -0.40 -0.00    +0.000 N 
DOCKED: ATOM     24  C   UNL     1      27.749 -11.753   4.405 -0.35 +0.00    +0.000 C 
DOCKED: ENDBRANCH  16  23
DOCKED: ENDBRANCH  14  19
DOCKED: ENDBRANCH   1  14
DOCKED: TORSDOF 7
DOCKED: TER
DOCKED: ENDMDL
________________________________________________________________________________


	BEGINNING GENETIC ALGORITHM DOCKING 7 of 100
Run: 7 Seed: 1587183444 840905133 [ Run 7 of 100 GA/GALS ]
Beginning LAMARCKIAN GENETIC ALGORITHM (LGA), with a maximum of 2500000 energy evaluations.

Final-Value: -14.448


	FINAL GENETIC ALGORITHM DOCKED STATE
	_______________________________________________


Detailed state:  trans 25.535 -15.332 -2.874 quatxyzw -0.188890 0.240237 -0.924500 -0.227831 center 1.174 0.164 -0.352 ntor 7 5.8306 180.0000 -2.0211 142.2301 173.1230 151.8098 -41.6203
State:	 25.535 -15.332  -2.874  -0.194  0.247 -0.949 -153.661      5.83  180.00   -2.02  142.23  173.12  151.81  -41.62

DOCKED: MODEL        7
DOCKED: USER    Run = 7
DOCKED: USER    DPF = ligand_dock.biased.dpf
DOCKED: USER  
DOCKED: USER    Estimated Free Energy of Binding    =  -10.98 kcal/mol  [=(1)+(2)+(3)-(4)]
DOCKED: USER    Estimated Inhibition Constant, Ki   =    8.95 nM (nanomolar)  [Temperature = 298.15 K]
DOCKED: USER    
DOCKED: USER    (1) Final Intermolecular Energy     =  -13.07 kcal/mol
DOCKED: USER        vdW + Hbond + desolv Energy     =  -13.07 kcal/mol
DOCKED: USER        Electrostatic Energy            =   +0.00 kcal/mol
DOCKED: USER    (2) Final Total Internal Energy     =   -1.38 kcal/mol
DOCKED: USER    (3) Torsional Free Energy           =   +2.09 kcal/mol
DOCKED: USER    (4) Unbound System's Energy  [=(2)] =   -1.38 kcal/mol
DOCKED: USER    
DOCKED: USER    
DOCKED: USER    NEWDPF move ligand.pdbqt
DOCKED: USER    NEWDPF about 1.174000 0.164000 -0.352000
DOCKED: USER    NEWDPF tran0 25.535314 -15.331915 -2.873734
DOCKED: USER    NEWDPF quaternion0 -0.188890 0.240237 -0.924500 -0.227831
DOCKED: USER    NEWDPF axisangle0 -0.193992 0.246726 -0.949470 -153.661175
DOCKED: USER    NEWDPF quat0 -0.193992 0.246726 -0.949470 -153.661175
DOCKED: USER    NEWDPF dihe0 5.83 180.00 -2.02 142.23 173.12 151.81 -41.62 
DOCKED: USER  keepresnum = 1 
DOCKED: USER  
DOCKED: REMARK  Name = 
DOCKED: REMARK  11 active torsions:
DOCKED: REMARK  status: ('A' for Active; 'I' for Inactive)
DOCKED: REMARK    1  A    between atoms: C_1  and  N_2
DOCKED: REMARK    2  A    between atoms: N_2  and  C_3
DOCKED: REMARK    3  A    between atoms: N_2  and  C_22
DOCKED: REMARK    4  A    between atoms: C_6  and  C_9
DOCKED: REMARK    5  A    between atoms: C_9  and  C_10
DOCKED: REMARK    6  A    between atoms: C_10  and  C_11
DOCKED: REMARK    7  A    between atoms: C_10  and  C_20
DOCKED: REMARK    8  A    between atoms: C_12  and  C_13
DOCKED: REMARK    9  A    between atoms: C_12  and  C_19
DOCKED: REMARK   10  A    between atoms: C_14  and  C_15
DOCKED: REMARK   11  A    between atoms: N_16  and  O_17
DOCKED: REMARK                            x       y       z     vdW  Elec       q    Type
DOCKED: REMARK                         _______ _______ _______ _____ _____    ______ ____
DOCKED: USER                              x       y       z     vdW  Elec       q    Type
DOCKED: USER                           _______ _______ _______ _____ _____    ______ ____
DOCKED: ROOT
DOCKED: ATOM      1  C   UNL     1      26.404 -15.420  -1.157 -0.40 -0.00    +0.000 C 
DOCKED: ATOM      2  C   UNL     1      27.016 -15.756   0.206 -0.29 -0.00    +0.000 C 
DOCKED: ENDROOT
DOCKED: BRANCH   1   3
DOCKED: ATOM      3  C   UNL     1      25.122 -16.199  -1.368 -0.56 -0.00    +0.000 C 
DOCKED: ATOM      4  C   UNL     1      24.995 -17.528  -1.165 -0.69 -0.00    +0.000 C 
DOCKED: ATOM      5  C   UNL     1      26.161 -18.380  -0.713 -0.55 -0.00    +0.000 C 
DOCKED: BRANCH   4   6
DOCKED: ATOM      6  C   UNL     1      23.681 -18.153  -1.465 -0.76 -0.00    +0.000 C 
DOCKED: ATOM      7  C   UNL     1      22.546 -17.810  -0.838 -0.78 -0.00    +0.000 C 
DOCKED: BRANCH   7   8
DOCKED: ATOM      8  C   UNL     1      21.235 -18.426  -1.130 -0.63 -0.00    +0.000 C 
DOCKED: ATOM      9  N   UNL     1      21.111 -19.658  -1.854 -0.60 -0.00    +0.000 N 
DOCKED: ATOM     10  O   UNL     1      20.195 -17.856  -0.706 -2.13 +0.00    +0.000 OA
DOCKED: ATOM     11  H   UNL     1      21.918 -20.165  -2.103 -0.53 -0.00    +0.000 HD
DOCKED: BRANCH   9  12
DOCKED: ATOM     12  O   UNL     1      19.888 -20.127  -2.196 -1.73 -0.00    +0.000 OA
DOCKED: ATOM     13  H   UNL     1      19.213 -19.471  -1.961 -0.45 -0.00    +0.000 HD
DOCKED: ENDBRANCH   9  12
DOCKED: ENDBRANCH   7   8
DOCKED: ENDBRANCH   4   6
DOCKED: ENDBRANCH   1   3
DOCKED: BRANCH   1  14
DOCKED: ATOM     14  C   UNL     1      27.401 -15.734  -2.252 -0.33 -0.00    +0.000 C 
DOCKED: ATOM     15  O   UNL     1      28.143 -16.749  -2.125 -0.35 -0.00    +0.000 OA
DOCKED: BRANCH  14  19
DOCKED: ATOM     16  C   UNL     1      27.809 -13.213  -5.742 -0.23 -0.00    +0.000 A 
DOCKED: ATOM     17  C   UNL     1      27.144 -12.760  -4.585 -0.22 -0.00    +0.000 A 
DOCKED: ATOM     18  C   UNL     1      27.014 -13.583  -3.463 -0.24 -0.00    +0.000 A 
DOCKED: ATOM     19  C   UNL     1      27.549 -14.880  -3.459 -0.27 -0.00    +0.000 A 
DOCKED: ATOM     20  C   UNL     1      28.205 -15.342  -4.613 -0.32 -0.00    +0.000 A 
DOCKED: ATOM     21  C   UNL     1      28.335 -14.521  -5.736 -0.34 -0.00    +0.000 A 
DOCKED: BRANCH  16  23
DOCKED: ATOM     22  C   UNL     1      27.050 -11.213  -7.104 -0.19 -0.00    +0.000 C 
DOCKED: ATOM     23  N   UNL     1      27.947 -12.359  -6.907 -0.21 -0.00    +0.000 N 
DOCKED: ATOM     24  C   UNL     1      28.986 -12.625  -7.909 -0.26 -0.00    +0.000 C 
DOCKED: ENDBRANCH  16  23
DOCKED: ENDBRANCH  14  19
DOCKED: ENDBRANCH   1  14
DOCKED: TORSDOF 7
DOCKED: TER
DOCKED: ENDMDL
________________________________________________________________________________


	BEGINNING GENETIC ALGORITHM DOCKING 8 of 100
Run: 8 Seed: 181276966 1579278045 [ Run 8 of 100 GA/GALS ]
Beginning LAMARCKIAN GENETIC ALGORITHM (LGA), with a maximum of 2500000 energy evaluations.

Final-Value: -14.778


	FINAL GENETIC ALGORITHM DOCKED STATE
	_______________________________________________


Detailed state:  trans 25.167 -15.770 0.918 quatxyzw -0.345352 0.895490 -0.097837 -0.263170 center 1.174 0.164 -0.352 ntor 7 0.1170 180.0000 -30.0449 179.6351 168.8507 -87.1921 -11.7510
State:	 25.167 -15.770   0.918  -0.358  0.928 -0.101 -149.484      0.12  180.00  -30.04  179.64  168.85  -87.19  -11.75

DOCKED: MODEL        8
DOCKED: USER    Run = 8
DOCKED: USER    DPF = ligand_dock.biased.dpf
DOCKED: USER  
DOCKED: USER    Estimated Free Energy of Binding    =  -11.11 kcal/mol  [=(1)+(2)+(3)-(4)]
DOCKED: USER    Estimated Inhibition Constant, Ki   =    7.21 nM (nanomolar)  [Temperature = 298.15 K]
DOCKED: USER    
DOCKED: USER    (1) Final Intermolecular Energy     =  -13.20 kcal/mol
DOCKED: USER        vdW + Hbond + desolv Energy     =  -13.20 kcal/mol
DOCKED: USER        Electrostatic Energy            =   +0.00 kcal/mol
DOCKED: USER    (2) Final Total Internal Energy     =   -1.58 kcal/mol
DOCKED: USER    (3) Torsional Free Energy           =   +2.09 kcal/mol
DOCKED: USER    (4) Unbound System's Energy  [=(2)] =   -1.58 kcal/mol
DOCKED: USER    
DOCKED: USER    
DOCKED: USER    NEWDPF move ligand.pdbqt
DOCKED: USER    NEWDPF about 1.174000 0.164000 -0.352000
DOCKED: USER    NEWDPF tran0 25.167420 -15.770401 0.918116
DOCKED: USER    NEWDPF quaternion0 -0.345352 0.895490 -0.097837 -0.263170
DOCKED: USER    NEWDPF axisangle0 -0.357970 0.928210 -0.101412 -149.483542
DOCKED: USER    NEWDPF quat0 -0.357970 0.928210 -0.101412 -149.483542
DOCKED: USER    NEWDPF dihe0 0.12 180.00 -30.04 179.64 168.85 -87.19 -11.75 
DOCKED: USER  keepresnum = 1 
DOCKED: USER  
DOCKED: REMARK  Name = 
DOCKED: REMARK  11 active torsions:
DOCKED: REMARK  status: ('A' for Active; 'I' for Inactive)
DOCKED: REMARK    1  A    between atoms: C_1  and  N_2
DOCKED: REMARK    2  A    between atoms: N_2  and  C_3
DOCKED: REMARK    3  A    between atoms: N_2  and  C_22
DOCKED: REMARK    4  A    between atoms: C_6  and  C_9
DOCKED: REMARK    5  A    between atoms: C_9  and  C_10
DOCKED: REMARK    6  A    between atoms: C_10  and  C_11
DOCKED: REMARK    7  A    between atoms: C_10  and  C_20
DOCKED: REMARK    8  A    between atoms: C_12  and  C_13
DOCKED: REMARK    9  A    between atoms: C_12  and  C_19
DOCKED: REMARK   10  A    between atoms: C_14  and  C_15
DOCKED: REMARK   11  A    between atoms: N_16  and  O_17
DOCKED: REMARK                            x       y       z     vdW  Elec       q    Type
DOCKED: REMARK                         _______ _______ _______ _____ _____    ______ ____
DOCKED: USER                              x       y       z     vdW  Elec       q    Type
DOCKED: USER                           _______ _______ _______ _____ _____    ______ ____
DOCKED: ROOT
DOCKED: ATOM      1  C   UNL     1      26.628 -15.995  -0.317 -0.41 -0.00    +0.000 C 
DOCKED: ATOM      2  C   UNL     1      27.592 -16.174  -1.494 -0.35 -0.00    +0.000 C 
DOCKED: ENDROOT
DOCKED: BRANCH   1   3
DOCKED: ATOM      3  C   UNL     1      25.325 -16.721  -0.586 -0.49 -0.00    +0.000 C 
DOCKED: ATOM      4  C   UNL     1      25.183 -18.063  -0.570 -0.71 -0.00    +0.000 C 
DOCKED: ATOM      5  C   UNL     1      26.349 -18.985  -0.290 -0.34 -0.00    +0.000 C 
DOCKED: BRANCH   4   6
DOCKED: ATOM      6  C   UNL     1      23.847 -18.623  -0.905 -0.80 -0.00    +0.000 C 
DOCKED: ATOM      7  C   UNL     1      22.707 -17.930  -0.770 -0.81 -0.00    +0.000 C 
DOCKED: BRANCH   7   8
DOCKED: ATOM      8  C   UNL     1      21.376 -18.479  -1.100 -0.72 -0.00    +0.000 C 
DOCKED: ATOM      9  N   UNL     1      21.210 -19.704  -1.826 -0.56 -0.00    +0.000 N 
DOCKED: ATOM     10  O   UNL     1      20.354 -17.855  -0.707 -2.23 -0.00    +0.000 OA
DOCKED: ATOM     11  H   UNL     1      21.997 -20.253  -2.051 -0.48 -0.00    +0.000 HD
DOCKED: BRANCH   9  12
DOCKED: ATOM     12  O   UNL     1      19.975 -20.110  -2.204 -1.80 -0.00    +0.000 OA
DOCKED: ATOM     13  H   UNL     1      19.317 -19.461  -1.910 -0.39 -0.00    +0.000 HD
DOCKED: ENDBRANCH   9  12
DOCKED: ENDBRANCH   7   8
DOCKED: ENDBRANCH   4   6
DOCKED: ENDBRANCH   1   3
DOCKED: BRANCH   1  14
DOCKED: ATOM     14  C   UNL     1      26.376 -14.521  -0.087 -0.29 -0.00    +0.000 C 
DOCKED: ATOM     15  O   UNL     1      25.753 -13.866  -0.969 -0.21 -0.00    +0.000 OA
DOCKED: BRANCH  14  19
DOCKED: ATOM     16  C   UNL     1      27.793 -12.507   3.468 -0.29 -0.00    +0.000 A 
DOCKED: ATOM     17  C   UNL     1      28.234 -13.803   3.137 -0.32 -0.00    +0.000 A 
DOCKED: ATOM     18  C   UNL     1      27.768 -14.448   1.988 -0.24 -0.00    +0.000 A 
DOCKED: ATOM     19  C   UNL     1      26.853 -13.816   1.131 -0.20 -0.00    +0.000 A 
DOCKED: ATOM     20  C   UNL     1      26.401 -12.526   1.461 -0.32 -0.00    +0.000 A 
DOCKED: ATOM     21  C   UNL     1      26.866 -11.881   2.610 -0.24 +0.00    +0.000 A 
DOCKED: BRANCH  16  23
DOCKED: ATOM     22  C   UNL     1      28.862 -12.603   5.766 -0.38 -0.00    +0.000 C 
DOCKED: ATOM     23  N   UNL     1      28.277 -11.835   4.660 -0.29 +0.00    +0.000 N 
DOCKED: ATOM     24  C   UNL     1      28.193 -10.374   4.780 -0.31 +0.00    +0.000 C 
DOCKED: ENDBRANCH  16  23
DOCKED: ENDBRANCH  14  19
DOCKED: ENDBRANCH   1  14
DOCKED: TORSDOF 7
DOCKED: TER
DOCKED: ENDMDL
________________________________________________________________________________


	BEGINNING GENETIC ALGORITHM DOCKING 9 of 100
Run: 9 Seed: 1280907837 1268469901 [ Run 9 of 100 GA/GALS ]
Beginning LAMARCKIAN GENETIC ALGORITHM (LGA), with a maximum of 2500000 energy evaluations.

Final-Value: -14.325


	FINAL GENETIC ALGORITHM DOCKED STATE
	_______________________________________________


Detailed state:  trans 25.563 -15.545 -3.150 quatxyzw 0.199124 -0.206687 0.933048 0.216912 center 1.174 0.164 -0.352 ntor 7 -7.8052 -16.7068 -11.5648 141.9787 176.2773 156.6678 -34.0010
State:	 25.563 -15.545  -3.150   0.204 -0.212  0.956 154.945     -7.81  -16.71  -11.56  141.98  176.28  156.67  -34.00

DOCKED: MODEL        9
DOCKED: USER    Run = 9
DOCKED: USER    DPF = ligand_dock.biased.dpf
DOCKED: USER  
DOCKED: USER    Estimated Free Energy of Binding    =  -10.96 kcal/mol  [=(1)+(2)+(3)-(4)]
DOCKED: USER    Estimated Inhibition Constant, Ki   =    9.22 nM (nanomolar)  [Temperature = 298.15 K]
DOCKED: USER    
DOCKED: USER    (1) Final Intermolecular Energy     =  -13.05 kcal/mol
DOCKED: USER        vdW + Hbond + desolv Energy     =  -13.05 kcal/mol
DOCKED: USER        Electrostatic Energy            =   +0.00 kcal/mol
DOCKED: USER    (2) Final Total Internal Energy     =   -1.28 kcal/mol
DOCKED: USER    (3) Torsional Free Energy           =   +2.09 kcal/mol
DOCKED: USER    (4) Unbound System's Energy  [=(2)] =   -1.28 kcal/mol
DOCKED: USER    
DOCKED: USER    
DOCKED: USER    NEWDPF move ligand.pdbqt
DOCKED: USER    NEWDPF about 1.174000 0.164000 -0.352000
DOCKED: USER    NEWDPF tran0 25.563201 -15.545014 -3.150480
DOCKED: USER    NEWDPF quaternion0 0.199124 -0.206687 0.933048 0.216912
DOCKED: USER    NEWDPF axisangle0 0.203981 -0.211728 0.955805 154.944522
DOCKED: USER    NEWDPF quat0 0.203981 -0.211728 0.955805 154.944522
DOCKED: USER    NEWDPF dihe0 -7.81 -16.71 -11.56 141.98 176.28 156.67 -34.00 
DOCKED: USER  keepresnum = 1 
DOCKED: USER  
DOCKED: REMARK  Name = 
DOCKED: REMARK  11 active torsions:
DOCKED: REMARK  status: ('A' for Active; 'I' for Inactive)
DOCKED: REMARK    1  A    between atoms: C_1  and  N_2
DOCKED: REMARK    2  A    between atoms: N_2  and  C_3
DOCKED: REMARK    3  A    between atoms: N_2  and  C_22
DOCKED: REMARK    4  A    between atoms: C_6  and  C_9
DOCKED: REMARK    5  A    between atoms: C_9  and  C_10
DOCKED: REMARK    6  A    between atoms: C_10  and  C_11
DOCKED: REMARK    7  A    between atoms: C_10  and  C_20
DOCKED: REMARK    8  A    between atoms: C_12  and  C_13
DOCKED: REMARK    9  A    between atoms: C_12  and  C_19
DOCKED: REMARK   10  A    between atoms: C_14  and  C_15
DOCKED: REMARK   11  A    between atoms: N_16  and  O_17
DOCKED: REMARK                            x       y       z     vdW  Elec       q    Type
DOCKED: REMARK                         _______ _______ _______ _____ _____    ______ ____
DOCKED: USER                              x       y       z     vdW  Elec       q    Type
DOCKED: USER                           _______ _______ _______ _____ _____    ______ ____
DOCKED: ROOT
DOCKED: ATOM      1  C   UNL     1      26.442 -15.510  -1.437 -0.41 -0.00    +0.000 C 
DOCKED: ATOM      2  C   UNL     1      27.060 -15.747  -0.055 -0.36 -0.00    +0.000 C 
DOCKED: ENDROOT
DOCKED: BRANCH   1   3
DOCKED: ATOM      3  C   UNL     1      25.154 -16.294  -1.581 -0.58 -0.00    +0.000 C 
DOCKED: ATOM      4  C   UNL     1      24.994 -17.577  -1.192 -0.69 -0.00    +0.000 C 
DOCKED: ATOM      5  C   UNL     1      26.125 -18.369  -0.575 -0.59 -0.00    +0.000 C 
DOCKED: BRANCH   4   6
DOCKED: ATOM      6  C   UNL     1      23.680 -18.221  -1.449 -0.77 -0.00    +0.000 C 
DOCKED: ATOM      7  C   UNL     1      22.530 -17.778  -0.920 -0.75 -0.00    +0.000 C 
DOCKED: BRANCH   7   8
DOCKED: ATOM      8  C   UNL     1      21.219 -18.412  -1.170 -0.53 -0.00    +0.000 C 
DOCKED: ATOM      9  N   UNL     1      21.089 -19.643  -1.895 -0.57 -0.00    +0.000 N 
DOCKED: ATOM     10  O   UNL     1      20.186 -17.860  -0.708 -2.14 +0.00    +0.000 OA
DOCKED: ATOM     11  H   UNL     1      21.894 -20.136  -2.174 -0.56 -0.00    +0.000 HD
DOCKED: BRANCH   9  12
DOCKED: ATOM     12  O   UNL     1      19.862 -20.128  -2.197 -1.70 -0.00    +0.000 OA
DOCKED: ATOM     13  H   UNL     1      19.184 -19.596  -1.751 -0.43 -0.00    +0.000 HD
DOCKED: ENDBRANCH   9  12
DOCKED: ENDBRANCH   7   8
DOCKED: ENDBRANCH   4   6
DOCKED: ENDBRANCH   1   3
DOCKED: BRANCH   1  14
DOCKED: ATOM     14  C   UNL     1      27.430 -15.912  -2.510 -0.34 -0.00    +0.000 C 
DOCKED: ATOM     15  O   UNL     1      28.062 -16.998  -2.378 -0.34 -0.00    +0.000 OA
DOCKED: BRANCH  14  19
DOCKED: ATOM     16  C   UNL     1      28.186 -13.406  -5.953 -0.25 -0.00    +0.000 A 
DOCKED: ATOM     17  C   UNL     1      27.599 -12.885  -4.783 -0.20 -0.00    +0.000 A 
DOCKED: ATOM     18  C   UNL     1      27.355 -13.703  -3.677 -0.22 -0.00    +0.000 A 
DOCKED: ATOM     19  C   UNL     1      27.696 -15.064  -3.702 -0.28 -0.00    +0.000 A 
DOCKED: ATOM     20  C   UNL     1      28.273 -15.593  -4.869 -0.33 -0.00    +0.000 A 
DOCKED: ATOM     21  C   UNL     1      28.516 -14.777  -5.977 -0.36 -0.00    +0.000 A 
DOCKED: BRANCH  16  23
DOCKED: ATOM     22  C   UNL     1      29.650 -12.745  -7.916 -0.21 -0.00    +0.000 C 
DOCKED: ATOM     23  N   UNL     1      28.441 -12.558  -7.103 -0.23 -0.00    +0.000 N 
DOCKED: ATOM     24  C   UNL     1      27.495 -11.499  -7.474 -0.20 -0.00    +0.000 C 
DOCKED: ENDBRANCH  16  23
DOCKED: ENDBRANCH  14  19
DOCKED: ENDBRANCH   1  14
DOCKED: TORSDOF 7
DOCKED: TER
DOCKED: ENDMDL
________________________________________________________________________________


	BEGINNING GENETIC ALGORITHM DOCKING 10 of 100
Run: 10 Seed: 812538839 1316934444 [ Run 10 of 100 GA/GALS ]
Beginning LAMARCKIAN GENETIC ALGORITHM (LGA), with a maximum of 2500000 energy evaluations.

Final-Value: -15.211


	FINAL GENETIC ALGORITHM DOCKED STATE
	_______________________________________________


Detailed state:  trans 25.789 -15.714 0.342 quatxyzw -0.342206 0.915767 -0.055365 -0.202979 center 1.174 0.164 -0.352 ntor 7 3.2083 171.7600 -31.3951 162.5331 179.9469 -58.9241 -33.8500
State:	 25.789 -15.714   0.342  -0.349  0.935 -0.057 -156.578      3.21  171.76  -31.40  162.53  179.95  -58.92  -33.85

DOCKED: MODEL       10
DOCKED: USER    Run = 10
DOCKED: USER    DPF = ligand_dock.biased.dpf
DOCKED: USER  
DOCKED: USER    Estimated Free Energy of Binding    =  -11.43 kcal/mol  [=(1)+(2)+(3)-(4)]
DOCKED: USER    Estimated Inhibition Constant, Ki   =    4.18 nM (nanomolar)  [Temperature = 298.15 K]
DOCKED: USER    
DOCKED: USER    (1) Final Intermolecular Energy     =  -13.52 kcal/mol
DOCKED: USER        vdW + Hbond + desolv Energy     =  -13.52 kcal/mol
DOCKED: USER        Electrostatic Energy            =   +0.00 kcal/mol
DOCKED: USER    (2) Final Total Internal Energy     =   -1.69 kcal/mol
DOCKED: USER    (3) Torsional Free Energy           =   +2.09 kcal/mol
DOCKED: USER    (4) Unbound System's Energy  [=(2)] =   -1.69 kcal/mol
DOCKED: USER    
DOCKED: USER    
DOCKED: USER    NEWDPF move ligand.pdbqt
DOCKED: USER    NEWDPF about 1.174000 0.164000 -0.352000
DOCKED: USER    NEWDPF tran0 25.788991 -15.714144 0.341706
DOCKED: USER    NEWDPF quaternion0 -0.342206 0.915767 -0.055365 -0.202979
DOCKED: USER    NEWDPF axisangle0 -0.349481 0.935236 -0.056542 -156.577615
DOCKED: USER    NEWDPF quat0 -0.349481 0.935236 -0.056542 -156.577615
DOCKED: USER    NEWDPF dihe0 3.21 171.76 -31.40 162.53 179.95 -58.92 -33.85 
DOCKED: USER  keepresnum = 1 
DOCKED: USER  
DOCKED: REMARK  Name = 
DOCKED: REMARK  11 active torsions:
DOCKED: REMARK  status: ('A' for Active; 'I' for Inactive)
DOCKED: REMARK    1  A    between atoms: C_1  and  N_2
DOCKED: REMARK    2  A    between atoms: N_2  and  C_3
DOCKED: REMARK    3  A    between atoms: N_2  and  C_22
DOCKED: REMARK    4  A    between atoms: C_6  and  C_9
DOCKED: REMARK    5  A    between atoms: C_9  and  C_10
DOCKED: REMARK    6  A    between atoms: C_10  and  C_11
DOCKED: REMARK    7  A    between atoms: C_10  and  C_20
DOCKED: REMARK    8  A    between atoms: C_12  and  C_13
DOCKED: REMARK    9  A    between atoms: C_12  and  C_19
DOCKED: REMARK   10  A    between atoms: C_14  and  C_15
DOCKED: REMARK   11  A    between atoms: N_16  and  O_17
DOCKED: REMARK                            x       y       z     vdW  Elec       q    Type
DOCKED: REMARK                         _______ _______ _______ _____ _____    ______ ____
DOCKED: USER                              x       y       z     vdW  Elec       q    Type
DOCKED: USER                           _______ _______ _______ _____ _____    ______ ____
DOCKED: ROOT
DOCKED: ATOM      1  C   UNL     1      27.049 -15.898  -1.103 -0.39 -0.00    +0.000 C 
DOCKED: ATOM      2  C   UNL     1      27.829 -16.034  -2.415 -0.31 -0.00    +0.000 C 
DOCKED: ENDROOT
DOCKED: BRANCH   1   3
DOCKED: ATOM      3  C   UNL     1      25.713 -16.604  -1.206 -0.57 -0.00    +0.000 C 
DOCKED: ATOM      4  C   UNL     1      25.457 -17.828  -0.700 -0.68 -0.00    +0.000 C 
DOCKED: ATOM      5  C   UNL     1      26.518 -18.631   0.020 -0.53 -0.00    +0.000 C 
DOCKED: BRANCH   4   6
DOCKED: ATOM      6  C   UNL     1      24.107 -18.405  -0.929 -0.79 -0.00    +0.000 C 
DOCKED: ATOM      7  C   UNL     1      22.978 -17.685  -0.847 -0.78 -0.00    +0.000 C 
DOCKED: BRANCH   7   8
DOCKED: ATOM      8  C   UNL     1      21.632 -18.250  -1.074 -0.72 -0.00    +0.000 C 
DOCKED: ATOM      9  N   UNL     1      21.432 -19.540  -1.669 -0.58 -0.00    +0.000 N 
DOCKED: ATOM     10  O   UNL     1      20.630 -17.580  -0.708 -2.15 +0.00    +0.000 OA
DOCKED: ATOM     11  H   UNL     1      22.206 -20.115  -1.866 -0.48 -0.00    +0.000 HD
DOCKED: BRANCH   9  12
DOCKED: ATOM     12  O   UNL     1      20.181 -19.968  -1.960 -1.82 -0.00    +0.000 OA
DOCKED: ATOM     13  H   UNL     1      19.542 -19.268  -1.753 -0.27 -0.00    +0.000 HD
DOCKED: ENDBRANCH   9  12
DOCKED: ENDBRANCH   7   8
DOCKED: ENDBRANCH   4   6
DOCKED: ENDBRANCH   1   3
DOCKED: BRANCH   1  14
DOCKED: ATOM     14  C   UNL     1      26.852 -14.432  -0.780 -0.30 -0.00    +0.000 C 
DOCKED: ATOM     15  O   UNL     1      26.493 -13.650  -1.704 -0.26 -0.00    +0.000 OA
DOCKED: BRANCH  14  19
DOCKED: ATOM     16  C   UNL     1      27.558 -12.866   3.189 -0.30 -0.00    +0.000 A 
DOCKED: ATOM     17  C   UNL     1      28.167 -14.060   2.754 -0.31 -0.00    +0.000 A 
DOCKED: ATOM     18  C   UNL     1      27.931 -14.560   1.471 -0.22 -0.00    +0.000 A 
DOCKED: ATOM     19  C   UNL     1      27.084 -13.881   0.581 -0.26 -0.00    +0.000 A 
DOCKED: ATOM     20  C   UNL     1      26.465 -12.695   1.012 -0.31 -0.00    +0.000 A 
DOCKED: ATOM     21  C   UNL     1      26.700 -12.194   2.294 -0.28 +0.00    +0.000 A 
DOCKED: BRANCH  16  23
DOCKED: ATOM     22  C   UNL     1      28.131 -13.248   5.630 -0.48 -0.00    +0.000 C 
DOCKED: ATOM     23  N   UNL     1      27.804 -12.343   4.520 -0.36 +0.00    +0.000 N 
DOCKED: ATOM     24  C   UNL     1      27.733 -10.900   4.781 -0.38 +0.00    +0.000 C 
DOCKED: ENDBRANCH  16  23
DOCKED: ENDBRANCH  14  19
DOCKED: ENDBRANCH   1  14
DOCKED: TORSDOF 7
DOCKED: TER
DOCKED: ENDMDL
________________________________________________________________________________


	BEGINNING GENETIC ALGORITHM DOCKING 11 of 100
Run: 11 Seed: 216895519 297981516 [ Run 11 of 100 GA/GALS ]
Beginning LAMARCKIAN GENETIC ALGORITHM (LGA), with a maximum of 2500000 energy evaluations.

Final-Value: -13.883


	FINAL GENETIC ALGORITHM DOCKED STATE
	_______________________________________________


Detailed state:  trans 24.651 -14.945 -2.346 quatxyzw -0.463870 0.622019 -0.616235 -0.134799 center 1.174 0.164 -0.352 ntor 7 6.1934 -155.6453 -24.2259 173.8753 -150.6210 -108.2315 -24.8642
State:	 24.651 -14.945  -2.346  -0.468  0.628 -0.622 -164.506      6.19 -155.65  -24.23  173.88 -150.62 -108.23  -24.86

DOCKED: MODEL       11
DOCKED: USER    Run = 11
DOCKED: USER    DPF = ligand_dock.biased.dpf
DOCKED: USER  
DOCKED: USER    Estimated Free Energy of Binding    =  -10.42 kcal/mol  [=(1)+(2)+(3)-(4)]
DOCKED: USER    Estimated Inhibition Constant, Ki   =   23.04 nM (nanomolar)  [Temperature = 298.15 K]
DOCKED: USER    
DOCKED: USER    (1) Final Intermolecular Energy     =  -12.51 kcal/mol
DOCKED: USER        vdW + Hbond + desolv Energy     =  -12.51 kcal/mol
DOCKED: USER        Electrostatic Energy            =   +0.00 kcal/mol
DOCKED: USER    (2) Final Total Internal Energy     =   -1.38 kcal/mol
DOCKED: USER    (3) Torsional Free Energy           =   +2.09 kcal/mol
DOCKED: USER    (4) Unbound System's Energy  [=(2)] =   -1.38 kcal/mol
DOCKED: USER    
DOCKED: USER    
DOCKED: USER    NEWDPF move ligand.pdbqt
DOCKED: USER    NEWDPF about 1.174000 0.164000 -0.352000
DOCKED: USER    NEWDPF tran0 24.651185 -14.945207 -2.345799
DOCKED: USER    NEWDPF quaternion0 -0.463870 0.622019 -0.616235 -0.134799
DOCKED: USER    NEWDPF axisangle0 -0.468143 0.627749 -0.621911 -164.506032
DOCKED: USER    NEWDPF quat0 -0.468143 0.627749 -0.621911 -164.506032
DOCKED: USER    NEWDPF dihe0 6.19 -155.65 -24.23 173.88 -150.62 -108.23 -24.86 
DOCKED: USER  keepresnum = 1 
DOCKED: USER  
DOCKED: REMARK  Name = 
DOCKED: REMARK  11 active torsions:
DOCKED: REMARK  status: ('A' for Active; 'I' for Inactive)
DOCKED: REMARK    1  A    between atoms: C_1  and  N_2
DOCKED: REMARK    2  A    between atoms: N_2  and  C_3
DOCKED: REMARK    3  A    between atoms: N_2  and  C_22
DOCKED: REMARK    4  A    between atoms: C_6  and  C_9
DOCKED: REMARK    5  A    between atoms: C_9  and  C_10
DOCKED: REMARK    6  A    between atoms: C_10  and  C_11
DOCKED: REMARK    7  A    between atoms: C_10  and  C_20
DOCKED: REMARK    8  A    between atoms: C_12  and  C_13
DOCKED: REMARK    9  A    between atoms: C_12  and  C_19
DOCKED: REMARK   10  A    between atoms: C_14  and  C_15
DOCKED: REMARK   11  A    between atoms: N_16  and  O_17
DOCKED: REMARK                            x       y       z     vdW  Elec       q    Type
DOCKED: REMARK                         _______ _______ _______ _____ _____    ______ ____
DOCKED: USER                              x       y       z     vdW  Elec       q    Type
DOCKED: USER                           _______ _______ _______ _____ _____    ______ ____
DOCKED: ROOT
DOCKED: ATOM      1  C   UNL     1      26.368 -15.818  -2.330 -0.46 -0.00    +0.000 C 
DOCKED: ATOM      2  C   UNL     1      27.594 -16.733  -2.409 -0.22 -0.00    +0.000 C 
DOCKED: ENDROOT
DOCKED: BRANCH   1   3
DOCKED: ATOM      3  C   UNL     1      25.141 -16.611  -1.928 -0.61 -0.00    +0.000 C 
DOCKED: ATOM      4  C   UNL     1      25.082 -17.435  -0.860 -0.68 -0.00    +0.000 C 
DOCKED: ATOM      5  C   UNL     1      26.276 -17.656   0.043 -0.57 -0.00    +0.000 C 
DOCKED: BRANCH   4   6
DOCKED: ATOM      6  C   UNL     1      23.819 -18.182  -0.629 -0.80 -0.00    +0.000 C 
DOCKED: ATOM      7  C   UNL     1      22.615 -17.719  -0.998 -0.72 -0.00    +0.000 C 
DOCKED: BRANCH   7   8
DOCKED: ATOM      8  C   UNL     1      21.354 -18.455  -0.772 -0.83 -0.00    +0.000 C 
DOCKED: ATOM      9  N   UNL     1      21.328 -19.791  -0.252 -0.66 -0.00    +0.000 N 
DOCKED: ATOM     10  O   UNL     1      20.266 -17.874  -1.026 -2.18 -0.00    +0.000 OA
DOCKED: ATOM     11  H   UNL     1      22.164 -20.218   0.045 -0.55 -0.00    +0.000 HD
DOCKED: BRANCH   9  12
DOCKED: ATOM     12  O   UNL     1      20.158 -20.466  -0.168 -0.85 -0.00    +0.000 OA
DOCKED: ATOM     13  H   UNL     1      19.454 -19.948  -0.588 -0.09 -0.00    +0.000 HD
DOCKED: ENDBRANCH   9  12
DOCKED: ENDBRANCH   7   8
DOCKED: ENDBRANCH   4   6
DOCKED: ENDBRANCH   1   3
DOCKED: BRANCH   1  14
DOCKED: ATOM     14  C   UNL     1      26.149 -15.146  -3.668 -0.54 -0.00    +0.000 C 
DOCKED: ATOM     15  O   UNL     1      26.065 -15.865  -4.703 -0.87 -0.00    +0.000 OA
DOCKED: BRANCH  14  19
DOCKED: ATOM     16  C   UNL     1      25.903 -10.844  -4.048 -0.19 -0.00    +0.000 A 
DOCKED: ATOM     17  C   UNL     1      26.985 -11.460  -3.388 -0.13 -0.00    +0.000 A 
DOCKED: ATOM     18  C   UNL     1      27.055 -12.850  -3.267 -0.19 -0.00    +0.000 A 
DOCKED: ATOM     19  C   UNL     1      26.050 -13.669  -3.806 -0.38 -0.00    +0.000 A 
DOCKED: ATOM     20  C   UNL     1      24.962 -13.061  -4.457 -0.18 -0.00    +0.000 A 
DOCKED: ATOM     21  C   UNL     1      24.891 -11.671  -4.578 -0.22 -0.00    +0.000 A 
DOCKED: BRANCH  16  23
DOCKED: ATOM     22  C   UNL     1      26.927  -8.551  -3.694 -0.09 -0.00    +0.000 C 
DOCKED: ATOM     23  N   UNL     1      25.830  -9.401  -4.176 -0.19 -0.00    +0.000 N 
DOCKED: ATOM     24  C   UNL     1      24.659  -8.764  -4.793 -0.30 -0.00    +0.000 C 
DOCKED: ENDBRANCH  16  23
DOCKED: ENDBRANCH  14  19
DOCKED: ENDBRANCH   1  14
DOCKED: TORSDOF 7
DOCKED: TER
DOCKED: ENDMDL
________________________________________________________________________________


	BEGINNING GENETIC ALGORITHM DOCKING 12 of 100
Run: 12 Seed: 577631972 27229362 [ Run 12 of 100 GA/GALS ]
Beginning LAMARCKIAN GENETIC ALGORITHM (LGA), with a maximum of 2500000 energy evaluations.

Final-Value: -14.235


	FINAL GENETIC ALGORITHM DOCKED STATE
	_______________________________________________


Detailed state:  trans 24.470 -14.674 -2.039 quatxyzw -0.476785 0.649308 -0.572022 -0.154487 center 1.174 0.164 -0.352 ntor 7 54.4148 158.9738 -18.6400 174.8908 41.0103 -110.1397 79.2268
State:	 24.470 -14.674  -2.039  -0.483  0.657 -0.579 -162.226     54.41  158.97  -18.64  174.89   41.01 -110.14   79.23

DOCKED: MODEL       12
DOCKED: USER    Run = 12
DOCKED: USER    DPF = ligand_dock.biased.dpf
DOCKED: USER  
DOCKED: USER    Estimated Free Energy of Binding    =  -11.32 kcal/mol  [=(1)+(2)+(3)-(4)]
DOCKED: USER    Estimated Inhibition Constant, Ki   =    5.02 nM (nanomolar)  [Temperature = 298.15 K]
DOCKED: USER    
DOCKED: USER    (1) Final Intermolecular Energy     =  -13.41 kcal/mol
DOCKED: USER        vdW + Hbond + desolv Energy     =  -13.41 kcal/mol
DOCKED: USER        Electrostatic Energy            =   +0.00 kcal/mol
DOCKED: USER    (2) Final Total Internal Energy     =   -0.82 kcal/mol
DOCKED: USER    (3) Torsional Free Energy           =   +2.09 kcal/mol
DOCKED: USER    (4) Unbound System's Energy  [=(2)] =   -0.82 kcal/mol
DOCKED: USER    
DOCKED: USER    
DOCKED: USER    NEWDPF move ligand.pdbqt
DOCKED: USER    NEWDPF about 1.174000 0.164000 -0.352000
DOCKED: USER    NEWDPF tran0 24.469603 -14.673626 -2.038906
DOCKED: USER    NEWDPF quaternion0 -0.476785 0.649308 -0.572022 -0.154487
DOCKED: USER    NEWDPF axisangle0 -0.482579 0.657197 -0.578973 -162.225885
DOCKED: USER    NEWDPF quat0 -0.482579 0.657197 -0.578973 -162.225885
DOCKED: USER    NEWDPF dihe0 54.41 158.97 -18.64 174.89 41.01 -110.14 79.23 
DOCKED: USER  keepresnum = 1 
DOCKED: USER  
DOCKED: REMARK  Name = 
DOCKED: REMARK  11 active torsions:
DOCKED: REMARK  status: ('A' for Active; 'I' for Inactive)
DOCKED: REMARK    1  A    between atoms: C_1  and  N_2
DOCKED: REMARK    2  A    between atoms: N_2  and  C_3
DOCKED: REMARK    3  A    between atoms: N_2  and  C_22
DOCKED: REMARK    4  A    between atoms: C_6  and  C_9
DOCKED: REMARK    5  A    between atoms: C_9  and  C_10
DOCKED: REMARK    6  A    between atoms: C_10  and  C_11
DOCKED: REMARK    7  A    between atoms: C_10  and  C_20
DOCKED: REMARK    8  A    between atoms: C_12  and  C_13
DOCKED: REMARK    9  A    between atoms: C_12  and  C_19
DOCKED: REMARK   10  A    between atoms: C_14  and  C_15
DOCKED: REMARK   11  A    between atoms: N_16  and  O_17
DOCKED: REMARK                            x       y       z     vdW  Elec       q    Type
DOCKED: REMARK                         _______ _______ _______ _____ _____    ______ ____
DOCKED: USER                              x       y       z     vdW  Elec       q    Type
DOCKED: USER                           _______ _______ _______ _____ _____    ______ ____
DOCKED: ROOT
DOCKED: ATOM      1  C   UNL     1      26.206 -15.494  -2.179 -0.45 -0.00    +0.000 C 
DOCKED: ATOM      2  C   UNL     1      27.451 -16.360  -2.401 -0.33 -0.00    +0.000 C 
DOCKED: ENDROOT
DOCKED: BRANCH   1   3
DOCKED: ATOM      3  C   UNL     1      25.018 -16.359  -1.815 -0.59 -0.00    +0.000 C 
DOCKED: ATOM      4  C   UNL     1      25.034 -17.315  -0.862 -0.67 -0.00    +0.000 C 
DOCKED: ATOM      5  C   UNL     1      26.282 -17.624  -0.064 -0.58 -0.00    +0.000 C 
DOCKED: BRANCH   4   6
DOCKED: ATOM      6  C   UNL     1      23.797 -18.113  -0.659 -0.80 -0.00    +0.000 C 
DOCKED: ATOM      7  C   UNL     1      22.569 -17.640  -0.914 -0.72 -0.00    +0.000 C 
DOCKED: BRANCH   7   8
DOCKED: ATOM      8  C   UNL     1      21.334 -18.426  -0.715 -0.84 -0.00    +0.000 C 
DOCKED: ATOM      9  N   UNL     1      21.355 -19.779  -0.239 -0.66 -0.00    +0.000 N 
DOCKED: ATOM     10  O   UNL     1      20.226 -17.876  -0.953 -2.15 -0.00    +0.000 OA
DOCKED: ATOM     11  H   UNL     1      22.205 -20.186   0.046 -0.55 -0.00    +0.000 HD
DOCKED: BRANCH   9  12
DOCKED: ATOM     12  O   UNL     1      20.209 -20.497  -0.179 -0.85 -0.00    +0.000 OA
DOCKED: ATOM     13  H   UNL     1      19.780 -20.496  -1.050 -0.46 -0.00    +0.000 HD
DOCKED: ENDBRANCH   9  12
DOCKED: ENDBRANCH   7   8
DOCKED: ENDBRANCH   4   6
DOCKED: ENDBRANCH   1   3
DOCKED: BRANCH   1  14
DOCKED: ATOM     14  C   UNL     1      25.916 -14.694  -3.431 -0.51 -0.00    +0.000 C 
DOCKED: ATOM     15  O   UNL     1      24.744 -14.262  -3.618 -0.94 -0.00    +0.000 OA
DOCKED: BRANCH  14  19
DOCKED: ATOM     16  C   UNL     1      28.946 -13.836  -6.396 -0.27 -0.00    +0.000 A 
DOCKED: ATOM     17  C   UNL     1      28.340 -12.806  -5.649 -0.18 -0.00    +0.000 A 
DOCKED: ATOM     18  C   UNL     1      27.360 -13.092  -4.696 -0.23 -0.00    +0.000 A 
DOCKED: ATOM     19  C   UNL     1      26.958 -14.415  -4.453 -0.38 -0.00    +0.000 A 
DOCKED: ATOM     20  C   UNL     1      27.551 -15.447  -5.202 -0.31 +0.00    +0.000 A 
DOCKED: ATOM     21  C   UNL     1      28.531 -15.162  -6.156 -0.34 -0.00    +0.000 A 
DOCKED: BRANCH  16  23
DOCKED: ATOM     22  C   UNL     1      29.823 -12.390  -8.285 -0.18 -0.00    +0.000 C 
DOCKED: ATOM     23  N   UNL     1      29.966 -13.541  -7.385 -0.22 -0.00    +0.000 N 
DOCKED: ATOM     24  C   UNL     1      31.159 -14.389  -7.503 -0.20 -0.00    +0.000 C 
DOCKED: ENDBRANCH  16  23
DOCKED: ENDBRANCH  14  19
DOCKED: ENDBRANCH   1  14
DOCKED: TORSDOF 7
DOCKED: TER
DOCKED: ENDMDL
________________________________________________________________________________


	BEGINNING GENETIC ALGORITHM DOCKING 13 of 100
Run: 13 Seed: 671646720 1557076291 [ Run 13 of 100 GA/GALS ]
Beginning LAMARCKIAN GENETIC ALGORITHM (LGA), with a maximum of 2500000 energy evaluations.

Final-Value: -13.781


	FINAL GENETIC ALGORITHM DOCKED STATE
	_______________________________________________


Detailed state:  trans 26.198 -17.212 -0.466 quatxyzw 0.211468 -0.856472 -0.464091 0.079731 center 1.174 0.164 -0.352 ntor 7 61.6856 127.2378 69.0440 101.4720 88.1266 10.0577 118.1555
State:	 26.198 -17.212  -0.466   0.212 -0.859 -0.466 170.854     61.69  127.24   69.04  101.47   88.13   10.06  118.16

DOCKED: MODEL       13
DOCKED: USER    Run = 13
DOCKED: USER    DPF = ligand_dock.biased.dpf
DOCKED: USER  
DOCKED: USER    Estimated Free Energy of Binding    =  -10.65 kcal/mol  [=(1)+(2)+(3)-(4)]
DOCKED: USER    Estimated Inhibition Constant, Ki   =   15.59 nM (nanomolar)  [Temperature = 298.15 K]
DOCKED: USER    
DOCKED: USER    (1) Final Intermolecular Energy     =  -12.74 kcal/mol
DOCKED: USER        vdW + Hbond + desolv Energy     =  -12.74 kcal/mol
DOCKED: USER        Electrostatic Energy            =   +0.00 kcal/mol
DOCKED: USER    (2) Final Total Internal Energy     =   -1.04 kcal/mol
DOCKED: USER    (3) Torsional Free Energy           =   +2.09 kcal/mol
DOCKED: USER    (4) Unbound System's Energy  [=(2)] =   -1.04 kcal/mol
DOCKED: USER    
DOCKED: USER    
DOCKED: USER    NEWDPF move ligand.pdbqt
DOCKED: USER    NEWDPF about 1.174000 0.164000 -0.352000
DOCKED: USER    NEWDPF tran0 26.198362 -17.211804 -0.465727
DOCKED: USER    NEWDPF quaternion0 0.211468 -0.856472 -0.464091 0.079731
DOCKED: USER    NEWDPF axisangle0 0.212144 -0.859207 -0.465573 170.853801
DOCKED: USER    NEWDPF quat0 0.212144 -0.859207 -0.465573 170.853801
DOCKED: USER    NEWDPF dihe0 61.69 127.24 69.04 101.47 88.13 10.06 118.16 
DOCKED: USER  keepresnum = 1 
DOCKED: USER  
DOCKED: REMARK  Name = 
DOCKED: REMARK  11 active torsions:
DOCKED: REMARK  status: ('A' for Active; 'I' for Inactive)
DOCKED: REMARK    1  A    between atoms: C_1  and  N_2
DOCKED: REMARK    2  A    between atoms: N_2  and  C_3
DOCKED: REMARK    3  A    between atoms: N_2  and  C_22
DOCKED: REMARK    4  A    between atoms: C_6  and  C_9
DOCKED: REMARK    5  A    between atoms: C_9  and  C_10
DOCKED: REMARK    6  A    between atoms: C_10  and  C_11
DOCKED: REMARK    7  A    between atoms: C_10  and  C_20
DOCKED: REMARK    8  A    between atoms: C_12  and  C_13
DOCKED: REMARK    9  A    between atoms: C_12  and  C_19
DOCKED: REMARK   10  A    between atoms: C_14  and  C_15
DOCKED: REMARK   11  A    between atoms: N_16  and  O_17
DOCKED: REMARK                            x       y       z     vdW  Elec       q    Type
DOCKED: REMARK                         _______ _______ _______ _____ _____    ______ ____
DOCKED: USER                              x       y       z     vdW  Elec       q    Type
DOCKED: USER                           _______ _______ _______ _____ _____    ______ ____
DOCKED: ROOT
DOCKED: ATOM      1  C   UNL     1      26.564 -15.890  -1.817 -0.43 -0.00    +0.000 C 
DOCKED: ATOM      2  C   UNL     1      26.593 -14.761  -2.853 -0.38 -0.00    +0.000 C 
DOCKED: ENDROOT
DOCKED: BRANCH   1   3
DOCKED: ATOM      3  C   UNL     1      25.202 -16.550  -1.793 -0.61 -0.00    +0.000 C 
DOCKED: ATOM      4  C   UNL     1      24.923 -17.699  -1.141 -0.70 -0.00    +0.000 C 
DOCKED: ATOM      5  C   UNL     1      25.982 -18.455  -0.369 -0.63 -0.00    +0.000 C 
DOCKED: BRANCH   4   6
DOCKED: ATOM      6  C   UNL     1      23.546 -18.245  -1.256 -0.79 -0.00    +0.000 C 
DOCKED: ATOM      7  C   UNL     1      22.623 -18.117  -0.291 -0.82 -0.00    +0.000 C 
DOCKED: BRANCH   7   8
DOCKED: ATOM      8  C   UNL     1      21.252 -18.657  -0.397 -0.80 -0.00    +0.000 C 
DOCKED: ATOM      9  N   UNL     1      20.925 -20.000  -0.014 -0.67 -0.00    +0.000 N 
DOCKED: ATOM     10  O   UNL     1      20.338 -17.899  -0.818 -2.22 -0.00    +0.000 OA
DOCKED: ATOM     11  H   UNL     1      21.607 -20.569   0.410 -0.60 -0.00    +0.000 HD
DOCKED: BRANCH   9  12
DOCKED: ATOM     12  O   UNL     1      19.681 -20.487  -0.233 -0.86 -0.00    +0.000 OA
DOCKED: ATOM     13  H   UNL     1      19.497 -20.488  -1.186 -0.58 -0.00    +0.000 HD
DOCKED: ENDBRANCH   9  12
DOCKED: ENDBRANCH   7   8
DOCKED: ENDBRANCH   4   6
DOCKED: ENDBRANCH   1   3
DOCKED: BRANCH   1  14
DOCKED: ATOM     14  C   UNL     1      26.909 -15.334  -0.452 -0.36 -0.00    +0.000 C 
DOCKED: ATOM     15  O   UNL     1      27.248 -16.137   0.463 -0.41 -0.00    +0.000 OA
DOCKED: BRANCH  14  19
DOCKED: ATOM     16  C   UNL     1      26.759 -11.097   0.403 -0.20 +0.00    +0.000 A 
DOCKED: ATOM     17  C   UNL     1      27.726 -11.634  -0.470 -0.10 -0.00    +0.000 A 
DOCKED: ATOM     18  C   UNL     1      27.769 -13.005  -0.738 -0.13 -0.00    +0.000 A 
DOCKED: ATOM     19  C   UNL     1      26.845 -13.881  -0.148 -0.25 -0.00    +0.000 A 
DOCKED: ATOM     20  C   UNL     1      25.884 -13.353   0.733 -0.21 -0.00    +0.000 A 
DOCKED: ATOM     21  C   UNL     1      25.840 -11.983   1.002 -0.30 +0.00    +0.000 A 
DOCKED: BRANCH  16  23
DOCKED: ATOM     22  C   UNL     1      27.727  -9.045   1.535 -0.15 +0.00    +0.000 C 
DOCKED: ATOM     23  N   UNL     1      26.712  -9.674   0.681 -0.23 +0.00    +0.000 N 
DOCKED: ATOM     24  C   UNL     1      25.649  -8.837   0.111 -0.31 +0.00    +0.000 C 
DOCKED: ENDBRANCH  16  23
DOCKED: ENDBRANCH  14  19
DOCKED: ENDBRANCH   1  14
DOCKED: TORSDOF 7
DOCKED: TER
DOCKED: ENDMDL
________________________________________________________________________________


	BEGINNING GENETIC ALGORITHM DOCKING 14 of 100
Run: 14 Seed: 556030613 439409776 [ Run 14 of 100 GA/GALS ]
Beginning LAMARCKIAN GENETIC ALGORITHM (LGA), with a maximum of 2500000 energy evaluations.

Final-Value: -15.256


	FINAL GENETIC ALGORITHM DOCKED STATE
	_______________________________________________


Detailed state:  trans 25.606 -15.575 -0.364 quatxyzw 0.268534 -0.929997 0.061801 0.243260 center 1.174 0.164 -0.352 ntor 7 -8.9043 166.9939 49.8249 49.2928 8.2719 -31.9176 -33.2315
State:	 25.606 -15.575  -0.364   0.277 -0.959  0.064 151.842     -8.90  166.99   49.82   49.29    8.27  -31.92  -33.23

DOCKED: MODEL       14
DOCKED: USER    Run = 14
DOCKED: USER    DPF = ligand_dock.biased.dpf
DOCKED: USER  
DOCKED: USER    Estimated Free Energy of Binding    =  -11.47 kcal/mol  [=(1)+(2)+(3)-(4)]
DOCKED: USER    Estimated Inhibition Constant, Ki   =    3.91 nM (nanomolar)  [Temperature = 298.15 K]
DOCKED: USER    
DOCKED: USER    (1) Final Intermolecular Energy     =  -13.56 kcal/mol
DOCKED: USER        vdW + Hbond + desolv Energy     =  -13.56 kcal/mol
DOCKED: USER        Electrostatic Energy            =   +0.00 kcal/mol
DOCKED: USER    (2) Final Total Internal Energy     =   -1.70 kcal/mol
DOCKED: USER    (3) Torsional Free Energy           =   +2.09 kcal/mol
DOCKED: USER    (4) Unbound System's Energy  [=(2)] =   -1.70 kcal/mol
DOCKED: USER    
DOCKED: USER    
DOCKED: USER    NEWDPF move ligand.pdbqt
DOCKED: USER    NEWDPF about 1.174000 0.164000 -0.352000
DOCKED: USER    NEWDPF tran0 25.606228 -15.574629 -0.363818
DOCKED: USER    NEWDPF quaternion0 0.268534 -0.929997 0.061801 0.243260
DOCKED: USER    NEWDPF axisangle0 0.276850 -0.958798 0.063715 151.841928
DOCKED: USER    NEWDPF quat0 0.276850 -0.958798 0.063715 151.841928
DOCKED: USER    NEWDPF dihe0 -8.90 166.99 49.82 49.29 8.27 -31.92 -33.23 
DOCKED: USER  keepresnum = 1 
DOCKED: USER  
DOCKED: REMARK  Name = 
DOCKED: REMARK  11 active torsions:
DOCKED: REMARK  status: ('A' for Active; 'I' for Inactive)
DOCKED: REMARK    1  A    between atoms: C_1  and  N_2
DOCKED: REMARK    2  A    between atoms: N_2  and  C_3
DOCKED: REMARK    3  A    between atoms: N_2  and  C_22
DOCKED: REMARK    4  A    between atoms: C_6  and  C_9
DOCKED: REMARK    5  A    between atoms: C_9  and  C_10
DOCKED: REMARK    6  A    between atoms: C_10  and  C_11
DOCKED: REMARK    7  A    between atoms: C_10  and  C_20
DOCKED: REMARK    8  A    between atoms: C_12  and  C_13
DOCKED: REMARK    9  A    between atoms: C_12  and  C_19
DOCKED: REMARK   10  A    between atoms: C_14  and  C_15
DOCKED: REMARK   11  A    between atoms: N_16  and  O_17
DOCKED: REMARK                            x       y       z     vdW  Elec       q    Type
DOCKED: REMARK                         _______ _______ _______ _____ _____    ______ ____
DOCKED: USER                              x       y       z     vdW  Elec       q    Type
DOCKED: USER                           _______ _______ _______ _____ _____    ______ ____
DOCKED: ROOT
DOCKED: ATOM      1  C   UNL     1      26.945 -15.878  -1.715 -0.39 -0.00    +0.000 C 
DOCKED: ATOM      2  C   UNL     1      27.804 -16.071  -2.968 -0.28 -0.00    +0.000 C 
DOCKED: ENDROOT
DOCKED: BRANCH   1   3
DOCKED: ATOM      3  C   UNL     1      25.536 -16.379  -1.957 -0.57 -0.00    +0.000 C 
DOCKED: ATOM      4  C   UNL     1      24.893 -17.260  -1.163 -0.68 -0.00    +0.000 C 
DOCKED: ATOM      5  C   UNL     1      25.548 -17.852   0.065 -0.59 -0.00    +0.000 C 
DOCKED: BRANCH   4   6
DOCKED: ATOM      6  C   UNL     1      23.529 -17.691  -1.566 -0.59 -0.00    +0.000 C 
DOCKED: ATOM      7  C   UNL     1      22.608 -18.123  -0.692 -0.83 -0.00    +0.000 C 
DOCKED: BRANCH   7   8
DOCKED: ATOM      8  C   UNL     1      21.250 -18.554  -1.084 -0.77 -0.00    +0.000 C 
DOCKED: ATOM      9  N   UNL     1      21.014 -19.741  -1.854 -0.64 -0.00    +0.000 N 
DOCKED: ATOM     10  O   UNL     1      20.268 -17.861  -0.706 -2.21 +0.00    +0.000 OA
DOCKED: ATOM     11  H   UNL     1      21.763 -20.343  -2.069 -0.51 -0.00    +0.000 HD
DOCKED: BRANCH   9  12
DOCKED: ATOM     12  O   UNL     1      19.765 -20.035  -2.285 -1.64 -0.00    +0.000 OA
DOCKED: ATOM     13  H   UNL     1      19.130 -19.426  -1.877 -0.51 -0.00    +0.000 HD
DOCKED: ENDBRANCH   9  12
DOCKED: ENDBRANCH   7   8
DOCKED: ENDBRANCH   4   6
DOCKED: ENDBRANCH   1   3
DOCKED: BRANCH   1  14
DOCKED: ATOM     14  C   UNL     1      26.929 -14.414  -1.331 -0.28 -0.00    +0.000 C 
DOCKED: ATOM     15  O   UNL     1      26.750 -13.551  -2.236 -0.25 -0.00    +0.000 OA
DOCKED: BRANCH  14  19
DOCKED: ATOM     16  C   UNL     1      27.498 -13.051   2.733 -0.29 -0.00    +0.000 A 
DOCKED: ATOM     17  C   UNL     1      26.679 -12.343   1.832 -0.31 +0.00    +0.000 A 
DOCKED: ATOM     18  C   UNL     1      26.503 -12.789   0.519 -0.27 -0.00    +0.000 A 
DOCKED: ATOM     19  C   UNL     1      27.135 -13.959   0.068 -0.24 -0.00    +0.000 A 
DOCKED: ATOM     20  C   UNL     1      27.962 -14.664   0.960 -0.23 -0.00    +0.000 A 
DOCKED: ATOM     21  C   UNL     1      28.138 -14.219   2.272 -0.26 -0.00    +0.000 A 
DOCKED: BRANCH  16  23
DOCKED: ATOM     22  C   UNL     1      27.687 -11.155   4.407 -0.34 +0.00    +0.000 C 
DOCKED: ATOM     23  N   UNL     1      27.680 -12.590   4.098 -0.35 -0.00    +0.000 N 
DOCKED: ATOM     24  C   UNL     1      27.857 -13.552   5.193 -0.51 -0.00    +0.000 C 
DOCKED: ENDBRANCH  16  23
DOCKED: ENDBRANCH  14  19
DOCKED: ENDBRANCH   1  14
DOCKED: TORSDOF 7
DOCKED: TER
DOCKED: ENDMDL
________________________________________________________________________________


	BEGINNING GENETIC ALGORITHM DOCKING 15 of 100
Run: 15 Seed: 1412673738 1019176305 [ Run 15 of 100 GA/GALS ]
Beginning LAMARCKIAN GENETIC ALGORITHM (LGA), with a maximum of 2500000 energy evaluations.

Final-Value: -14.667


	FINAL GENETIC ALGORITHM DOCKED STATE
	_______________________________________________


Detailed state:  trans 25.769 -16.005 -0.543 quatxyzw -0.361511 0.925203 0.079585 -0.083515 center 1.174 0.164 -0.352 ntor 7 58.9572 165.3604 17.6764 130.1301 -176.4874 -15.9234 -47.8657
State:	 25.769 -16.005  -0.543  -0.363  0.928  0.080 -170.419     58.96  165.36   17.68  130.13 -176.49  -15.92  -47.87

DOCKED: MODEL       15
DOCKED: USER    Run = 15
DOCKED: USER    DPF = ligand_dock.biased.dpf
DOCKED: USER  
DOCKED: USER    Estimated Free Energy of Binding    =  -11.14 kcal/mol  [=(1)+(2)+(3)-(4)]
DOCKED: USER    Estimated Inhibition Constant, Ki   =    6.82 nM (nanomolar)  [Temperature = 298.15 K]
DOCKED: USER    
DOCKED: USER    (1) Final Intermolecular Energy     =  -13.23 kcal/mol
DOCKED: USER        vdW + Hbond + desolv Energy     =  -13.23 kcal/mol
DOCKED: USER        Electrostatic Energy            =   +0.00 kcal/mol
DOCKED: USER    (2) Final Total Internal Energy     =   -1.44 kcal/mol
DOCKED: USER    (3) Torsional Free Energy           =   +2.09 kcal/mol
DOCKED: USER    (4) Unbound System's Energy  [=(2)] =   -1.44 kcal/mol
DOCKED: USER    
DOCKED: USER    
DOCKED: USER    NEWDPF move ligand.pdbqt
DOCKED: USER    NEWDPF about 1.174000 0.164000 -0.352000
DOCKED: USER    NEWDPF tran0 25.768973 -16.004682 -0.543348
DOCKED: USER    NEWDPF quaternion0 -0.361511 0.925203 0.079585 -0.083515
DOCKED: USER    NEWDPF axisangle0 -0.362779 0.928447 0.079864 -170.418688
DOCKED: USER    NEWDPF quat0 -0.362779 0.928447 0.079864 -170.418688
DOCKED: USER    NEWDPF dihe0 58.96 165.36 17.68 130.13 -176.49 -15.92 -47.87 
DOCKED: USER  keepresnum = 1 
DOCKED: USER  
DOCKED: REMARK  Name = 
DOCKED: REMARK  11 active torsions:
DOCKED: REMARK  status: ('A' for Active; 'I' for Inactive)
DOCKED: REMARK    1  A    between atoms: C_1  and  N_2
DOCKED: REMARK    2  A    between atoms: N_2  and  C_3
DOCKED: REMARK    3  A    between atoms: N_2  and  C_22
DOCKED: REMARK    4  A    between atoms: C_6  and  C_9
DOCKED: REMARK    5  A    between atoms: C_9  and  C_10
DOCKED: REMARK    6  A    between atoms: C_10  and  C_11
DOCKED: REMARK    7  A    between atoms: C_10  and  C_20
DOCKED: REMARK    8  A    between atoms: C_12  and  C_13
DOCKED: REMARK    9  A    between atoms: C_12  and  C_19
DOCKED: REMARK   10  A    between atoms: C_14  and  C_15
DOCKED: REMARK   11  A    between atoms: N_16  and  O_17
DOCKED: REMARK                            x       y       z     vdW  Elec       q    Type
DOCKED: REMARK                         _______ _______ _______ _____ _____    ______ ____
DOCKED: USER                              x       y       z     vdW  Elec       q    Type
DOCKED: USER                           _______ _______ _______ _____ _____    ______ ____
DOCKED: ROOT
DOCKED: ATOM      1  C   UNL     1      26.512 -15.857  -2.314 -0.44 -0.00    +0.000 C 
DOCKED: ATOM      2  C   UNL     1      26.840 -15.728  -3.805 -0.32 -0.00    +0.000 C 
DOCKED: ENDROOT
DOCKED: BRANCH   1   3
DOCKED: ATOM      3  C   UNL     1      25.245 -16.664  -2.119 -0.60 -0.00    +0.000 C 
DOCKED: ATOM      4  C   UNL     1      25.041 -17.530  -1.105 -0.69 -0.00    +0.000 C 
DOCKED: ATOM      5  C   UNL     1      26.098 -17.790  -0.054 -0.61 -0.00    +0.000 C 
DOCKED: BRANCH   4   6
DOCKED: ATOM      6  C   UNL     1      23.760 -18.284  -1.082 -0.80 -0.00    +0.000 C 
DOCKED: ATOM      7  C   UNL     1      22.585 -17.722  -0.764 -0.79 -0.00    +0.000 C 
DOCKED: BRANCH   7   8
DOCKED: ATOM      8  C   UNL     1      21.307 -18.463  -0.739 -0.83 -0.00    +0.000 C 
DOCKED: ATOM      9  N   UNL     1      21.222 -19.831  -0.315 -0.67 -0.00    +0.000 N 
DOCKED: ATOM     10  O   UNL     1      20.256 -17.860  -1.082 -2.17 -0.00    +0.000 OA
DOCKED: ATOM     11  H   UNL     1      22.017 -20.282   0.050 -0.55 -0.00    +0.000 HD
DOCKED: BRANCH   9  12
DOCKED: ATOM     12  O   UNL     1      20.051 -20.503  -0.416 -0.89 -0.00    +0.000 OA
DOCKED: ATOM     13  H   UNL     1      19.764 -20.516  -1.342 -0.56 -0.00    +0.000 HD
DOCKED: ENDBRANCH   9  12
DOCKED: ENDBRANCH   7   8
DOCKED: ENDBRANCH   4   6
DOCKED: ENDBRANCH   1   3
DOCKED: BRANCH   1  14
DOCKED: ATOM     14  C   UNL     1      26.363 -14.479  -1.706 -0.33 -0.00    +0.000 C 
DOCKED: ATOM     15  O   UNL     1      25.936 -13.538  -2.432 -0.14 -0.00    +0.000 OA
DOCKED: BRANCH  14  19
DOCKED: ATOM     16  C   UNL     1      27.434 -13.683   2.408 -0.30 -0.00    +0.000 A 
DOCKED: ATOM     17  C   UNL     1      28.042 -14.727   1.682 -0.12 -0.00    +0.000 A 
DOCKED: ATOM     18  C   UNL     1      27.687 -14.979   0.354 -0.25 -0.00    +0.000 A 
DOCKED: ATOM     19  C   UNL     1      26.720 -14.193  -0.292 -0.27 -0.00    +0.000 A 
DOCKED: ATOM     20  C   UNL     1      26.102 -13.157   0.430 -0.26 -0.00    +0.000 A 
DOCKED: ATOM     21  C   UNL     1      26.455 -12.904   1.758 -0.29 -0.00    +0.000 A 
DOCKED: BRANCH  16  23
DOCKED: ATOM     22  C   UNL     1      28.152 -14.520   4.691 -0.60 -0.00    +0.000 C 
DOCKED: ATOM     23  N   UNL     1      27.802 -13.418   3.787 -0.39 -0.00    +0.000 N 
DOCKED: ATOM     24  C   UNL     1      27.833 -12.043   4.300 -0.35 +0.00    +0.000 C 
DOCKED: ENDBRANCH  16  23
DOCKED: ENDBRANCH  14  19
DOCKED: ENDBRANCH   1  14
DOCKED: TORSDOF 7
DOCKED: TER
DOCKED: ENDMDL
________________________________________________________________________________


	BEGINNING GENETIC ALGORITHM DOCKING 16 of 100
Run: 16 Seed: 1112189511 1983855227 [ Run 16 of 100 GA/GALS ]
Beginning LAMARCKIAN GENETIC ALGORITHM (LGA), with a maximum of 2500000 energy evaluations.

Final-Value: -13.245


	FINAL GENETIC ALGORITHM DOCKED STATE
	_______________________________________________


Detailed state:  trans 24.563 -15.142 -2.837 quatxyzw 0.471090 -0.512846 0.708139 0.116629 center 1.174 0.164 -0.352 ntor 7 6.1909 -110.2455 -42.0604 -172.2342 -89.8364 -122.4131 15.2183
State:	 24.563 -15.142  -2.837   0.474 -0.516  0.713 166.605      6.19 -110.25  -42.06 -172.23  -89.84 -122.41   15.22

DOCKED: MODEL       16
DOCKED: USER    Run = 16
DOCKED: USER    DPF = ligand_dock.biased.dpf
DOCKED: USER  
DOCKED: USER    Estimated Free Energy of Binding    =  -10.20 kcal/mol  [=(1)+(2)+(3)-(4)]
DOCKED: USER    Estimated Inhibition Constant, Ki   =   33.53 nM (nanomolar)  [Temperature = 298.15 K]
DOCKED: USER    
DOCKED: USER    (1) Final Intermolecular Energy     =  -12.29 kcal/mol
DOCKED: USER        vdW + Hbond + desolv Energy     =  -12.29 kcal/mol
DOCKED: USER        Electrostatic Energy            =   +0.00 kcal/mol
DOCKED: USER    (2) Final Total Internal Energy     =   -0.96 kcal/mol
DOCKED: USER    (3) Torsional Free Energy           =   +2.09 kcal/mol
DOCKED: USER    (4) Unbound System's Energy  [=(2)] =   -0.96 kcal/mol
DOCKED: USER    
DOCKED: USER    
DOCKED: USER    NEWDPF move ligand.pdbqt
DOCKED: USER    NEWDPF about 1.174000 0.164000 -0.352000
DOCKED: USER    NEWDPF tran0 24.562628 -15.141563 -2.837257
DOCKED: USER    NEWDPF quaternion0 0.471090 -0.512846 0.708139 0.116629
DOCKED: USER    NEWDPF axisangle0 0.474327 -0.516369 0.713005 166.604868
DOCKED: USER    NEWDPF quat0 0.474327 -0.516369 0.713005 166.604868
DOCKED: USER    NEWDPF dihe0 6.19 -110.25 -42.06 -172.23 -89.84 -122.41 15.22 
DOCKED: USER  keepresnum = 1 
DOCKED: USER  
DOCKED: REMARK  Name = 
DOCKED: REMARK  11 active torsions:
DOCKED: REMARK  status: ('A' for Active; 'I' for Inactive)
DOCKED: REMARK    1  A    between atoms: C_1  and  N_2
DOCKED: REMARK    2  A    between atoms: N_2  and  C_3
DOCKED: REMARK    3  A    between atoms: N_2  and  C_22
DOCKED: REMARK    4  A    between atoms: C_6  and  C_9
DOCKED: REMARK    5  A    between atoms: C_9  and  C_10
DOCKED: REMARK    6  A    between atoms: C_10  and  C_11
DOCKED: REMARK    7  A    between atoms: C_10  and  C_20
DOCKED: REMARK    8  A    between atoms: C_12  and  C_13
DOCKED: REMARK    9  A    between atoms: C_12  and  C_19
DOCKED: REMARK   10  A    between atoms: C_14  and  C_15
DOCKED: REMARK   11  A    between atoms: N_16  and  O_17
DOCKED: REMARK                            x       y       z     vdW  Elec       q    Type
DOCKED: REMARK                         _______ _______ _______ _____ _____    ______ ____
DOCKED: USER                              x       y       z     vdW  Elec       q    Type
DOCKED: USER                           _______ _______ _______ _____ _____    ______ ____
DOCKED: ROOT
DOCKED: ATOM      1  C   UNL     1      26.313 -15.851  -2.461 -0.47 -0.00    +0.000 C 
DOCKED: ATOM      2  C   UNL     1      27.587 -16.662  -2.203 -0.32 -0.00    +0.000 C 
DOCKED: ENDROOT
DOCKED: BRANCH   1   3
DOCKED: ATOM      3  C   UNL     1      25.098 -16.599  -1.953 -0.61 -0.00    +0.000 C 
DOCKED: ATOM      4  C   UNL     1      25.077 -17.346  -0.830 -0.67 -0.00    +0.000 C 
DOCKED: ATOM      5  C   UNL     1      26.306 -17.520   0.035 -0.55 -0.00    +0.000 C 
DOCKED: BRANCH   4   6
DOCKED: ATOM      6  C   UNL     1      23.817 -18.060  -0.494 -0.78 -0.00    +0.000 C 
DOCKED: ATOM      7  C   UNL     1      22.637 -17.768  -1.059 -0.72 -0.00    +0.000 C 
DOCKED: BRANCH   7   8
DOCKED: ATOM      8  C   UNL     1      21.380 -18.472  -0.732 -0.85 -0.00    +0.000 C 
DOCKED: ATOM      9  N   UNL     1      21.363 -19.802  -0.197 -0.64 -0.00    +0.000 N 
DOCKED: ATOM     10  O   UNL     1      20.288 -17.867  -0.909 -2.20 -0.00    +0.000 OA
DOCKED: ATOM     11  H   UNL     1      22.209 -20.247   0.041 -0.55 -0.00    +0.000 HD
DOCKED: BRANCH   9  12
DOCKED: ATOM     12  O   UNL     1      20.187 -20.449  -0.018 -0.83 -0.00    +0.000 OA
DOCKED: ATOM     13  H   UNL     1      19.465 -19.918  -0.389 -0.06 -0.00    +0.000 HD
DOCKED: ENDBRANCH   9  12
DOCKED: ENDBRANCH   7   8
DOCKED: ENDBRANCH   4   6
DOCKED: ENDBRANCH   1   3
DOCKED: BRANCH   1  14
DOCKED: ATOM     14  C   UNL     1      26.183 -15.571  -3.943 -0.54 -0.00    +0.000 C 
DOCKED: ATOM     15  O   UNL     1      25.499 -16.360  -4.653 -0.61 -0.00    +0.000 OA
DOCKED: BRANCH  14  19
DOCKED: ATOM     16  C   UNL     1      28.143 -12.225  -5.858 -0.15 -0.00    +0.000 A 
DOCKED: ATOM     17  C   UNL     1      28.516 -13.553  -6.144 -0.26 -0.00    +0.000 A 
DOCKED: ATOM     18  C   UNL     1      27.879 -14.628  -5.518 -0.36 -0.00    +0.000 A 
DOCKED: ATOM     19  C   UNL     1      26.847 -14.410  -4.592 -0.39 -0.00    +0.000 A 
DOCKED: ATOM     20  C   UNL     1      26.477 -13.087  -4.294 -0.30 -0.00    +0.000 A 
DOCKED: ATOM     21  C   UNL     1      27.113 -12.012  -4.919 -0.19 -0.00    +0.000 A 
DOCKED: BRANCH  16  23
DOCKED: ATOM     22  C   UNL     1      28.974 -11.087  -7.966 -0.12 -0.00    +0.000 C 
DOCKED: ATOM     23  N   UNL     1      28.802 -11.107  -6.508 -0.08 -0.00    +0.000 N 
DOCKED: ATOM     24  C   UNL     1      29.306  -9.976  -5.720 -0.03 -0.00    +0.000 C 
DOCKED: ENDBRANCH  16  23
DOCKED: ENDBRANCH  14  19
DOCKED: ENDBRANCH   1  14
DOCKED: TORSDOF 7
DOCKED: TER
DOCKED: ENDMDL
________________________________________________________________________________


	BEGINNING GENETIC ALGORITHM DOCKING 17 of 100
Run: 17 Seed: 257391250 1790063869 [ Run 17 of 100 GA/GALS ]
Beginning LAMARCKIAN GENETIC ALGORITHM (LGA), with a maximum of 2500000 energy evaluations.

Final-Value: -14.698


	FINAL GENETIC ALGORITHM DOCKED STATE
	_______________________________________________


Detailed state:  trans 26.735 -17.723 -0.629 quatxyzw -0.020611 0.874403 0.481080 -0.059634 center 1.174 0.164 -0.352 ntor 7 18.4156 172.3142 169.0583 -68.2543 -179.2489 25.5867 158.4363
State:	 26.735 -17.723  -0.629  -0.021  0.876  0.482 -173.162     18.42  172.31  169.06  -68.25 -179.25   25.59  158.44

DOCKED: MODEL       17
DOCKED: USER    Run = 17
DOCKED: USER    DPF = ligand_dock.biased.dpf
DOCKED: USER  
DOCKED: USER    Estimated Free Energy of Binding    =  -11.14 kcal/mol  [=(1)+(2)+(3)-(4)]
DOCKED: USER    Estimated Inhibition Constant, Ki   =    6.78 nM (nanomolar)  [Temperature = 298.15 K]
DOCKED: USER    
DOCKED: USER    (1) Final Intermolecular Energy     =  -13.23 kcal/mol
DOCKED: USER        vdW + Hbond + desolv Energy     =  -13.23 kcal/mol
DOCKED: USER        Electrostatic Energy            =   +0.00 kcal/mol
DOCKED: USER    (2) Final Total Internal Energy     =   -1.47 kcal/mol
DOCKED: USER    (3) Torsional Free Energy           =   +2.09 kcal/mol
DOCKED: USER    (4) Unbound System's Energy  [=(2)] =   -1.47 kcal/mol
DOCKED: USER    
DOCKED: USER    
DOCKED: USER    NEWDPF move ligand.pdbqt
DOCKED: USER    NEWDPF about 1.174000 0.164000 -0.352000
DOCKED: USER    NEWDPF tran0 26.734854 -17.723053 -0.629427
DOCKED: USER    NEWDPF quaternion0 -0.020611 0.874403 0.481080 -0.059634
DOCKED: USER    NEWDPF axisangle0 -0.020648 0.875962 0.481938 -173.162362
DOCKED: USER    NEWDPF quat0 -0.020648 0.875962 0.481938 -173.162362
DOCKED: USER    NEWDPF dihe0 18.42 172.31 169.06 -68.25 -179.25 25.59 158.44 
DOCKED: USER  keepresnum = 1 
DOCKED: USER  
DOCKED: REMARK  Name = 
DOCKED: REMARK  11 active torsions:
DOCKED: REMARK  status: ('A' for Active; 'I' for Inactive)
DOCKED: REMARK    1  A    between atoms: C_1  and  N_2
DOCKED: REMARK    2  A    between atoms: N_2  and  C_3
DOCKED: REMARK    3  A    between atoms: N_2  and  C_22
DOCKED: REMARK    4  A    between atoms: C_6  and  C_9
DOCKED: REMARK    5  A    between atoms: C_9  and  C_10
DOCKED: REMARK    6  A    between atoms: C_10  and  C_11
DOCKED: REMARK    7  A    between atoms: C_10  and  C_20
DOCKED: REMARK    8  A    between atoms: C_12  and  C_13
DOCKED: REMARK    9  A    between atoms: C_12  and  C_19
DOCKED: REMARK   10  A    between atoms: C_14  and  C_15
DOCKED: REMARK   11  A    between atoms: N_16  and  O_17
DOCKED: REMARK                            x       y       z     vdW  Elec       q    Type
DOCKED: REMARK                         _______ _______ _______ _____ _____    ______ ____
DOCKED: USER                              x       y       z     vdW  Elec       q    Type
DOCKED: USER                           _______ _______ _______ _____ _____    ______ ____
DOCKED: ROOT
DOCKED: ATOM      1  C   UNL     1      27.199 -16.485  -2.030 -0.38 -0.00    +0.000 C 
DOCKED: ATOM      2  C   UNL     1      27.356 -15.350  -3.047 -0.34 -0.00    +0.000 C 
DOCKED: ENDROOT
DOCKED: BRANCH   1   3
DOCKED: ATOM      3  C   UNL     1      25.736 -16.701  -1.701 -0.57 -0.00    +0.000 C 
DOCKED: ATOM      4  C   UNL     1      25.283 -17.565  -0.769 -0.68 -0.00    +0.000 C 
DOCKED: ATOM      5  C   UNL     1      26.225 -18.429   0.042 -0.62 -0.00    +0.000 C 
DOCKED: BRANCH   4   6
DOCKED: ATOM      6  C   UNL     1      23.813 -17.698  -0.601 -0.76 -0.00    +0.000 C 
DOCKED: ATOM      7  C   UNL     1      23.070 -18.562  -1.307 -0.78 -0.00    +0.000 C 
DOCKED: BRANCH   7   8
DOCKED: ATOM      8  C   UNL     1      21.607 -18.701  -1.147 -0.75 -0.00    +0.000 C 
DOCKED: ATOM      9  N   UNL     1      20.858 -19.732  -1.805 -0.73 -0.00    +0.000 N 
DOCKED: ATOM     10  O   UNL     1      21.007 -17.896  -0.386 -1.97 -0.00    +0.000 OA
DOCKED: ATOM     11  H   UNL     1      21.328 -20.427  -2.321 -0.52 -0.00    +0.000 HD
DOCKED: BRANCH   9  12
DOCKED: ATOM     12  O   UNL     1      19.507 -19.752  -1.719 -1.63 -0.00    +0.000 OA
DOCKED: ATOM     13  H   UNL     1      19.187 -18.878  -1.444 -0.51 -0.00    +0.000 HD
DOCKED: ENDBRANCH   9  12
DOCKED: ENDBRANCH   7   8
DOCKED: ENDBRANCH   4   6
DOCKED: ENDBRANCH   1   3
DOCKED: BRANCH   1  14
DOCKED: ATOM     14  C   UNL     1      27.980 -16.155  -0.777 -0.34 -0.00    +0.000 C 
DOCKED: ATOM     15  O   UNL     1      28.863 -16.967  -0.380 -0.32 -0.00    +0.000 OA
DOCKED: BRANCH  14  19
DOCKED: ATOM     16  C   UNL     1      27.209 -12.560   1.501 -0.25 -0.00    +0.000 A 
DOCKED: ATOM     17  C   UNL     1      26.223 -13.124   0.668 -0.29 -0.00    +0.000 A 
DOCKED: ATOM     18  C   UNL     1      26.482 -14.284  -0.067 -0.27 -0.00    +0.000 A 
DOCKED: ATOM     19  C   UNL     1      27.731 -14.920   0.012 -0.24 -0.00    +0.000 A 
DOCKED: ATOM     20  C   UNL     1      28.723 -14.357   0.834 -0.18 -0.00    +0.000 A 
DOCKED: ATOM     21  C   UNL     1      28.466 -13.197   1.569 -0.16 -0.00    +0.000 A 
DOCKED: BRANCH  16  23
DOCKED: ATOM     22  C   UNL     1      25.965 -10.369   1.789 -0.36 +0.00    +0.000 C 
DOCKED: ATOM     23  N   UNL     1      26.942 -11.357   2.267 -0.30 +0.00    +0.000 N 
DOCKED: ATOM     24  C   UNL     1      27.641 -11.106   3.533 -0.30 +0.00    +0.000 C 
DOCKED: ENDBRANCH  16  23
DOCKED: ENDBRANCH  14  19
DOCKED: ENDBRANCH   1  14
DOCKED: TORSDOF 7
DOCKED: TER
DOCKED: ENDMDL
________________________________________________________________________________


	BEGINNING GENETIC ALGORITHM DOCKING 18 of 100
Run: 18 Seed: 1477281397 1123943950 [ Run 18 of 100 GA/GALS ]
Beginning LAMARCKIAN GENETIC ALGORITHM (LGA), with a maximum of 2500000 energy evaluations.

Final-Value: -14.464


	FINAL GENETIC ALGORITHM DOCKED STATE
	_______________________________________________


Detailed state:  trans 26.181 -16.022 -0.809 quatxyzw 0.306097 -0.934490 -0.165784 -0.074487 center 1.174 0.164 -0.352 ntor 7 0.7045 -120.0255 -35.6824 -164.4053 -148.0653 -13.9597 -68.0358
State:	 26.181 -16.022  -0.809   0.307 -0.937 -0.166 -171.457      0.70 -120.03  -35.68 -164.41 -148.07  -13.96  -68.04

DOCKED: MODEL       18
DOCKED: USER    Run = 18
DOCKED: USER    DPF = ligand_dock.biased.dpf
DOCKED: USER  
DOCKED: USER    Estimated Free Energy of Binding    =  -10.45 kcal/mol  [=(1)+(2)+(3)-(4)]
DOCKED: USER    Estimated Inhibition Constant, Ki   =   21.77 nM (nanomolar)  [Temperature = 298.15 K]
DOCKED: USER    
DOCKED: USER    (1) Final Intermolecular Energy     =  -12.54 kcal/mol
DOCKED: USER        vdW + Hbond + desolv Energy     =  -12.54 kcal/mol
DOCKED: USER        Electrostatic Energy            =   +0.00 kcal/mol
DOCKED: USER    (2) Final Total Internal Energy     =   -1.92 kcal/mol
DOCKED: USER    (3) Torsional Free Energy           =   +2.09 kcal/mol
DOCKED: USER    (4) Unbound System's Energy  [=(2)] =   -1.92 kcal/mol
DOCKED: USER    
DOCKED: USER    
DOCKED: USER    NEWDPF move ligand.pdbqt
DOCKED: USER    NEWDPF about 1.174000 0.164000 -0.352000
DOCKED: USER    NEWDPF tran0 26.181460 -16.021936 -0.808566
DOCKED: USER    NEWDPF quaternion0 0.306097 -0.934490 -0.165784 -0.074487
DOCKED: USER    NEWDPF axisangle0 0.306950 -0.937093 -0.166246 -171.456528
DOCKED: USER    NEWDPF quat0 0.306950 -0.937093 -0.166246 -171.456528
DOCKED: USER    NEWDPF dihe0 0.70 -120.03 -35.68 -164.41 -148.07 -13.96 -68.04 
DOCKED: USER  keepresnum = 1 
DOCKED: USER  
DOCKED: REMARK  Name = 
DOCKED: REMARK  11 active torsions:
DOCKED: REMARK  status: ('A' for Active; 'I' for Inactive)
DOCKED: REMARK    1  A    between atoms: C_1  and  N_2
DOCKED: REMARK    2  A    between atoms: N_2  and  C_3
DOCKED: REMARK    3  A    between atoms: N_2  and  C_22
DOCKED: REMARK    4  A    between atoms: C_6  and  C_9
DOCKED: REMARK    5  A    between atoms: C_9  and  C_10
DOCKED: REMARK    6  A    between atoms: C_10  and  C_11
DOCKED: REMARK    7  A    between atoms: C_10  and  C_20
DOCKED: REMARK    8  A    between atoms: C_12  and  C_13
DOCKED: REMARK    9  A    between atoms: C_12  and  C_19
DOCKED: REMARK   10  A    between atoms: C_14  and  C_15
DOCKED: REMARK   11  A    between atoms: N_16  and  O_17
DOCKED: REMARK                            x       y       z     vdW  Elec       q    Type
DOCKED: REMARK                         _______ _______ _______ _____ _____    ______ ____
DOCKED: USER                              x       y       z     vdW  Elec       q    Type
DOCKED: USER                           _______ _______ _______ _____ _____    ______ ____
DOCKED: ROOT
DOCKED: ATOM      1  C   UNL     1      26.254 -15.804  -2.721 -0.48 -0.00    +0.000 C 
DOCKED: ATOM      2  C   UNL     1      26.037 -15.598  -4.223 -0.57 -0.00    +0.000 C 
DOCKED: ENDROOT
DOCKED: BRANCH   1   3
DOCKED: ATOM      3  C   UNL     1      25.080 -16.546  -2.114 -0.59 -0.00    +0.000 C 
DOCKED: ATOM      4  C   UNL     1      25.180 -17.435  -1.104 -0.68 -0.00    +0.000 C 
DOCKED: ATOM      5  C   UNL     1      26.513 -17.789  -0.483 -0.59 -0.00    +0.000 C 
DOCKED: BRANCH   4   6
DOCKED: ATOM      6  C   UNL     1      23.939 -18.117  -0.654 -0.80 -0.00    +0.000 C 
DOCKED: ATOM      7  C   UNL     1      22.718 -17.782  -1.095 -0.72 -0.00    +0.000 C 
DOCKED: BRANCH   7   8
DOCKED: ATOM      8  C   UNL     1      21.478 -18.454  -0.654 -0.84 -0.00    +0.000 C 
DOCKED: ATOM      9  N   UNL     1      21.488 -19.738  -0.015 -0.58 -0.00    +0.000 N 
DOCKED: ATOM     10  O   UNL     1      20.379 -17.863  -0.827 -2.23 -0.00    +0.000 OA
DOCKED: ATOM     11  H   UNL     1      22.345 -20.164   0.218 -0.53 -0.00    +0.000 HD
DOCKED: BRANCH   9  12
DOCKED: ATOM     12  O   UNL     1      20.323 -20.365   0.271 -0.80 -0.00    +0.000 OA
DOCKED: ATOM     13  H   UNL     1      19.579 -19.820  -0.031 -0.02 -0.00    +0.000 HD
DOCKED: ENDBRANCH   9  12
DOCKED: ENDBRANCH   7   8
DOCKED: ENDBRANCH   4   6
DOCKED: ENDBRANCH   1   3
DOCKED: BRANCH   1  14
DOCKED: ATOM     14  C   UNL     1      26.439 -14.462  -2.046 -0.33 -0.00    +0.000 C 
DOCKED: ATOM     15  O   UNL     1      26.200 -13.412  -2.706 -0.26 -0.00    +0.000 OA
DOCKED: BRANCH  14  19
DOCKED: ATOM     16  C   UNL     1      27.851 -14.128   2.028 -0.27 -0.00    +0.000 A 
DOCKED: ATOM     17  C   UNL     1      28.580 -14.842   1.057 -0.14 -0.00    +0.000 A 
DOCKED: ATOM     18  C   UNL     1      28.115 -14.948  -0.256 -0.21 -0.00    +0.000 A 
DOCKED: ATOM     19  C   UNL     1      26.910 -14.338  -0.642 -0.25 -0.00    +0.000 A 
DOCKED: ATOM     20  C   UNL     1      26.173 -13.633   0.324 -0.25 -0.00    +0.000 A 
DOCKED: ATOM     21  C   UNL     1      26.637 -13.527   1.638 -0.15 -0.00    +0.000 A 
DOCKED: BRANCH  16  23
DOCKED: ATOM     22  C   UNL     1      29.763 -13.818   3.665 -0.28 -0.00    +0.000 C 
DOCKED: ATOM     23  N   UNL     1      28.334 -14.015   3.392 -0.36 -0.00    +0.000 N 
DOCKED: ATOM     24  C   UNL     1      27.401 -14.095   4.523 -0.61 -0.00    +0.000 C 
DOCKED: ENDBRANCH  16  23
DOCKED: ENDBRANCH  14  19
DOCKED: ENDBRANCH   1  14
DOCKED: TORSDOF 7
DOCKED: TER
DOCKED: ENDMDL
________________________________________________________________________________


	BEGINNING GENETIC ALGORITHM DOCKING 19 of 100
Run: 19 Seed: 442478544 1154848257 [ Run 19 of 100 GA/GALS ]
Beginning LAMARCKIAN GENETIC ALGORITHM (LGA), with a maximum of 2500000 energy evaluations.

Final-Value: -14.824


	FINAL GENETIC ALGORITHM DOCKED STATE
	_______________________________________________


Detailed state:  trans 26.124 -15.806 -0.943 quatxyzw 0.330494 -0.933509 -0.092630 0.103700 center 1.174 0.164 -0.352 ntor 7 7.9789 143.4652 0.4762 119.0013 -154.5988 -24.0139 -54.9941
State:	 26.124 -15.806  -0.943   0.332 -0.939 -0.093 168.095      7.98  143.47    0.48  119.00 -154.60  -24.01  -54.99

DOCKED: MODEL       19
DOCKED: USER    Run = 19
DOCKED: USER    DPF = ligand_dock.biased.dpf
DOCKED: USER  
DOCKED: USER    Estimated Free Energy of Binding    =  -10.88 kcal/mol  [=(1)+(2)+(3)-(4)]
DOCKED: USER    Estimated Inhibition Constant, Ki   =   10.64 nM (nanomolar)  [Temperature = 298.15 K]
DOCKED: USER    
DOCKED: USER    (1) Final Intermolecular Energy     =  -12.97 kcal/mol
DOCKED: USER        vdW + Hbond + desolv Energy     =  -12.97 kcal/mol
DOCKED: USER        Electrostatic Energy            =   +0.00 kcal/mol
DOCKED: USER    (2) Final Total Internal Energy     =   -1.86 kcal/mol
DOCKED: USER    (3) Torsional Free Energy           =   +2.09 kcal/mol
DOCKED: USER    (4) Unbound System's Energy  [=(2)] =   -1.86 kcal/mol
DOCKED: USER    
DOCKED: USER    
DOCKED: USER    NEWDPF move ligand.pdbqt
DOCKED: USER    NEWDPF about 1.174000 0.164000 -0.352000
DOCKED: USER    NEWDPF tran0 26.124098 -15.806152 -0.943463
DOCKED: USER    NEWDPF quaternion0 0.330494 -0.933509 -0.092630 0.103700
DOCKED: USER    NEWDPF axisangle0 0.332285 -0.938570 -0.093132 168.095397
DOCKED: USER    NEWDPF quat0 0.332285 -0.938570 -0.093132 168.095397
DOCKED: USER    NEWDPF dihe0 7.98 143.47 0.48 119.00 -154.60 -24.01 -54.99 
DOCKED: USER  keepresnum = 1 
DOCKED: USER  
DOCKED: REMARK  Name = 
DOCKED: REMARK  11 active torsions:
DOCKED: REMARK  status: ('A' for Active; 'I' for Inactive)
DOCKED: REMARK    1  A    between atoms: C_1  and  N_2
DOCKED: REMARK    2  A    between atoms: N_2  and  C_3
DOCKED: REMARK    3  A    between atoms: N_2  and  C_22
DOCKED: REMARK    4  A    between atoms: C_6  and  C_9
DOCKED: REMARK    5  A    between atoms: C_9  and  C_10
DOCKED: REMARK    6  A    between atoms: C_10  and  C_11
DOCKED: REMARK    7  A    between atoms: C_10  and  C_20
DOCKED: REMARK    8  A    between atoms: C_12  and  C_13
DOCKED: REMARK    9  A    between atoms: C_12  and  C_19
DOCKED: REMARK   10  A    between atoms: C_14  and  C_15
DOCKED: REMARK   11  A    between atoms: N_16  and  O_17
DOCKED: REMARK                            x       y       z     vdW  Elec       q    Type
DOCKED: REMARK                         _______ _______ _______ _____ _____    ______ ____
DOCKED: USER                              x       y       z     vdW  Elec       q    Type
DOCKED: USER                           _______ _______ _______ _____ _____    ______ ____
DOCKED: ROOT
DOCKED: ATOM      1  C   UNL     1      26.916 -15.633  -2.690 -0.39 -0.00    +0.000 C 
DOCKED: ATOM      2  C   UNL     1      27.285 -15.463  -4.168 -0.40 -0.00    +0.000 C 
DOCKED: ENDROOT
DOCKED: BRANCH   1   3
DOCKED: ATOM      3  C   UNL     1      25.595 -16.363  -2.556 -0.55 -0.00    +0.000 C 
DOCKED: ATOM      4  C   UNL     1      25.364 -17.367  -1.684 -0.61 -0.00    +0.000 C 
DOCKED: ATOM      5  C   UNL     1      26.440 -17.874  -0.750 -0.58 -0.00    +0.000 C 
DOCKED: BRANCH   4   6
DOCKED: ATOM      6  C   UNL     1      24.028 -18.016  -1.711 -0.68 -0.00    +0.000 C 
DOCKED: ATOM      7  C   UNL     1      22.964 -17.530  -1.054 -0.72 -0.00    +0.000 C 
DOCKED: BRANCH   7   8
DOCKED: ATOM      8  C   UNL     1      21.632 -18.168  -1.075 -0.68 -0.00    +0.000 C 
DOCKED: ATOM      9  N   UNL     1      21.442 -19.536  -1.463 -0.67 -0.00    +0.000 N 
DOCKED: ATOM     10  O   UNL     1      20.634 -17.487  -0.717 -2.09 +0.00    +0.000 OA
DOCKED: ATOM     11  H   UNL     1      22.223 -20.106  -1.647 -0.42 -0.00    +0.000 HD
DOCKED: BRANCH   9  12
DOCKED: ATOM     12  O   UNL     1      20.193 -20.044  -1.575 -1.67 -0.00    +0.000 OA
DOCKED: ATOM     13  H   UNL     1      19.543 -19.330  -1.486 -0.21 -0.00    +0.000 HD
DOCKED: ENDBRANCH   9  12
DOCKED: ENDBRANCH   7   8
DOCKED: ENDBRANCH   4   6
DOCKED: ENDBRANCH   1   3
DOCKED: BRANCH   1  14
DOCKED: ATOM     14  C   UNL     1      26.841 -14.275  -2.027 -0.28 -0.00    +0.000 C 
DOCKED: ATOM     15  O   UNL     1      26.625 -13.259  -2.745 -0.26 -0.00    +0.000 OA
DOCKED: BRANCH  14  19
DOCKED: ATOM     16  C   UNL     1      27.436 -13.779   2.228 -0.29 -0.00    +0.000 A 
DOCKED: ATOM     17  C   UNL     1      28.330 -14.538   1.448 -0.19 -0.00    +0.000 A 
DOCKED: ATOM     18  C   UNL     1      28.129 -14.696   0.074 -0.21 -0.00    +0.000 A 
DOCKED: ATOM     19  C   UNL     1      27.031 -14.096  -0.564 -0.24 -0.00    +0.000 A 
DOCKED: ATOM     20  C   UNL     1      26.129 -13.346   0.211 -0.24 -0.00    +0.000 A 
DOCKED: ATOM     21  C   UNL     1      26.329 -13.188   1.585 -0.20 -0.00    +0.000 A 
DOCKED: BRANCH  16  23
DOCKED: ATOM     22  C   UNL     1      27.745 -14.782   4.537 -0.62 -0.00    +0.000 C 
DOCKED: ATOM     23  N   UNL     1      27.645 -13.613   3.655 -0.42 -0.00    +0.000 N 
DOCKED: ATOM     24  C   UNL     1      27.761 -12.272   4.241 -0.36 +0.00    +0.000 C 
DOCKED: ENDBRANCH  16  23
DOCKED: ENDBRANCH  14  19
DOCKED: ENDBRANCH   1  14
DOCKED: TORSDOF 7
DOCKED: TER
DOCKED: ENDMDL
________________________________________________________________________________


	BEGINNING GENETIC ALGORITHM DOCKING 20 of 100
Run: 20 Seed: 2042189788 1223197593 [ Run 20 of 100 GA/GALS ]
Beginning LAMARCKIAN GENETIC ALGORITHM (LGA), with a maximum of 2500000 energy evaluations.

Final-Value: -13.796


	FINAL GENETIC ALGORITHM DOCKED STATE
	_______________________________________________


Detailed state:  trans 25.719 -16.129 0.788 quatxyzw -0.370997 0.897107 -0.112180 -0.212074 center 1.174 0.164 -0.352 ntor 7 1.0273 -179.7827 53.3426 -89.9953 172.1861 148.5833 -28.8096
State:	 25.719 -16.129   0.788  -0.380  0.918 -0.115 -155.512      1.03 -179.78   53.34  -90.00  172.19  148.58  -28.81

DOCKED: MODEL       20
DOCKED: USER    Run = 20
DOCKED: USER    DPF = ligand_dock.biased.dpf
DOCKED: USER  
DOCKED: USER    Estimated Free Energy of Binding    =  -10.36 kcal/mol  [=(1)+(2)+(3)-(4)]
DOCKED: USER    Estimated Inhibition Constant, Ki   =   25.67 nM (nanomolar)  [Temperature = 298.15 K]
DOCKED: USER    
DOCKED: USER    (1) Final Intermolecular Energy     =  -12.44 kcal/mol
DOCKED: USER        vdW + Hbond + desolv Energy     =  -12.44 kcal/mol
DOCKED: USER        Electrostatic Energy            =   +0.00 kcal/mol
DOCKED: USER    (2) Final Total Internal Energy     =   -1.35 kcal/mol
DOCKED: USER    (3) Torsional Free Energy           =   +2.09 kcal/mol
DOCKED: USER    (4) Unbound System's Energy  [=(2)] =   -1.35 kcal/mol
DOCKED: USER    
DOCKED: USER    
DOCKED: USER    NEWDPF move ligand.pdbqt
DOCKED: USER    NEWDPF about 1.174000 0.164000 -0.352000
DOCKED: USER    NEWDPF tran0 25.718508 -16.129421 0.787659
DOCKED: USER    NEWDPF quaternion0 -0.370997 0.897107 -0.112180 -0.212074
DOCKED: USER    NEWDPF axisangle0 -0.379632 0.917988 -0.114791 -155.512156
DOCKED: USER    NEWDPF quat0 -0.379632 0.917988 -0.114791 -155.512156
DOCKED: USER    NEWDPF dihe0 1.03 -179.78 53.34 -90.00 172.19 148.58 -28.81 
DOCKED: USER  keepresnum = 1 
DOCKED: USER  
DOCKED: REMARK  Name = 
DOCKED: REMARK  11 active torsions:
DOCKED: REMARK  status: ('A' for Active; 'I' for Inactive)
DOCKED: REMARK    1  A    between atoms: C_1  and  N_2
DOCKED: REMARK    2  A    between atoms: N_2  and  C_3
DOCKED: REMARK    3  A    between atoms: N_2  and  C_22
DOCKED: REMARK    4  A    between atoms: C_6  and  C_9
DOCKED: REMARK    5  A    between atoms: C_9  and  C_10
DOCKED: REMARK    6  A    between atoms: C_10  and  C_11
DOCKED: REMARK    7  A    between atoms: C_10  and  C_20
DOCKED: REMARK    8  A    between atoms: C_12  and  C_13
DOCKED: REMARK    9  A    between atoms: C_12  and  C_19
DOCKED: REMARK   10  A    between atoms: C_14  and  C_15
DOCKED: REMARK   11  A    between atoms: N_16  and  O_17
DOCKED: REMARK                            x       y       z     vdW  Elec       q    Type
DOCKED: REMARK                         _______ _______ _______ _____ _____    ______ ____
DOCKED: USER                              x       y       z     vdW  Elec       q    Type
DOCKED: USER                           _______ _______ _______ _____ _____    ______ ____
DOCKED: ROOT
DOCKED: ATOM      1  C   UNL     1      27.073 -16.412  -0.552 -0.44 -0.00    +0.000 C 
DOCKED: ATOM      2  C   UNL     1      27.937 -16.655  -1.794 -0.35 -0.00    +0.000 C 
DOCKED: ENDROOT
DOCKED: BRANCH   1   3
DOCKED: ATOM      3  C   UNL     1      25.775 -17.186  -0.652 -0.61 -0.00    +0.000 C 
DOCKED: ATOM      4  C   UNL     1      24.936 -17.137  -1.708 -0.65 -0.00    +0.000 C 
DOCKED: ATOM      5  C   UNL     1      25.221 -16.266  -2.911 -0.42 -0.00    +0.000 C 
DOCKED: BRANCH   4   6
DOCKED: ATOM      6  C   UNL     1      23.675 -17.919  -1.630 -0.66 -0.00    +0.000 C 
DOCKED: ATOM      7  C   UNL     1      22.688 -17.635  -0.768 -0.78 -0.00    +0.000 C 
DOCKED: BRANCH   7   8
DOCKED: ATOM      8  C   UNL     1      21.432 -18.407  -0.684 -0.84 -0.00    +0.000 C 
DOCKED: ATOM      9  N   UNL     1      21.382 -19.736  -0.146 -0.66 -0.00    +0.000 N 
DOCKED: ATOM     10  O   UNL     1      20.365 -17.865  -1.079 -2.19 -0.00    +0.000 OA
DOCKED: ATOM     11  H   UNL     1      22.188 -20.132   0.258 -0.53 -0.00    +0.000 HD
DOCKED: BRANCH   9  12
DOCKED: ATOM     12  O   UNL     1      20.231 -20.447  -0.193 -0.86 -0.00    +0.000 OA
DOCKED: ATOM     13  H   UNL     1      19.544 -19.923  -0.634 -0.08 -0.00    +0.000 HD
DOCKED: ENDBRANCH   9  12
DOCKED: ENDBRANCH   7   8
DOCKED: ENDBRANCH   4   6
DOCKED: ENDBRANCH   1   3
DOCKED: BRANCH   1  14
DOCKED: ATOM     14  C   UNL     1      26.797 -14.931  -0.409 -0.34 -0.00    +0.000 C 
DOCKED: ATOM     15  O   UNL     1      26.372 -14.292  -1.412 -0.32 -0.00    +0.000 OA
DOCKED: BRANCH  14  19
DOCKED: ATOM     16  C   UNL     1      27.494 -12.844   3.315 -0.31 -0.00    +0.000 A 
DOCKED: ATOM     17  C   UNL     1      28.035 -14.123   3.081 -0.35 -0.00    +0.000 A 
DOCKED: ATOM     18  C   UNL     1      27.802 -14.792   1.876 -0.07 -0.00    +0.000 A 
DOCKED: ATOM     19  C   UNL     1      27.027 -14.201   0.866 -0.23 -0.00    +0.000 A 
DOCKED: ATOM     20  C   UNL     1      26.475 -12.929   1.097 -0.31 -0.00    +0.000 A 
DOCKED: ATOM     21  C   UNL     1      26.707 -12.260   2.302 -0.28 +0.00    +0.000 A 
DOCKED: BRANCH  16  23
DOCKED: ATOM     22  C   UNL     1      28.153 -12.886   5.764 -0.47 -0.00    +0.000 C 
DOCKED: ATOM     23  N   UNL     1      27.736 -12.148   4.565 -0.36 +0.00    +0.000 N 
DOCKED: ATOM     24  C   UNL     1      27.571 -10.691   4.653 -0.34 +0.00    +0.000 C 
DOCKED: ENDBRANCH  16  23
DOCKED: ENDBRANCH  14  19
DOCKED: ENDBRANCH   1  14
DOCKED: TORSDOF 7
DOCKED: TER
DOCKED: ENDMDL
________________________________________________________________________________


	BEGINNING GENETIC ALGORITHM DOCKING 21 of 100
Run: 21 Seed: 710832082 1487203293 [ Run 21 of 100 GA/GALS ]
Beginning LAMARCKIAN GENETIC ALGORITHM (LGA), with a maximum of 2500000 energy evaluations.

Final-Value: -13.818


	FINAL GENETIC ALGORITHM DOCKED STATE
	_______________________________________________


Detailed state:  trans 24.759 -15.003 -2.262 quatxyzw 0.440294 -0.639107 0.609905 0.160314 center 1.174 0.164 -0.352 ntor 7 63.2856 -138.3120 -6.6838 156.7239 -164.3106 -107.3511 -23.4690
State:	 24.759 -15.003  -2.262   0.446 -0.647  0.618 161.550     63.29 -138.31   -6.68  156.72 -164.31 -107.35  -23.47

DOCKED: MODEL       21
DOCKED: USER    Run = 21
DOCKED: USER    DPF = ligand_dock.biased.dpf
DOCKED: USER  
DOCKED: USER    Estimated Free Energy of Binding    =  -10.75 kcal/mol  [=(1)+(2)+(3)-(4)]
DOCKED: USER    Estimated Inhibition Constant, Ki   =   13.26 nM (nanomolar)  [Temperature = 298.15 K]
DOCKED: USER    
DOCKED: USER    (1) Final Intermolecular Energy     =  -12.83 kcal/mol
DOCKED: USER        vdW + Hbond + desolv Energy     =  -12.83 kcal/mol
DOCKED: USER        Electrostatic Energy            =   +0.00 kcal/mol
DOCKED: USER    (2) Final Total Internal Energy     =   -0.98 kcal/mol
DOCKED: USER    (3) Torsional Free Energy           =   +2.09 kcal/mol
DOCKED: USER    (4) Unbound System's Energy  [=(2)] =   -0.98 kcal/mol
DOCKED: USER    
DOCKED: USER    
DOCKED: USER    NEWDPF move ligand.pdbqt
DOCKED: USER    NEWDPF about 1.174000 0.164000 -0.352000
DOCKED: USER    NEWDPF tran0 24.758690 -15.002935 -2.261927
DOCKED: USER    NEWDPF quaternion0 0.440294 -0.639107 0.609905 0.160314
DOCKED: USER    NEWDPF axisangle0 0.446063 -0.647481 0.617896 161.549721
DOCKED: USER    NEWDPF quat0 0.446063 -0.647481 0.617896 161.549721
DOCKED: USER    NEWDPF dihe0 63.29 -138.31 -6.68 156.72 -164.31 -107.35 -23.47 
DOCKED: USER  keepresnum = 1 
DOCKED: USER  
DOCKED: REMARK  Name = 
DOCKED: REMARK  11 active torsions:
DOCKED: REMARK  status: ('A' for Active; 'I' for Inactive)
DOCKED: REMARK    1  A    between atoms: C_1  and  N_2
DOCKED: REMARK    2  A    between atoms: N_2  and  C_3
DOCKED: REMARK    3  A    between atoms: N_2  and  C_22
DOCKED: REMARK    4  A    between atoms: C_6  and  C_9
DOCKED: REMARK    5  A    between atoms: C_9  and  C_10
DOCKED: REMARK    6  A    between atoms: C_10  and  C_11
DOCKED: REMARK    7  A    between atoms: C_10  and  C_20
DOCKED: REMARK    8  A    between atoms: C_12  and  C_13
DOCKED: REMARK    9  A    between atoms: C_12  and  C_19
DOCKED: REMARK   10  A    between atoms: C_14  and  C_15
DOCKED: REMARK   11  A    between atoms: N_16  and  O_17
DOCKED: REMARK                            x       y       z     vdW  Elec       q    Type
DOCKED: REMARK                         _______ _______ _______ _____ _____    ______ ____
DOCKED: USER                              x       y       z     vdW  Elec       q    Type
DOCKED: USER                           _______ _______ _______ _____ _____    ______ ____
DOCKED: ROOT
DOCKED: ATOM      1  C   UNL     1      26.463 -15.899  -2.212 -0.45 -0.00    +0.000 C 
DOCKED: ATOM      2  C   UNL     1      27.682 -16.824  -2.284 -0.20 -0.00    +0.000 C 
DOCKED: ENDROOT
DOCKED: BRANCH   1   3
DOCKED: ATOM      3  C   UNL     1      25.209 -16.697  -1.919 -0.61 -0.00    +0.000 C 
DOCKED: ATOM      4  C   UNL     1      25.082 -17.569  -0.896 -0.69 -0.00    +0.000 C 
DOCKED: ATOM      5  C   UNL     1      26.219 -17.843   0.063 -0.60 -0.00    +0.000 C 
DOCKED: BRANCH   4   6
DOCKED: ATOM      6  C   UNL     1      23.802 -18.313  -0.774 -0.81 -0.00    +0.000 C 
DOCKED: ATOM      7  C   UNL     1      22.600 -17.725  -0.871 -0.76 -0.00    +0.000 C 
DOCKED: BRANCH   7   8
DOCKED: ATOM      8  C   UNL     1      21.323 -18.458  -0.751 -0.83 -0.00    +0.000 C 
DOCKED: ATOM      9  N   UNL     1      21.256 -19.813  -0.286 -0.67 -0.00    +0.000 N 
DOCKED: ATOM     10  O   UNL     1      20.255 -17.857  -1.046 -2.17 -0.00    +0.000 OA
DOCKED: ATOM     11  H   UNL     1      22.069 -20.260   0.043 -0.55 -0.00    +0.000 HD
DOCKED: BRANCH   9  12
DOCKED: ATOM     12  O   UNL     1      20.078 -20.480  -0.300 -0.88 -0.00    +0.000 OA
DOCKED: ATOM     13  H   UNL     1      19.770 -20.575  -1.214 -0.53 -0.00    +0.000 HD
DOCKED: ENDBRANCH   9  12
DOCKED: ENDBRANCH   7   8
DOCKED: ENDBRANCH   4   6
DOCKED: ENDBRANCH   1   3
DOCKED: BRANCH   1  14
DOCKED: ATOM     14  C   UNL     1      26.320 -15.146  -3.517 -0.51 -0.00    +0.000 C 
DOCKED: ATOM     15  O   UNL     1      26.253 -15.803  -4.593 -0.80 -0.00    +0.000 OA
DOCKED: BRANCH  14  19
DOCKED: ATOM     16  C   UNL     1      26.220 -10.824  -3.653 -0.11 -0.00    +0.000 A 
DOCKED: ATOM     17  C   UNL     1      27.075 -11.509  -2.767 -0.10 -0.00    +0.000 A 
DOCKED: ATOM     18  C   UNL     1      27.099 -12.906  -2.727 -0.16 -0.00    +0.000 A 
DOCKED: ATOM     19  C   UNL     1      26.273 -13.661  -3.575 -0.33 -0.00    +0.000 A 
DOCKED: ATOM     20  C   UNL     1      25.410 -12.984  -4.454 -0.30 -0.00    +0.000 A 
DOCKED: ATOM     21  C   UNL     1      25.386 -11.588  -4.494 -0.28 -0.00    +0.000 A 
DOCKED: BRANCH  16  23
DOCKED: ATOM     22  C   UNL     1      27.334  -8.592  -3.195 -0.08 -0.00    +0.000 C 
DOCKED: ATOM     23  N   UNL     1      26.197  -9.374  -3.696 -0.16 -0.00    +0.000 N 
DOCKED: ATOM     24  C   UNL     1      25.035  -8.662  -4.245 -0.26 -0.00    +0.000 C 
DOCKED: ENDBRANCH  16  23
DOCKED: ENDBRANCH  14  19
DOCKED: ENDBRANCH   1  14
DOCKED: TORSDOF 7
DOCKED: TER
DOCKED: ENDMDL
________________________________________________________________________________


	BEGINNING GENETIC ALGORITHM DOCKING 22 of 100
Run: 22 Seed: 1821049315 1159422262 [ Run 22 of 100 GA/GALS ]
Beginning LAMARCKIAN GENETIC ALGORITHM (LGA), with a maximum of 2500000 energy evaluations.

Final-Value: -14.737


	FINAL GENETIC ALGORITHM DOCKED STATE
	_______________________________________________


Detailed state:  trans 26.048 -15.631 -0.158 quatxyzw 0.242373 -0.964999 -0.093442 -0.036055 center 1.174 0.164 -0.352 ntor 7 1.4706 160.2546 -105.8274 -74.3952 -145.3589 -42.9421 -71.2913
State:	 26.048 -15.631  -0.158   0.243 -0.966 -0.094 -175.868      1.47  160.25 -105.83  -74.40 -145.36  -42.94  -71.29

DOCKED: MODEL       22
DOCKED: USER    Run = 22
DOCKED: USER    DPF = ligand_dock.biased.dpf
DOCKED: USER  
DOCKED: USER    Estimated Free Energy of Binding    =  -10.87 kcal/mol  [=(1)+(2)+(3)-(4)]
DOCKED: USER    Estimated Inhibition Constant, Ki   =   10.78 nM (nanomolar)  [Temperature = 298.15 K]
DOCKED: USER    
DOCKED: USER    (1) Final Intermolecular Energy     =  -12.96 kcal/mol
DOCKED: USER        vdW + Hbond + desolv Energy     =  -12.96 kcal/mol
DOCKED: USER        Electrostatic Energy            =   +0.00 kcal/mol
DOCKED: USER    (2) Final Total Internal Energy     =   -1.78 kcal/mol
DOCKED: USER    (3) Torsional Free Energy           =   +2.09 kcal/mol
DOCKED: USER    (4) Unbound System's Energy  [=(2)] =   -1.78 kcal/mol
DOCKED: USER    
DOCKED: USER    
DOCKED: USER    NEWDPF move ligand.pdbqt
DOCKED: USER    NEWDPF about 1.174000 0.164000 -0.352000
DOCKED: USER    NEWDPF tran0 26.047686 -15.631342 -0.157611
DOCKED: USER    NEWDPF quaternion0 0.242373 -0.964999 -0.093442 -0.036055
DOCKED: USER    NEWDPF axisangle0 0.242531 -0.965627 -0.093503 -175.867543
DOCKED: USER    NEWDPF quat0 0.242531 -0.965627 -0.093503 -175.867543
DOCKED: USER    NEWDPF dihe0 1.47 160.25 -105.83 -74.40 -145.36 -42.94 -71.29 
DOCKED: USER  keepresnum = 1 
DOCKED: USER  
DOCKED: REMARK  Name = 
DOCKED: REMARK  11 active torsions:
DOCKED: REMARK  status: ('A' for Active; 'I' for Inactive)
DOCKED: REMARK    1  A    between atoms: C_1  and  N_2
DOCKED: REMARK    2  A    between atoms: N_2  and  C_3
DOCKED: REMARK    3  A    between atoms: N_2  and  C_22
DOCKED: REMARK    4  A    between atoms: C_6  and  C_9
DOCKED: REMARK    5  A    between atoms: C_9  and  C_10
DOCKED: REMARK    6  A    between atoms: C_10  and  C_11
DOCKED: REMARK    7  A    between atoms: C_10  and  C_20
DOCKED: REMARK    8  A    between atoms: C_12  and  C_13
DOCKED: REMARK    9  A    between atoms: C_12  and  C_19
DOCKED: REMARK   10  A    between atoms: C_14  and  C_15
DOCKED: REMARK   11  A    between atoms: N_16  and  O_17
DOCKED: REMARK                            x       y       z     vdW  Elec       q    Type
DOCKED: REMARK                         _______ _______ _______ _____ _____    ______ ____
DOCKED: USER                              x       y       z     vdW  Elec       q    Type
DOCKED: USER                           _______ _______ _______ _____ _____    ______ ____
DOCKED: ROOT
DOCKED: ATOM      1  C   UNL     1      26.322 -15.690  -2.063 -0.45 -0.00    +0.000 C 
DOCKED: ATOM      2  C   UNL     1      26.273 -15.665  -3.594 -0.50 -0.00    +0.000 C 
DOCKED: ENDROOT
DOCKED: BRANCH   1   3
DOCKED: ATOM      3  C   UNL     1      25.004 -16.179  -1.500 -0.54 -0.00    +0.000 C 
DOCKED: ATOM      4  C   UNL     1      24.855 -17.313  -0.783 -0.68 -0.00    +0.000 C 
DOCKED: ATOM      5  C   UNL     1      26.023 -18.227  -0.485 -0.64 -0.00    +0.000 C 
DOCKED: BRANCH   4   6
DOCKED: ATOM      6  C   UNL     1      23.484 -17.681  -0.343 -0.74 -0.00    +0.000 C 
DOCKED: ATOM      7  C   UNL     1      22.605 -18.313  -1.135 -0.78 -0.00    +0.000 C 
DOCKED: BRANCH   7   8
DOCKED: ATOM      8  C   UNL     1      21.240 -18.683  -0.706 -0.87 -0.00    +0.000 C 
DOCKED: ATOM      9  N   UNL     1      20.953 -19.924  -0.047 -0.68 -0.00    +0.000 N 
DOCKED: ATOM     10  O   UNL     1      20.304 -17.864  -0.910 -2.20 -0.00    +0.000 OA
DOCKED: ATOM     11  H   UNL     1      21.689 -20.526   0.208 -0.57 -0.00    +0.000 HD
DOCKED: BRANCH   9  12
DOCKED: ATOM     12  O   UNL     1      19.673 -20.269   0.226 -0.82 -0.00    +0.000 OA
DOCKED: ATOM     13  H   UNL     1      19.074 -19.584  -0.109 -0.05 -0.00    +0.000 HD
DOCKED: ENDBRANCH   9  12
DOCKED: ENDBRANCH   7   8
DOCKED: ENDBRANCH   4   6
DOCKED: ENDBRANCH   1   3
DOCKED: BRANCH   1  14
DOCKED: ATOM     14  C   UNL     1      26.639 -14.304  -1.543 -0.30 -0.00    +0.000 C 
DOCKED: ATOM     15  O   UNL     1      26.677 -13.342  -2.361 -0.25 -0.00    +0.000 OA
DOCKED: BRANCH  14  19
DOCKED: ATOM     16  C   UNL     1      27.513 -13.571   2.628 -0.31 -0.00    +0.000 A 
DOCKED: ATOM     17  C   UNL     1      28.272 -14.485   1.871 -0.21 -0.00    +0.000 A 
DOCKED: ATOM     18  C   UNL     1      27.981 -14.718   0.525 -0.23 -0.00    +0.000 A 
DOCKED: ATOM     19  C   UNL     1      26.927 -14.042  -0.109 -0.26 -0.00    +0.000 A 
DOCKED: ATOM     20  C   UNL     1      26.158 -13.137   0.644 -0.28 -0.00    +0.000 A 
DOCKED: ATOM     21  C   UNL     1      26.448 -12.903   1.990 -0.25 -0.00    +0.000 A 
DOCKED: BRANCH  16  23
DOCKED: ATOM     22  C   UNL     1      28.190 -14.433   4.916 -0.59 -0.00    +0.000 C 
DOCKED: ATOM     23  N   UNL     1      27.815 -13.326   4.027 -0.41 -0.00    +0.000 N 
DOCKED: ATOM     24  C   UNL     1      27.754 -11.966   4.577 -0.36 +0.00    +0.000 C 
DOCKED: ENDBRANCH  16  23
DOCKED: ENDBRANCH  14  19
DOCKED: ENDBRANCH   1  14
DOCKED: TORSDOF 7
DOCKED: TER
DOCKED: ENDMDL
________________________________________________________________________________


	BEGINNING GENETIC ALGORITHM DOCKING 23 of 100
Run: 23 Seed: 1620211117 1050071284 [ Run 23 of 100 GA/GALS ]
Beginning LAMARCKIAN GENETIC ALGORITHM (LGA), with a maximum of 2500000 energy evaluations.

Final-Value: -13.927


	FINAL GENETIC ALGORITHM DOCKED STATE
	_______________________________________________


Detailed state:  trans 26.328 -17.250 -0.245 quatxyzw -0.227120 0.844276 0.485336 0.007940 center 1.174 0.164 -0.352 ntor 7 44.6877 -55.4941 2.0028 -180.0000 -97.2164 4.7682 108.3519
State:	 26.328 -17.250  -0.245  -0.227  0.844  0.485 179.090     44.69  -55.49    2.00 -180.00  -97.22    4.77  108.35

DOCKED: MODEL       23
DOCKED: USER    Run = 23
DOCKED: USER    DPF = ligand_dock.biased.dpf
DOCKED: USER  
DOCKED: USER    Estimated Free Energy of Binding    =  -10.53 kcal/mol  [=(1)+(2)+(3)-(4)]
DOCKED: USER    Estimated Inhibition Constant, Ki   =   19.17 nM (nanomolar)  [Temperature = 298.15 K]
DOCKED: USER    
DOCKED: USER    (1) Final Intermolecular Energy     =  -12.62 kcal/mol
DOCKED: USER        vdW + Hbond + desolv Energy     =  -12.62 kcal/mol
DOCKED: USER        Electrostatic Energy            =   +0.00 kcal/mol
DOCKED: USER    (2) Final Total Internal Energy     =   -1.31 kcal/mol
DOCKED: USER    (3) Torsional Free Energy           =   +2.09 kcal/mol
DOCKED: USER    (4) Unbound System's Energy  [=(2)] =   -1.31 kcal/mol
DOCKED: USER    
DOCKED: USER    
DOCKED: USER    NEWDPF move ligand.pdbqt
DOCKED: USER    NEWDPF about 1.174000 0.164000 -0.352000
DOCKED: USER    NEWDPF tran0 26.327697 -17.250349 -0.244779
DOCKED: USER    NEWDPF quaternion0 -0.227120 0.844276 0.485336 0.007940
DOCKED: USER    NEWDPF axisangle0 -0.227127 0.844303 0.485351 179.090109
DOCKED: USER    NEWDPF quat0 -0.227127 0.844303 0.485351 179.090109
DOCKED: USER    NEWDPF dihe0 44.69 -55.49 2.00 -180.00 -97.22 4.77 108.35 
DOCKED: USER  keepresnum = 1 
DOCKED: USER  
DOCKED: REMARK  Name = 
DOCKED: REMARK  11 active torsions:
DOCKED: REMARK  status: ('A' for Active; 'I' for Inactive)
DOCKED: REMARK    1  A    between atoms: C_1  and  N_2
DOCKED: REMARK    2  A    between atoms: N_2  and  C_3
DOCKED: REMARK    3  A    between atoms: N_2  and  C_22
DOCKED: REMARK    4  A    between atoms: C_6  and  C_9
DOCKED: REMARK    5  A    between atoms: C_9  and  C_10
DOCKED: REMARK    6  A    between atoms: C_10  and  C_11
DOCKED: REMARK    7  A    between atoms: C_10  and  C_20
DOCKED: REMARK    8  A    between atoms: C_12  and  C_13
DOCKED: REMARK    9  A    between atoms: C_12  and  C_19
DOCKED: REMARK   10  A    between atoms: C_14  and  C_15
DOCKED: REMARK   11  A    between atoms: N_16  and  O_17
DOCKED: REMARK                            x       y       z     vdW  Elec       q    Type
DOCKED: REMARK                         _______ _______ _______ _____ _____    ______ ____
DOCKED: USER                              x       y       z     vdW  Elec       q    Type
DOCKED: USER                           _______ _______ _______ _____ _____    ______ ____
DOCKED: ROOT
DOCKED: ATOM      1  C   UNL     1      26.342 -15.895  -1.612 -0.45 -0.00    +0.000 C 
DOCKED: ATOM      2  C   UNL     1      26.092 -14.771  -2.623 -0.43 -0.00    +0.000 C 
DOCKED: ENDROOT
DOCKED: BRANCH   1   3
DOCKED: ATOM      3  C   UNL     1      25.082 -16.710  -1.406 -0.62 -0.00    +0.000 C 
DOCKED: ATOM      4  C   UNL     1      25.050 -17.930  -0.830 -0.71 -0.00    +0.000 C 
DOCKED: ATOM      5  C   UNL     1      26.307 -18.615  -0.342 -0.59 -0.00    +0.000 C 
DOCKED: BRANCH   4   6
DOCKED: ATOM      6  C   UNL     1      23.738 -18.624  -0.747 -0.82 -0.00    +0.000 C 
DOCKED: ATOM      7  C   UNL     1      22.564 -17.977  -0.776 -0.81 -0.00    +0.000 C 
DOCKED: BRANCH   7   8
DOCKED: ATOM      8  C   UNL     1      21.255 -18.657  -0.693 -0.86 -0.00    +0.000 C 
DOCKED: ATOM      9  N   UNL     1      21.113 -19.983  -0.165 -0.63 -0.00    +0.000 N 
DOCKED: ATOM     10  O   UNL     1      20.229 -18.037  -1.081 -2.11 -0.00    +0.000 OA
DOCKED: ATOM     11  H   UNL     1      21.889 -20.439   0.234 -0.58 -0.00    +0.000 HD
DOCKED: BRANCH   9  12
DOCKED: ATOM     12  O   UNL     1      19.913 -20.610  -0.213 -0.82 -0.00    +0.000 OA
DOCKED: ATOM     13  H   UNL     1      19.518 -20.486  -1.090 -0.57 -0.00    +0.000 HD
DOCKED: ENDBRANCH   9  12
DOCKED: ENDBRANCH   7   8
DOCKED: ENDBRANCH   4   6
DOCKED: ENDBRANCH   1   3
DOCKED: BRANCH   1  14
DOCKED: ATOM     14  C   UNL     1      26.811 -15.303  -0.301 -0.35 -0.00    +0.000 C 
DOCKED: ATOM     15  O   UNL     1      27.194 -16.083   0.615 -0.37 -0.00    +0.000 OA
DOCKED: BRANCH  14  19
DOCKED: ATOM     16  C   UNL     1      26.797 -11.045   0.460 -0.21 +0.00    +0.000 A 
DOCKED: ATOM     17  C   UNL     1      25.841 -11.897   1.047 -0.31 +0.00    +0.000 A 
DOCKED: ATOM     18  C   UNL     1      25.851 -13.271   0.793 -0.22 -0.00    +0.000 A 
DOCKED: ATOM     19  C   UNL     1      26.819 -13.838  -0.050 -0.26 -0.00    +0.000 A 
DOCKED: ATOM     20  C   UNL     1      27.770 -12.992  -0.648 -0.13 -0.00    +0.000 A 
DOCKED: ATOM     21  C   UNL     1      27.761 -11.618  -0.395 -0.10 -0.00    +0.000 A 
DOCKED: BRANCH  16  23
DOCKED: ATOM     22  C   UNL     1      27.772  -9.022   1.637 -0.15 +0.00    +0.000 C 
DOCKED: ATOM     23  N   UNL     1      26.789  -9.618   0.724 -0.22 +0.00    +0.000 N 
DOCKED: ATOM     24  C   UNL     1      25.798  -8.745   0.082 -0.31 +0.00    +0.000 C 
DOCKED: ENDBRANCH  16  23
DOCKED: ENDBRANCH  14  19
DOCKED: ENDBRANCH   1  14
DOCKED: TORSDOF 7
DOCKED: TER
DOCKED: ENDMDL
________________________________________________________________________________


	BEGINNING GENETIC ALGORITHM DOCKING 24 of 100
Run: 24 Seed: 1313136859 768229206 [ Run 24 of 100 GA/GALS ]
Beginning LAMARCKIAN GENETIC ALGORITHM (LGA), with a maximum of 2500000 energy evaluations.

Final-Value: -14.682


	FINAL GENETIC ALGORITHM DOCKED STATE
	_______________________________________________


Detailed state:  trans 25.971 -15.677 -0.124 quatxyzw 0.290368 -0.951746 -0.086791 -0.048300 center 1.174 0.164 -0.352 ntor 7 2.9320 178.6477 -77.4049 -105.6445 3.8455 -44.1752 -67.9709
State:	 25.971 -15.677  -0.124   0.291 -0.953 -0.087 -174.463      2.93  178.65  -77.40 -105.64    3.85  -44.18  -67.97

DOCKED: MODEL       24
DOCKED: USER    Run = 24
DOCKED: USER    DPF = ligand_dock.biased.dpf
DOCKED: USER  
DOCKED: USER    Estimated Free Energy of Binding    =  -10.80 kcal/mol  [=(1)+(2)+(3)-(4)]
DOCKED: USER    Estimated Inhibition Constant, Ki   =   12.05 nM (nanomolar)  [Temperature = 298.15 K]
DOCKED: USER    
DOCKED: USER    (1) Final Intermolecular Energy     =  -12.89 kcal/mol
DOCKED: USER        vdW + Hbond + desolv Energy     =  -12.89 kcal/mol
DOCKED: USER        Electrostatic Energy            =   +0.00 kcal/mol
DOCKED: USER    (2) Final Total Internal Energy     =   -1.79 kcal/mol
DOCKED: USER    (3) Torsional Free Energy           =   +2.09 kcal/mol
DOCKED: USER    (4) Unbound System's Energy  [=(2)] =   -1.79 kcal/mol
DOCKED: USER    
DOCKED: USER    
DOCKED: USER    NEWDPF move ligand.pdbqt
DOCKED: USER    NEWDPF about 1.174000 0.164000 -0.352000
DOCKED: USER    NEWDPF tran0 25.970585 -15.677392 -0.123801
DOCKED: USER    NEWDPF quaternion0 0.290368 -0.951746 -0.086791 -0.048300
DOCKED: USER    NEWDPF axisangle0 0.290707 -0.952858 -0.086893 -174.463130
DOCKED: USER    NEWDPF quat0 0.290707 -0.952858 -0.086893 -174.463130
DOCKED: USER    NEWDPF dihe0 2.93 178.65 -77.40 -105.64 3.85 -44.18 -67.97 
DOCKED: USER  keepresnum = 1 
DOCKED: USER  
DOCKED: REMARK  Name = 
DOCKED: REMARK  11 active torsions:
DOCKED: REMARK  status: ('A' for Active; 'I' for Inactive)
DOCKED: REMARK    1  A    between atoms: C_1  and  N_2
DOCKED: REMARK    2  A    between atoms: N_2  and  C_3
DOCKED: REMARK    3  A    between atoms: N_2  and  C_22
DOCKED: REMARK    4  A    between atoms: C_6  and  C_9
DOCKED: REMARK    5  A    between atoms: C_9  and  C_10
DOCKED: REMARK    6  A    between atoms: C_10  and  C_11
DOCKED: REMARK    7  A    between atoms: C_10  and  C_20
DOCKED: REMARK    8  A    between atoms: C_12  and  C_13
DOCKED: REMARK    9  A    between atoms: C_12  and  C_19
DOCKED: REMARK   10  A    between atoms: C_14  and  C_15
DOCKED: REMARK   11  A    between atoms: N_16  and  O_17
DOCKED: REMARK                            x       y       z     vdW  Elec       q    Type
DOCKED: REMARK                         _______ _______ _______ _____ _____    ______ ____
DOCKED: USER                              x       y       z     vdW  Elec       q    Type
DOCKED: USER                           _______ _______ _______ _____ _____    ______ ____
DOCKED: ROOT
DOCKED: ATOM      1  C   UNL     1      26.227 -15.733  -2.032 -0.46 -0.00    +0.000 C 
DOCKED: ATOM      2  C   UNL     1      26.158 -15.734  -3.562 -0.49 -0.00    +0.000 C 
DOCKED: ENDROOT
DOCKED: BRANCH   1   3
DOCKED: ATOM      3  C   UNL     1      24.972 -16.346  -1.446 -0.58 -0.00    +0.000 C 
DOCKED: ATOM      4  C   UNL     1      24.944 -17.492  -0.733 -0.70 -0.00    +0.000 C 
DOCKED: ATOM      5  C   UNL     1      26.199 -18.294  -0.465 -0.62 -0.00    +0.000 C 
DOCKED: BRANCH   4   6
DOCKED: ATOM      6  C   UNL     1      23.623 -17.989  -0.269 -0.76 -0.00    +0.000 C 
DOCKED: ATOM      7  C   UNL     1      22.568 -18.136  -1.083 -0.78 -0.00    +0.000 C 
DOCKED: BRANCH   7   8
DOCKED: ATOM      8  C   UNL     1      21.251 -18.629  -0.630 -0.85 -0.00    +0.000 C 
DOCKED: ATOM      9  N   UNL     1      21.081 -19.919  -0.025 -0.65 -0.00    +0.000 N 
DOCKED: ATOM     10  O   UNL     1      20.249 -17.876  -0.761 -2.20 -0.00    +0.000 OA
DOCKED: ATOM     11  H   UNL     1      21.869 -20.475   0.175 -0.58 -0.00    +0.000 HD
DOCKED: BRANCH   9  12
DOCKED: ATOM     12  O   UNL     1      19.841 -20.374   0.271 -0.81 -0.00    +0.000 OA
DOCKED: ATOM     13  H   UNL     1      19.180 -19.731  -0.031 -0.03 -0.00    +0.000 HD
DOCKED: ENDBRANCH   9  12
DOCKED: ENDBRANCH   7   8
DOCKED: ENDBRANCH   4   6
DOCKED: ENDBRANCH   1   3
DOCKED: BRANCH   1  14
DOCKED: ATOM     14  C   UNL     1      26.408 -14.316  -1.533 -0.31 -0.00    +0.000 C 
DOCKED: ATOM     15  O   UNL     1      26.275 -13.363  -2.351 -0.22 -0.00    +0.000 OA
DOCKED: BRANCH  14  19
DOCKED: ATOM     16  C   UNL     1      27.394 -13.383   2.573 -0.31 -0.00    +0.000 A 
DOCKED: ATOM     17  C   UNL     1      26.687 -12.471   1.765 -0.31 -0.00    +0.000 A 
DOCKED: ATOM     18  C   UNL     1      26.375 -12.779   0.438 -0.26 -0.00    +0.000 A 
DOCKED: ATOM     19  C   UNL     1      26.755 -14.010  -0.121 -0.27 -0.00    +0.000 A 
DOCKED: ATOM     20  C   UNL     1      27.470 -14.920   0.677 -0.25 -0.00    +0.000 A 
DOCKED: ATOM     21  C   UNL     1      27.783 -14.613   2.003 -0.15 -0.00    +0.000 A 
DOCKED: BRANCH  16  23
DOCKED: ATOM     22  C   UNL     1      27.759 -11.670   4.407 -0.35 +0.00    +0.000 C 
DOCKED: ATOM     23  N   UNL     1      27.717 -13.065   3.952 -0.38 -0.00    +0.000 N 
DOCKED: ATOM     24  C   UNL     1      28.006 -14.134   4.917 -0.58 -0.00    +0.000 C 
DOCKED: ENDBRANCH  16  23
DOCKED: ENDBRANCH  14  19
DOCKED: ENDBRANCH   1  14
DOCKED: TORSDOF 7
DOCKED: TER
DOCKED: ENDMDL
________________________________________________________________________________


	BEGINNING GENETIC ALGORITHM DOCKING 25 of 100
Run: 25 Seed: 507040105 1298847521 [ Run 25 of 100 GA/GALS ]
Beginning LAMARCKIAN GENETIC ALGORITHM (LGA), with a maximum of 2500000 energy evaluations.

Final-Value: -13.817


	FINAL GENETIC ALGORITHM DOCKED STATE
	_______________________________________________


Detailed state:  trans 26.102 -16.422 0.372 quatxyzw 0.316152 -0.876785 -0.359595 0.044573 center 1.174 0.164 -0.352 ntor 7 58.1048 176.0851 -0.6169 -178.0071 180.0000 -16.5530 -14.8177
State:	 26.102 -16.422   0.372   0.316 -0.878 -0.360 174.891     58.10  176.09   -0.62 -178.01  180.00  -16.55  -14.82

DOCKED: MODEL       25
DOCKED: USER    Run = 25
DOCKED: USER    DPF = ligand_dock.biased.dpf
DOCKED: USER  
DOCKED: USER    Estimated Free Energy of Binding    =  -10.36 kcal/mol  [=(1)+(2)+(3)-(4)]
DOCKED: USER    Estimated Inhibition Constant, Ki   =   25.56 nM (nanomolar)  [Temperature = 298.15 K]
DOCKED: USER    
DOCKED: USER    (1) Final Intermolecular Energy     =  -12.45 kcal/mol
DOCKED: USER        vdW + Hbond + desolv Energy     =  -12.45 kcal/mol
DOCKED: USER        Electrostatic Energy            =   +0.00 kcal/mol
DOCKED: USER    (2) Final Total Internal Energy     =   -1.37 kcal/mol
DOCKED: USER    (3) Torsional Free Energy           =   +2.09 kcal/mol
DOCKED: USER    (4) Unbound System's Energy  [=(2)] =   -1.37 kcal/mol
DOCKED: USER    
DOCKED: USER    
DOCKED: USER    NEWDPF move ligand.pdbqt
DOCKED: USER    NEWDPF about 1.174000 0.164000 -0.352000
DOCKED: USER    NEWDPF tran0 26.102489 -16.422497 0.372287
DOCKED: USER    NEWDPF quaternion0 0.316152 -0.876785 -0.359595 0.044573
DOCKED: USER    NEWDPF axisangle0 0.316467 -0.877657 -0.359953 174.890565
DOCKED: USER    NEWDPF quat0 0.316467 -0.877657 -0.359953 174.890565
DOCKED: USER    NEWDPF dihe0 58.10 176.09 -0.62 -178.01 180.00 -16.55 -14.82 
DOCKED: USER  keepresnum = 1 
DOCKED: USER  
DOCKED: REMARK  Name = 
DOCKED: REMARK  11 active torsions:
DOCKED: REMARK  status: ('A' for Active; 'I' for Inactive)
DOCKED: REMARK    1  A    between atoms: C_1  and  N_2
DOCKED: REMARK    2  A    between atoms: N_2  and  C_3
DOCKED: REMARK    3  A    between atoms: N_2  and  C_22
DOCKED: REMARK    4  A    between atoms: C_6  and  C_9
DOCKED: REMARK    5  A    between atoms: C_9  and  C_10
DOCKED: REMARK    6  A    between atoms: C_10  and  C_11
DOCKED: REMARK    7  A    between atoms: C_10  and  C_20
DOCKED: REMARK    8  A    between atoms: C_12  and  C_13
DOCKED: REMARK    9  A    between atoms: C_12  and  C_19
DOCKED: REMARK   10  A    between atoms: C_14  and  C_15
DOCKED: REMARK   11  A    between atoms: N_16  and  O_17
DOCKED: REMARK                            x       y       z     vdW  Elec       q    Type
DOCKED: REMARK                         _______ _______ _______ _____ _____    ______ ____
DOCKED: USER                              x       y       z     vdW  Elec       q    Type
DOCKED: USER                           _______ _______ _______ _____ _____    ______ ____
DOCKED: ROOT
DOCKED: ATOM      1  C   UNL     1      26.362 -15.384  -1.229 -0.40 -0.00    +0.000 C 
DOCKED: ATOM      2  C   UNL     1      26.293 -14.526  -2.496 -0.38 -0.00    +0.000 C 
DOCKED: ENDROOT
DOCKED: BRANCH   1   3
DOCKED: ATOM      3  C   UNL     1      25.141 -16.274  -1.126 -0.56 -0.00    +0.000 C 
DOCKED: ATOM      4  C   UNL     1      25.157 -17.539  -0.657 -0.68 -0.00    +0.000 C 
DOCKED: ATOM      5  C   UNL     1      26.436 -18.202  -0.195 -0.62 -0.00    +0.000 C 
DOCKED: BRANCH   4   6
DOCKED: ATOM      6  C   UNL     1      23.880 -18.300  -0.667 -0.81 -0.00    +0.000 C 
DOCKED: ATOM      7  C   UNL     1      22.676 -17.711  -0.711 -0.80 -0.00    +0.000 C 
DOCKED: BRANCH   7   8
DOCKED: ATOM      8  C   UNL     1      21.402 -18.459  -0.722 -0.85 -0.00    +0.000 C 
DOCKED: ATOM      9  N   UNL     1      21.317 -19.834  -0.325 -0.66 -0.00    +0.000 N 
DOCKED: ATOM     10  O   UNL     1      20.353 -17.854  -1.072 -2.19 -0.00    +0.000 OA
DOCKED: ATOM     11  H   UNL     1      22.109 -20.288   0.045 -0.56 -0.00    +0.000 HD
DOCKED: BRANCH   9  12
DOCKED: ATOM     12  O   UNL     1      20.152 -20.510  -0.458 -0.89 -0.00    +0.000 OA
DOCKED: ATOM     13  H   UNL     1      19.874 -20.496  -1.388 -0.56 -0.00    +0.000 HD
DOCKED: ENDBRANCH   9  12
DOCKED: ENDBRANCH   7   8
DOCKED: ENDBRANCH   4   6
DOCKED: ENDBRANCH   1   3
DOCKED: BRANCH   1  14
DOCKED: ATOM     14  C   UNL     1      26.468 -14.487  -0.014 -0.29 -0.00    +0.000 C 
DOCKED: ATOM     15  O   UNL     1      25.510 -13.707   0.251 -0.39 -0.00    +0.000 OA
DOCKED: BRANCH  14  19
DOCKED: ATOM     16  C   UNL     1      29.985 -14.479   2.503 -0.14 -0.00    +0.000 A 
DOCKED: ATOM     17  C   UNL     1      30.044 -14.913   1.164 -0.08 -0.00    +0.000 A 
DOCKED: ATOM     18  C   UNL     1      28.902 -14.916   0.359 -0.17 -0.00    +0.000 A 
DOCKED: ATOM     19  C   UNL     1      27.667 -14.478   0.863 -0.25 -0.00    +0.000 A 
DOCKED: ATOM     20  C   UNL     1      27.599 -14.053   2.202 -0.27 -0.00    +0.000 A 
DOCKED: ATOM     21  C   UNL     1      28.740 -14.051   3.008 -0.28 -0.00    +0.000 A 
DOCKED: BRANCH  16  23
DOCKED: ATOM     22  C   UNL     1      32.295 -15.371   3.048 -0.21 -0.00    +0.000 C 
DOCKED: ATOM     23  N   UNL     1      31.170 -14.474   3.340 -0.21 -0.00    +0.000 N 
DOCKED: ATOM     24  C   UNL     1      31.266 -13.570   4.493 -0.21 -0.00    +0.000 C 
DOCKED: ENDBRANCH  16  23
DOCKED: ENDBRANCH  14  19
DOCKED: ENDBRANCH   1  14
DOCKED: TORSDOF 7
DOCKED: TER
DOCKED: ENDMDL
________________________________________________________________________________


	BEGINNING GENETIC ALGORITHM DOCKING 26 of 100
Run: 26 Seed: 1255770409 980281855 [ Run 26 of 100 GA/GALS ]
Beginning LAMARCKIAN GENETIC ALGORITHM (LGA), with a maximum of 2500000 energy evaluations.

Final-Value: -14.393


	FINAL GENETIC ALGORITHM DOCKED STATE
	_______________________________________________


Detailed state:  trans 25.555 -14.782 -0.700 quatxyzw -0.232242 0.816838 -0.445739 -0.283118 center 1.174 0.164 -0.352 ntor 7 -12.3611 86.1048 59.4720 67.7847 -138.9474 -87.2054 138.7038
State:	 25.555 -14.782  -0.700  -0.242  0.852 -0.465 -147.107    -12.36   86.10   59.47   67.78 -138.95  -87.21  138.70

DOCKED: MODEL       26
DOCKED: USER    Run = 26
DOCKED: USER    DPF = ligand_dock.biased.dpf
DOCKED: USER  
DOCKED: USER    Estimated Free Energy of Binding    =  -10.71 kcal/mol  [=(1)+(2)+(3)-(4)]
DOCKED: USER    Estimated Inhibition Constant, Ki   =   14.06 nM (nanomolar)  [Temperature = 298.15 K]
DOCKED: USER    
DOCKED: USER    (1) Final Intermolecular Energy     =  -12.80 kcal/mol
DOCKED: USER        vdW + Hbond + desolv Energy     =  -12.80 kcal/mol
DOCKED: USER        Electrostatic Energy            =   +0.00 kcal/mol
DOCKED: USER    (2) Final Total Internal Energy     =   -1.59 kcal/mol
DOCKED: USER    (3) Torsional Free Energy           =   +2.09 kcal/mol
DOCKED: USER    (4) Unbound System's Energy  [=(2)] =   -1.59 kcal/mol
DOCKED: USER    
DOCKED: USER    
DOCKED: USER    NEWDPF move ligand.pdbqt
DOCKED: USER    NEWDPF about 1.174000 0.164000 -0.352000
DOCKED: USER    NEWDPF tran0 25.555108 -14.782493 -0.699583
DOCKED: USER    NEWDPF quaternion0 -0.232242 0.816838 -0.445739 -0.283118
DOCKED: USER    NEWDPF axisangle0 -0.242150 0.851685 -0.464754 -147.107194
DOCKED: USER    NEWDPF quat0 -0.242150 0.851685 -0.464754 -147.107194
DOCKED: USER    NEWDPF dihe0 -12.36 86.10 59.47 67.78 -138.95 -87.21 138.70 
DOCKED: USER  keepresnum = 1 
DOCKED: USER  
DOCKED: REMARK  Name = 
DOCKED: REMARK  11 active torsions:
DOCKED: REMARK  status: ('A' for Active; 'I' for Inactive)
DOCKED: REMARK    1  A    between atoms: C_1  and  N_2
DOCKED: REMARK    2  A    between atoms: N_2  and  C_3
DOCKED: REMARK    3  A    between atoms: N_2  and  C_22
DOCKED: REMARK    4  A    between atoms: C_6  and  C_9
DOCKED: REMARK    5  A    between atoms: C_9  and  C_10
DOCKED: REMARK    6  A    between atoms: C_10  and  C_11
DOCKED: REMARK    7  A    between atoms: C_10  and  C_20
DOCKED: REMARK    8  A    between atoms: C_12  and  C_13
DOCKED: REMARK    9  A    between atoms: C_12  and  C_19
DOCKED: REMARK   10  A    between atoms: C_14  and  C_15
DOCKED: REMARK   11  A    between atoms: N_16  and  O_17
DOCKED: REMARK                            x       y       z     vdW  Elec       q    Type
DOCKED: REMARK                         _______ _______ _______ _____ _____    ______ ____
DOCKED: USER                              x       y       z     vdW  Elec       q    Type
DOCKED: USER                           _______ _______ _______ _____ _____    ______ ____
DOCKED: ROOT
DOCKED: ATOM      1  C   UNL     1      27.038 -15.982  -0.965 -0.40 -0.00    +0.000 C 
DOCKED: ATOM      2  C   UNL     1      28.087 -17.007  -1.408 -0.36 -0.00    +0.000 C 
DOCKED: ENDROOT
DOCKED: BRANCH   1   3
DOCKED: ATOM      3  C   UNL     1      25.650 -16.437  -1.366 -0.56 -0.00    +0.000 C 
DOCKED: ATOM      4  C   UNL     1      24.983 -17.454  -0.781 -0.69 -0.00    +0.000 C 
DOCKED: ATOM      5  C   UNL     1      25.587 -18.260   0.348 -0.53 -0.00    +0.000 C 
DOCKED: BRANCH   4   6
DOCKED: ATOM      6  C   UNL     1      23.647 -17.811  -1.325 -0.75 -0.00    +0.000 C 
DOCKED: ATOM      7  C   UNL     1      22.582 -18.061  -0.549 -0.83 -0.00    +0.000 C 
DOCKED: BRANCH   7   8
DOCKED: ATOM      8  C   UNL     1      21.251 -18.417  -1.081 -0.73 -0.00    +0.000 C 
DOCKED: ATOM      9  N   UNL     1      20.945 -19.730  -1.569 -0.74 -0.00    +0.000 N 
DOCKED: ATOM     10  O   UNL     1      20.349 -17.536  -1.081 -2.06 -0.00    +0.000 OA
DOCKED: ATOM     11  H   UNL     1      21.608 -20.453  -1.482 -0.29 -0.00    +0.000 HD
DOCKED: BRANCH   9  12
DOCKED: ATOM     12  O   UNL     1      19.748 -19.979  -2.151 -1.68 -0.00    +0.000 OA
DOCKED: ATOM     13  H   UNL     1      19.148 -19.235  -1.987 -0.50 -0.00    +0.000 HD
DOCKED: ENDBRANCH   9  12
DOCKED: ENDBRANCH   7   8
DOCKED: ENDBRANCH   4   6
DOCKED: ENDBRANCH   1   3
DOCKED: BRANCH   1  14
DOCKED: ATOM     14  C   UNL     1      27.354 -14.636  -1.580 -0.25 -0.00    +0.000 C 
DOCKED: ATOM     15  O   UNL     1      27.150 -13.593  -0.897 -0.22 -0.00    +0.000 OA
DOCKED: BRANCH  14  19
DOCKED: ATOM     16  C   UNL     1      28.831 -14.256  -5.627 -0.27 -0.00    +0.000 A 
DOCKED: ATOM     17  C   UNL     1      27.549 -14.777  -5.362 -0.38 -0.00    +0.000 A 
DOCKED: ATOM     18  C   UNL     1      27.081 -14.899  -4.051 -0.38 -0.00    +0.000 A 
DOCKED: ATOM     19  C   UNL     1      27.876 -14.499  -2.965 -0.19 -0.00    +0.000 A 
DOCKED: ATOM     20  C   UNL     1      29.160 -13.988  -3.222 -0.08 -0.00    +0.000 A 
DOCKED: ATOM     21  C   UNL     1      29.629 -13.866  -4.532 -0.09 -0.00    +0.000 A 
DOCKED: BRANCH  16  23
DOCKED: ATOM     22  C   UNL     1      30.460 -14.923  -7.452 -0.27 -0.00    +0.000 C 
DOCKED: ATOM     23  N   UNL     1      29.318 -14.126  -6.988 -0.31 -0.00    +0.000 N 
DOCKED: ATOM     24  C   UNL     1      28.675 -13.197  -7.925 -0.23 -0.00    +0.000 C 
DOCKED: ENDBRANCH  16  23
DOCKED: ENDBRANCH  14  19
DOCKED: ENDBRANCH   1  14
DOCKED: TORSDOF 7
DOCKED: TER
DOCKED: ENDMDL
________________________________________________________________________________


	BEGINNING GENETIC ALGORITHM DOCKING 27 of 100
Run: 27 Seed: 1041485084 95110197 [ Run 27 of 100 GA/GALS ]
Beginning LAMARCKIAN GENETIC ALGORITHM (LGA), with a maximum of 2500000 energy evaluations.

Final-Value: -13.871


	FINAL GENETIC ALGORITHM DOCKED STATE
	_______________________________________________


Detailed state:  trans 25.571 -15.613 -2.782 quatxyzw -0.190968 0.200042 -0.934754 -0.223044 center 1.174 0.164 -0.352 ntor 7 -0.3555 149.8944 -19.9335 163.0913 21.8742 143.7137 -30.5901
State:	 25.571 -15.613  -2.782  -0.196  0.205 -0.959 -154.224     -0.36  149.89  -19.93  163.09   21.87  143.71  -30.59

DOCKED: MODEL       27
DOCKED: USER    Run = 27
DOCKED: USER    DPF = ligand_dock.biased.dpf
DOCKED: USER  
DOCKED: USER    Estimated Free Energy of Binding    =  -10.49 kcal/mol  [=(1)+(2)+(3)-(4)]
DOCKED: USER    Estimated Inhibition Constant, Ki   =   20.35 nM (nanomolar)  [Temperature = 298.15 K]
DOCKED: USER    
DOCKED: USER    (1) Final Intermolecular Energy     =  -12.58 kcal/mol
DOCKED: USER        vdW + Hbond + desolv Energy     =  -12.58 kcal/mol
DOCKED: USER        Electrostatic Energy            =   +0.00 kcal/mol
DOCKED: USER    (2) Final Total Internal Energy     =   -1.29 kcal/mol
DOCKED: USER    (3) Torsional Free Energy           =   +2.09 kcal/mol
DOCKED: USER    (4) Unbound System's Energy  [=(2)] =   -1.29 kcal/mol
DOCKED: USER    
DOCKED: USER    
DOCKED: USER    NEWDPF move ligand.pdbqt
DOCKED: USER    NEWDPF about 1.174000 0.164000 -0.352000
DOCKED: USER    NEWDPF tran0 25.570545 -15.613329 -2.782393
DOCKED: USER    NEWDPF quaternion0 -0.190968 0.200042 -0.934754 -0.223044
DOCKED: USER    NEWDPF axisangle0 -0.195904 0.205212 -0.958911 -154.224238
DOCKED: USER    NEWDPF quat0 -0.195904 0.205212 -0.958911 -154.224238
DOCKED: USER    NEWDPF dihe0 -0.36 149.89 -19.93 163.09 21.87 143.71 -30.59 
DOCKED: USER  keepresnum = 1 
DOCKED: USER  
DOCKED: REMARK  Name = 
DOCKED: REMARK  11 active torsions:
DOCKED: REMARK  status: ('A' for Active; 'I' for Inactive)
DOCKED: REMARK    1  A    between atoms: C_1  and  N_2
DOCKED: REMARK    2  A    between atoms: N_2  and  C_3
DOCKED: REMARK    3  A    between atoms: N_2  and  C_22
DOCKED: REMARK    4  A    between atoms: C_6  and  C_9
DOCKED: REMARK    5  A    between atoms: C_9  and  C_10
DOCKED: REMARK    6  A    between atoms: C_10  and  C_11
DOCKED: REMARK    7  A    between atoms: C_10  and  C_20
DOCKED: REMARK    8  A    between atoms: C_12  and  C_13
DOCKED: REMARK    9  A    between atoms: C_12  and  C_19
DOCKED: REMARK   10  A    between atoms: C_14  and  C_15
DOCKED: REMARK   11  A    between atoms: N_16  and  O_17
DOCKED: REMARK                            x       y       z     vdW  Elec       q    Type
DOCKED: REMARK                         _______ _______ _______ _____ _____    ______ ____
DOCKED: USER                              x       y       z     vdW  Elec       q    Type
DOCKED: USER                           _______ _______ _______ _____ _____    ______ ____
DOCKED: ROOT
DOCKED: ATOM      1  C   UNL     1      26.412 -15.558  -1.051 -0.41 -0.00    +0.000 C 
DOCKED: ATOM      2  C   UNL     1      27.002 -15.778   0.345 -0.22 -0.00    +0.000 C 
DOCKED: ENDROOT
DOCKED: BRANCH   1   3
DOCKED: ATOM      3  C   UNL     1      25.135 -16.356  -1.217 -0.58 -0.00    +0.000 C 
DOCKED: ATOM      4  C   UNL     1      25.046 -17.693  -1.058 -0.70 -0.00    +0.000 C 
DOCKED: ATOM      5  C   UNL     1      26.251 -18.536  -0.706 -0.48 -0.00    +0.000 C 
DOCKED: BRANCH   4   6
DOCKED: ATOM      6  C   UNL     1      23.728 -18.335  -1.306 -0.78 -0.00    +0.000 C 
DOCKED: ATOM      7  C   UNL     1      22.564 -17.792  -0.920 -0.75 -0.00    +0.000 C 
DOCKED: BRANCH   7   8
DOCKED: ATOM      8  C   UNL     1      21.250 -18.423  -1.162 -0.56 -0.00    +0.000 C 
DOCKED: ATOM      9  N   UNL     1      21.114 -19.661  -1.873 -0.58 -0.00    +0.000 N 
DOCKED: ATOM     10  O   UNL     1      20.220 -17.859  -0.707 -2.17 +0.00    +0.000 OA
DOCKED: ATOM     11  H   UNL     1      21.916 -20.162  -2.145 -0.54 -0.00    +0.000 HD
DOCKED: BRANCH   9  12
DOCKED: ATOM     12  O   UNL     1      19.884 -20.144  -2.169 -1.67 -0.00    +0.000 OA
DOCKED: ATOM     13  H   UNL     1      19.207 -19.538  -1.828 -0.44 -0.00    +0.000 HD
DOCKED: ENDBRANCH   9  12
DOCKED: ENDBRANCH   7   8
DOCKED: ENDBRANCH   4   6
DOCKED: ENDBRANCH   1   3
DOCKED: BRANCH   1  14
DOCKED: ATOM     14  C   UNL     1      27.427 -15.957  -2.100 -0.34 -0.00    +0.000 C 
DOCKED: ATOM     15  O   UNL     1      28.019 -17.066  -1.981 -0.38 -0.00    +0.000 OA
DOCKED: BRANCH  14  19
DOCKED: ATOM     16  C   UNL     1      28.402 -13.446  -5.483 -0.21 -0.00    +0.000 A 
DOCKED: ATOM     17  C   UNL     1      28.170 -14.827  -5.639 -0.37 -0.00    +0.000 A 
DOCKED: ATOM     18  C   UNL     1      27.859 -15.632  -4.540 -0.30 -0.00    +0.000 A 
DOCKED: ATOM     19  C   UNL     1      27.764 -15.081  -3.252 -0.25 -0.00    +0.000 A 
DOCKED: ATOM     20  C   UNL     1      28.004 -13.706  -3.088 -0.14 -0.00    +0.000 A 
DOCKED: ATOM     21  C   UNL     1      28.316 -12.900  -4.186 -0.12 -0.00    +0.000 A 
DOCKED: BRANCH  16  23
DOCKED: ATOM     22  C   UNL     1      29.792 -12.992  -7.555 -0.22 -0.00    +0.000 C 
DOCKED: ATOM     23  N   UNL     1      28.723 -12.609  -6.624 -0.19 -0.00    +0.000 N 
DOCKED: ATOM     24  C   UNL     1      27.984 -11.364  -6.869 -0.16 -0.00    +0.000 C 
DOCKED: ENDBRANCH  16  23
DOCKED: ENDBRANCH  14  19
DOCKED: ENDBRANCH   1  14
DOCKED: TORSDOF 7
DOCKED: TER
DOCKED: ENDMDL
________________________________________________________________________________


	BEGINNING GENETIC ALGORITHM DOCKING 28 of 100
Run: 28 Seed: 773529997 1552671731 [ Run 28 of 100 GA/GALS ]
Beginning LAMARCKIAN GENETIC ALGORITHM (LGA), with a maximum of 2500000 energy evaluations.

Final-Value: -14.527


	FINAL GENETIC ALGORITHM DOCKED STATE
	_______________________________________________


Detailed state:  trans 25.834 -15.482 0.254 quatxyzw -0.245408 0.969035 0.009038 -0.025771 center 1.174 0.164 -0.352 ntor 7 8.1467 -169.0861 -121.2898 -46.6511 -178.0415 -60.0269 -60.1990
State:	 25.834 -15.482   0.254  -0.245  0.969  0.009 -177.047      8.15 -169.09 -121.29  -46.65 -178.04  -60.03  -60.20

DOCKED: MODEL       28
DOCKED: USER    Run = 28
DOCKED: USER    DPF = ligand_dock.biased.dpf
DOCKED: USER  
DOCKED: USER    Estimated Free Energy of Binding    =  -10.78 kcal/mol  [=(1)+(2)+(3)-(4)]
DOCKED: USER    Estimated Inhibition Constant, Ki   =   12.59 nM (nanomolar)  [Temperature = 298.15 K]
DOCKED: USER    
DOCKED: USER    (1) Final Intermolecular Energy     =  -12.87 kcal/mol
DOCKED: USER        vdW + Hbond + desolv Energy     =  -12.87 kcal/mol
DOCKED: USER        Electrostatic Energy            =   +0.00 kcal/mol
DOCKED: USER    (2) Final Total Internal Energy     =   -1.66 kcal/mol
DOCKED: USER    (3) Torsional Free Energy           =   +2.09 kcal/mol
DOCKED: USER    (4) Unbound System's Energy  [=(2)] =   -1.66 kcal/mol
DOCKED: USER    
DOCKED: USER    
DOCKED: USER    NEWDPF move ligand.pdbqt
DOCKED: USER    NEWDPF about 1.174000 0.164000 -0.352000
DOCKED: USER    NEWDPF tran0 25.833612 -15.481694 0.253605
DOCKED: USER    NEWDPF quaternion0 -0.245408 0.969035 0.009038 -0.025771
DOCKED: USER    NEWDPF axisangle0 -0.245490 0.969357 0.009041 -177.046509
DOCKED: USER    NEWDPF quat0 -0.245490 0.969357 0.009041 -177.046509
DOCKED: USER    NEWDPF dihe0 8.15 -169.09 -121.29 -46.65 -178.04 -60.03 -60.20 
DOCKED: USER  keepresnum = 1 
DOCKED: USER  
DOCKED: REMARK  Name = 
DOCKED: REMARK  11 active torsions:
DOCKED: REMARK  status: ('A' for Active; 'I' for Inactive)
DOCKED: REMARK    1  A    between atoms: C_1  and  N_2
DOCKED: REMARK    2  A    between atoms: N_2  and  C_3
DOCKED: REMARK    3  A    between atoms: N_2  and  C_22
DOCKED: REMARK    4  A    between atoms: C_6  and  C_9
DOCKED: REMARK    5  A    between atoms: C_9  and  C_10
DOCKED: REMARK    6  A    between atoms: C_10  and  C_11
DOCKED: REMARK    7  A    between atoms: C_10  and  C_20
DOCKED: REMARK    8  A    between atoms: C_12  and  C_13
DOCKED: REMARK    9  A    between atoms: C_12  and  C_19
DOCKED: REMARK   10  A    between atoms: C_14  and  C_15
DOCKED: REMARK   11  A    between atoms: N_16  and  O_17
DOCKED: REMARK                            x       y       z     vdW  Elec       q    Type
DOCKED: REMARK                         _______ _______ _______ _____ _____    ______ ____
DOCKED: USER                              x       y       z     vdW  Elec       q    Type
DOCKED: USER                           _______ _______ _______ _____ _____    ______ ____
DOCKED: ROOT
DOCKED: ATOM      1  C   UNL     1      26.409 -15.790  -1.558 -0.44 -0.00    +0.000 C 
DOCKED: ATOM      2  C   UNL     1      26.606 -15.970  -3.067 -0.40 -0.00    +0.000 C 
DOCKED: ENDROOT
DOCKED: BRANCH   1   3
DOCKED: ATOM      3  C   UNL     1      25.011 -16.212  -1.154 -0.53 -0.00    +0.000 C 
DOCKED: ATOM      4  C   UNL     1      24.704 -17.409  -0.610 -0.68 -0.00    +0.000 C 
DOCKED: ATOM      5  C   UNL     1      25.756 -18.468  -0.366 -0.63 -0.00    +0.000 C 
DOCKED: BRANCH   4   6
DOCKED: ATOM      6  C   UNL     1      23.275 -17.690  -0.315 -0.74 -0.00    +0.000 C 
DOCKED: ATOM      7  C   UNL     1      22.546 -18.583  -1.001 -0.83 -0.00    +0.000 C 
DOCKED: BRANCH   7   8
DOCKED: ATOM      8  C   UNL     1      21.125 -18.869  -0.714 -0.88 -0.00    +0.000 C 
DOCKED: ATOM      9  N   UNL     1      20.707 -20.048  -0.014 -0.70 -0.00    +0.000 N 
DOCKED: ATOM     10  O   UNL     1      20.258 -18.031  -1.080 -2.14 -0.00    +0.000 OA
DOCKED: ATOM     11  H   UNL     1      21.379 -20.659   0.365 -0.57 -0.00    +0.000 HD
DOCKED: BRANCH   9  12
DOCKED: ATOM     12  O   UNL     1      19.389 -20.324   0.127 -0.83 -0.00    +0.000 OA
DOCKED: ATOM     13  H   UNL     1      18.869 -19.704  -0.407 -0.12 -0.00    +0.000 HD
DOCKED: ENDBRANCH   9  12
DOCKED: ENDBRANCH   7   8
DOCKED: ENDBRANCH   4   6
DOCKED: ENDBRANCH   1   3
DOCKED: BRANCH   1  14
DOCKED: ATOM     14  C   UNL     1      26.656 -14.345  -1.183 -0.30 -0.00    +0.000 C 
DOCKED: ATOM     15  O   UNL     1      26.624 -13.468  -2.091 -0.25 -0.00    +0.000 OA
DOCKED: BRANCH  14  19
DOCKED: ATOM     16  C   UNL     1      27.537 -13.174   2.886 -0.31 -0.00    +0.000 A 
DOCKED: ATOM     17  C   UNL     1      27.811 -14.477   2.424 -0.24 -0.00    +0.000 A 
DOCKED: ATOM     18  C   UNL     1      27.520 -14.848   1.108 -0.19 -0.00    +0.000 A 
DOCKED: ATOM     19  C   UNL     1      26.952 -13.928   0.212 -0.26 -0.00    +0.000 A 
DOCKED: ATOM     20  C   UNL     1      26.667 -12.630   0.671 -0.27 -0.00    +0.000 A 
DOCKED: ATOM     21  C   UNL     1      26.957 -12.258   1.986 -0.28 +0.00    +0.000 A 
DOCKED: BRANCH  16  23
DOCKED: ATOM     22  C   UNL     1      28.245 -13.793   5.242 -0.53 -0.00    +0.000 C 
DOCKED: ATOM     23  N   UNL     1      27.841 -12.787   4.252 -0.37 -0.00    +0.000 N 
DOCKED: ATOM     24  C   UNL     1      27.751 -11.382   4.666 -0.37 +0.00    +0.000 C 
DOCKED: ENDBRANCH  16  23
DOCKED: ENDBRANCH  14  19
DOCKED: ENDBRANCH   1  14
DOCKED: TORSDOF 7
DOCKED: TER
DOCKED: ENDMDL
________________________________________________________________________________


	BEGINNING GENETIC ALGORITHM DOCKING 29 of 100
Run: 29 Seed: 794163629 1698099439 [ Run 29 of 100 GA/GALS ]
Beginning LAMARCKIAN GENETIC ALGORITHM (LGA), with a maximum of 2500000 energy evaluations.

Final-Value: -13.665


	FINAL GENETIC ALGORITHM DOCKED STATE
	_______________________________________________


Detailed state:  trans 25.317 -14.559 -2.891 quatxyzw 0.442681 -0.595779 0.668435 0.047714 center 1.174 0.164 -0.352 ntor 7 -149.9168 -67.2274 -171.9541 -124.7976 91.7717 -100.6385 -48.5170
State:	 25.317 -14.559  -2.891   0.443 -0.596  0.669 174.530   -149.92  -67.23 -171.95 -124.80   91.77 -100.64  -48.52

DOCKED: MODEL       29
DOCKED: USER    Run = 29
DOCKED: USER    DPF = ligand_dock.biased.dpf
DOCKED: USER  
DOCKED: USER    Estimated Free Energy of Binding    =  -10.57 kcal/mol  [=(1)+(2)+(3)-(4)]
DOCKED: USER    Estimated Inhibition Constant, Ki   =   17.78 nM (nanomolar)  [Temperature = 298.15 K]
DOCKED: USER    
DOCKED: USER    (1) Final Intermolecular Energy     =  -12.66 kcal/mol
DOCKED: USER        vdW + Hbond + desolv Energy     =  -12.66 kcal/mol
DOCKED: USER        Electrostatic Energy            =   +0.00 kcal/mol
DOCKED: USER    (2) Final Total Internal Energy     =   -1.00 kcal/mol
DOCKED: USER    (3) Torsional Free Energy           =   +2.09 kcal/mol
DOCKED: USER    (4) Unbound System's Energy  [=(2)] =   -1.00 kcal/mol
DOCKED: USER    
DOCKED: USER    
DOCKED: USER    NEWDPF move ligand.pdbqt
DOCKED: USER    NEWDPF about 1.174000 0.164000 -0.352000
DOCKED: USER    NEWDPF tran0 25.317082 -14.559380 -2.890619
DOCKED: USER    NEWDPF quaternion0 0.442681 -0.595779 0.668435 0.047714
DOCKED: USER    NEWDPF axisangle0 0.443185 -0.596458 0.669197 174.530294
DOCKED: USER    NEWDPF quat0 0.443185 -0.596458 0.669197 174.530294
DOCKED: USER    NEWDPF dihe0 -149.92 -67.23 -171.95 -124.80 91.77 -100.64 -48.52 
DOCKED: USER  keepresnum = 1 
DOCKED: USER  
DOCKED: REMARK  Name = 
DOCKED: REMARK  11 active torsions:
DOCKED: REMARK  status: ('A' for Active; 'I' for Inactive)
DOCKED: REMARK    1  A    between atoms: C_1  and  N_2
DOCKED: REMARK    2  A    between atoms: N_2  and  C_3
DOCKED: REMARK    3  A    between atoms: N_2  and  C_22
DOCKED: REMARK    4  A    between atoms: C_6  and  C_9
DOCKED: REMARK    5  A    between atoms: C_9  and  C_10
DOCKED: REMARK    6  A    between atoms: C_10  and  C_11
DOCKED: REMARK    7  A    between atoms: C_10  and  C_20
DOCKED: REMARK    8  A    between atoms: C_12  and  C_13
DOCKED: REMARK    9  A    between atoms: C_12  and  C_19
DOCKED: REMARK   10  A    between atoms: C_14  and  C_15
DOCKED: REMARK   11  A    between atoms: N_16  and  O_17
DOCKED: REMARK                            x       y       z     vdW  Elec       q    Type
DOCKED: REMARK                         _______ _______ _______ _____ _____    ______ ____
DOCKED: USER                              x       y       z     vdW  Elec       q    Type
DOCKED: USER                           _______ _______ _______ _____ _____    ______ ____
DOCKED: ROOT
DOCKED: ATOM      1  C   UNL     1      26.915 -15.625  -2.751 -0.39 -0.00    +0.000 C 
DOCKED: ATOM      2  C   UNL     1      28.019 -16.686  -2.691 -0.15 -0.00    +0.000 C 
DOCKED: ENDROOT
DOCKED: BRANCH   1   3
DOCKED: ATOM      3  C   UNL     1      25.618 -16.179  -2.198 -0.55 -0.00    +0.000 C 
DOCKED: ATOM      4  C   UNL     1      25.468 -16.663  -0.948 -0.58 -0.00    +0.000 C 
DOCKED: ATOM      5  C   UNL     1      26.619 -16.710   0.033 -0.39 -0.00    +0.000 C 
DOCKED: BRANCH   4   6
DOCKED: ATOM      6  C   UNL     1      24.141 -17.218  -0.573 -0.64 -0.00    +0.000 C 
DOCKED: ATOM      7  C   UNL     1      23.328 -17.827  -1.448 -0.69 -0.00    +0.000 C 
DOCKED: BRANCH   7   8
DOCKED: ATOM      8  C   UNL     1      22.007 -18.382  -1.085 -0.77 -0.00    +0.000 C 
DOCKED: ATOM      9  N   UNL     1      21.403 -19.461  -1.812 -0.58 -0.00    +0.000 N 
DOCKED: ATOM     10  O   UNL     1      21.407 -17.900  -0.088 -1.45 -0.00    +0.000 OA
DOCKED: ATOM     11  H   UNL     1      21.904 -19.912  -2.529 -0.56 -0.00    +0.000 HD
DOCKED: BRANCH   9  12
DOCKED: ATOM     12  O   UNL     1      20.144 -19.860  -1.513 -1.68 -0.00    +0.000 OA
DOCKED: ATOM     13  H   UNL     1      20.052 -20.808  -1.701 -0.58 -0.00    +0.000 HD
DOCKED: ENDBRANCH   9  12
DOCKED: ENDBRANCH   7   8
DOCKED: ENDBRANCH   4   6
DOCKED: ENDBRANCH   1   3
DOCKED: BRANCH   1  14
DOCKED: ATOM     14  C   UNL     1      26.730 -15.167  -4.181 -0.51 -0.00    +0.000 C 
DOCKED: ATOM     15  O   UNL     1      26.970 -15.982  -5.116 -0.85 +0.00    +0.000 OA
DOCKED: BRANCH  14  19
DOCKED: ATOM     16  C   UNL     1      25.419 -11.161  -5.151 -0.33 -0.00    +0.000 A 
DOCKED: ATOM     17  C   UNL     1      24.581 -12.058  -4.459 +0.01 -0.00    +0.000 A 
DOCKED: ATOM     18  C   UNL     1      25.012 -13.351  -4.152 -0.27 -0.00    +0.000 A 
DOCKED: ATOM     19  C   UNL     1      26.294 -13.787  -4.523 -0.35 -0.00    +0.000 A 
DOCKED: ATOM     20  C   UNL     1      27.131 -12.901  -5.223 -0.22 -0.00    +0.000 A 
DOCKED: ATOM     21  C   UNL     1      26.701 -11.608  -5.531 -0.20 -0.00    +0.000 A 
DOCKED: BRANCH  16  23
DOCKED: ATOM     22  C   UNL     1      25.255  -8.701  -4.556 -0.24 -0.00    +0.000 C 
DOCKED: ATOM     23  N   UNL     1      24.974  -9.817  -5.469 -0.30 -0.00    +0.000 N 
DOCKED: ATOM     24  C   UNL     1      24.236  -9.547  -6.709 -0.40 -0.00    +0.000 C 
DOCKED: ENDBRANCH  16  23
DOCKED: ENDBRANCH  14  19
DOCKED: ENDBRANCH   1  14
DOCKED: TORSDOF 7
DOCKED: TER
DOCKED: ENDMDL
________________________________________________________________________________


	BEGINNING GENETIC ALGORITHM DOCKING 30 of 100
Run: 30 Seed: 364558448 514438600 [ Run 30 of 100 GA/GALS ]
Beginning LAMARCKIAN GENETIC ALGORITHM (LGA), with a maximum of 2500000 energy evaluations.

Final-Value: -14.605


	FINAL GENETIC ALGORITHM DOCKED STATE
	_______________________________________________


Detailed state:  trans 26.422 -15.618 -0.398 quatxyzw -0.206221 0.970582 0.123668 -0.012257 center 1.174 0.164 -0.352 ntor 7 14.6725 -174.8925 168.7204 -57.2996 -125.5409 -33.6527 -65.3063
State:	 26.422 -15.618  -0.398  -0.206  0.971  0.124 -178.595     14.67 -174.89  168.72  -57.30 -125.54  -33.65  -65.31

DOCKED: MODEL       30
DOCKED: USER    Run = 30
DOCKED: USER    DPF = ligand_dock.biased.dpf
DOCKED: USER  
DOCKED: USER    Estimated Free Energy of Binding    =  -10.78 kcal/mol  [=(1)+(2)+(3)-(4)]
DOCKED: USER    Estimated Inhibition Constant, Ki   =   12.48 nM (nanomolar)  [Temperature = 298.15 K]
DOCKED: USER    
DOCKED: USER    (1) Final Intermolecular Energy     =  -12.87 kcal/mol
DOCKED: USER        vdW + Hbond + desolv Energy     =  -12.87 kcal/mol
DOCKED: USER        Electrostatic Energy            =   +0.00 kcal/mol
DOCKED: USER    (2) Final Total Internal Energy     =   -1.73 kcal/mol
DOCKED: USER    (3) Torsional Free Energy           =   +2.09 kcal/mol
DOCKED: USER    (4) Unbound System's Energy  [=(2)] =   -1.73 kcal/mol
DOCKED: USER    
DOCKED: USER    
DOCKED: USER    NEWDPF move ligand.pdbqt
DOCKED: USER    NEWDPF about 1.174000 0.164000 -0.352000
DOCKED: USER    NEWDPF tran0 26.421521 -15.618372 -0.398101
DOCKED: USER    NEWDPF quaternion0 -0.206221 0.970582 0.123668 -0.012257
DOCKED: USER    NEWDPF axisangle0 -0.206237 0.970655 0.123677 -178.595392
DOCKED: USER    NEWDPF quat0 -0.206237 0.970655 0.123677 -178.595392
DOCKED: USER    NEWDPF dihe0 14.67 -174.89 168.72 -57.30 -125.54 -33.65 -65.31 
DOCKED: USER  keepresnum = 1 
DOCKED: USER  
DOCKED: REMARK  Name = 
DOCKED: REMARK  11 active torsions:
DOCKED: REMARK  status: ('A' for Active; 'I' for Inactive)
DOCKED: REMARK    1  A    between atoms: C_1  and  N_2
DOCKED: REMARK    2  A    between atoms: N_2  and  C_3
DOCKED: REMARK    3  A    between atoms: N_2  and  C_22
DOCKED: REMARK    4  A    between atoms: C_6  and  C_9
DOCKED: REMARK    5  A    between atoms: C_9  and  C_10
DOCKED: REMARK    6  A    between atoms: C_10  and  C_11
DOCKED: REMARK    7  A    between atoms: C_10  and  C_20
DOCKED: REMARK    8  A    between atoms: C_12  and  C_13
DOCKED: REMARK    9  A    between atoms: C_12  and  C_19
DOCKED: REMARK   10  A    between atoms: C_14  and  C_15
DOCKED: REMARK   11  A    between atoms: N_16  and  O_17
DOCKED: REMARK                            x       y       z     vdW  Elec       q    Type
DOCKED: REMARK                         _______ _______ _______ _____ _____    ______ ____
DOCKED: USER                              x       y       z     vdW  Elec       q    Type
DOCKED: USER                           _______ _______ _______ _____ _____    ______ ____
DOCKED: ROOT
DOCKED: ATOM      1  C   UNL     1      26.833 -15.557  -2.278 -0.38 -0.00    +0.000 C 
DOCKED: ATOM      2  C   UNL     1      26.902 -15.414  -3.802 -0.44 -0.00    +0.000 C 
DOCKED: ENDROOT
DOCKED: BRANCH   1   3
DOCKED: ATOM      3  C   UNL     1      25.441 -15.972  -1.849 -0.55 -0.00    +0.000 C 
DOCKED: ATOM      4  C   UNL     1      25.168 -17.049  -1.083 -0.65 -0.00    +0.000 C 
DOCKED: ATOM      5  C   UNL     1      26.260 -17.971  -0.587 -0.61 -0.00    +0.000 C 
DOCKED: BRANCH   4   6
DOCKED: ATOM      6  C   UNL     1      23.743 -17.350  -0.790 -0.73 -0.00    +0.000 C 
DOCKED: ATOM      7  C   UNL     1      23.037 -18.275  -1.456 -0.72 -0.00    +0.000 C 
DOCKED: BRANCH   7   8
DOCKED: ATOM      8  C   UNL     1      21.619 -18.580  -1.172 -0.68 -0.00    +0.000 C 
DOCKED: ATOM      9  N   UNL     1      20.928 -19.669  -1.800 -0.71 -0.00    +0.000 N 
DOCKED: ATOM     10  O   UNL     1      21.009 -17.869  -0.330 -1.93 +0.00    +0.000 OA
DOCKED: ATOM     11  H   UNL     1      21.421 -20.292  -2.382 -0.55 -0.00    +0.000 HD
DOCKED: BRANCH   9  12
DOCKED: ATOM     12  O   UNL     1      19.601 -19.842  -1.595 -1.58 -0.00    +0.000 OA
DOCKED: ATOM     13  H   UNL     1      19.227 -19.037  -1.203 -0.36 -0.00    +0.000 HD
DOCKED: ENDBRANCH   9  12
DOCKED: ENDBRANCH   7   8
DOCKED: ENDBRANCH   4   6
DOCKED: ENDBRANCH   1   3
DOCKED: BRANCH   1  14
DOCKED: ATOM     14  C   UNL     1      27.221 -14.247  -1.628 -0.25 -0.00    +0.000 C 
DOCKED: ATOM     15  O   UNL     1      27.286 -13.209  -2.344 -0.19 -0.00    +0.000 OA
DOCKED: BRANCH  14  19
DOCKED: ATOM     16  C   UNL     1      28.212 -13.970   2.573 -0.28 -0.00    +0.000 A 
DOCKED: ATOM     17  C   UNL     1      29.129 -14.488   1.637 -0.14 -0.00    +0.000 A 
DOCKED: ATOM     18  C   UNL     1      28.800 -14.577   0.282 -0.16 -0.00    +0.000 A 
DOCKED: ATOM     19  C   UNL     1      27.546 -14.146  -0.181 -0.21 -0.00    +0.000 A 
DOCKED: ATOM     20  C   UNL     1      26.623 -13.638   0.749 -0.26 -0.00    +0.000 A 
DOCKED: ATOM     21  C   UNL     1      26.951 -13.549   2.104 -0.23 -0.00    +0.000 A 
DOCKED: BRANCH  16  23
DOCKED: ATOM     22  C   UNL     1      29.705 -14.608   4.521 -0.38 -0.00    +0.000 C 
DOCKED: ATOM     23  N   UNL     1      28.554 -13.875   3.980 -0.38 -0.00    +0.000 N 
DOCKED: ATOM     24  C   UNL     1      27.755 -13.042   4.888 -0.49 -0.00    +0.000 C 
DOCKED: ENDBRANCH  16  23
DOCKED: ENDBRANCH  14  19
DOCKED: ENDBRANCH   1  14
DOCKED: TORSDOF 7
DOCKED: TER
DOCKED: ENDMDL
________________________________________________________________________________


	BEGINNING GENETIC ALGORITHM DOCKING 31 of 100
Run: 31 Seed: 780107523 1734447060 [ Run 31 of 100 GA/GALS ]
Beginning LAMARCKIAN GENETIC ALGORITHM (LGA), with a maximum of 2500000 energy evaluations.

Final-Value: -14.629


	FINAL GENETIC ALGORITHM DOCKED STATE
	_______________________________________________


Detailed state:  trans 26.103 -15.862 -0.711 quatxyzw 0.288563 -0.941492 -0.149169 -0.089854 center 1.174 0.164 -0.352 ntor 7 -9.0913 138.6819 -59.3240 -140.4740 -146.0099 -16.3822 -76.2971
State:	 26.103 -15.862  -0.711   0.290 -0.945 -0.150 -169.690     -9.09  138.68  -59.32 -140.47 -146.01  -16.38  -76.30

DOCKED: MODEL       31
DOCKED: USER    Run = 31
DOCKED: USER    DPF = ligand_dock.biased.dpf
DOCKED: USER  
DOCKED: USER    Estimated Free Energy of Binding    =  -10.62 kcal/mol  [=(1)+(2)+(3)-(4)]
DOCKED: USER    Estimated Inhibition Constant, Ki   =   16.48 nM (nanomolar)  [Temperature = 298.15 K]
DOCKED: USER    
DOCKED: USER    (1) Final Intermolecular Energy     =  -12.71 kcal/mol
DOCKED: USER        vdW + Hbond + desolv Energy     =  -12.71 kcal/mol
DOCKED: USER        Electrostatic Energy            =   +0.00 kcal/mol
DOCKED: USER    (2) Final Total Internal Energy     =   -1.92 kcal/mol
DOCKED: USER    (3) Torsional Free Energy           =   +2.09 kcal/mol
DOCKED: USER    (4) Unbound System's Energy  [=(2)] =   -1.92 kcal/mol
DOCKED: USER    
DOCKED: USER    
DOCKED: USER    NEWDPF move ligand.pdbqt
DOCKED: USER    NEWDPF about 1.174000 0.164000 -0.352000
DOCKED: USER    NEWDPF tran0 26.102757 -15.862010 -0.711432
DOCKED: USER    NEWDPF quaternion0 0.288563 -0.941492 -0.149169 -0.089854
DOCKED: USER    NEWDPF axisangle0 0.289735 -0.945315 -0.149775 -169.689613
DOCKED: USER    NEWDPF quat0 0.289735 -0.945315 -0.149775 -169.689613
DOCKED: USER    NEWDPF dihe0 -9.09 138.68 -59.32 -140.47 -146.01 -16.38 -76.30 
DOCKED: USER  keepresnum = 1 
DOCKED: USER  
DOCKED: REMARK  Name = 
DOCKED: REMARK  11 active torsions:
DOCKED: REMARK  status: ('A' for Active; 'I' for Inactive)
DOCKED: REMARK    1  A    between atoms: C_1  and  N_2
DOCKED: REMARK    2  A    between atoms: N_2  and  C_3
DOCKED: REMARK    3  A    between atoms: N_2  and  C_22
DOCKED: REMARK    4  A    between atoms: C_6  and  C_9
DOCKED: REMARK    5  A    between atoms: C_9  and  C_10
DOCKED: REMARK    6  A    between atoms: C_10  and  C_11
DOCKED: REMARK    7  A    between atoms: C_10  and  C_20
DOCKED: REMARK    8  A    between atoms: C_12  and  C_13
DOCKED: REMARK    9  A    between atoms: C_12  and  C_19
DOCKED: REMARK   10  A    between atoms: C_14  and  C_15
DOCKED: REMARK   11  A    between atoms: N_16  and  O_17
DOCKED: REMARK                            x       y       z     vdW  Elec       q    Type
DOCKED: REMARK                         _______ _______ _______ _____ _____    ______ ____
DOCKED: USER                              x       y       z     vdW  Elec       q    Type
DOCKED: USER                           _______ _______ _______ _____ _____    ______ ____
DOCKED: ROOT
DOCKED: ATOM      1  C   UNL     1      26.135 -15.733  -2.633 -0.49 -0.00    +0.000 C 
DOCKED: ATOM      2  C   UNL     1      25.888 -15.588  -4.138 -0.60 -0.00    +0.000 C 
DOCKED: ENDROOT
DOCKED: BRANCH   1   3
DOCKED: ATOM      3  C   UNL     1      24.956 -16.411  -1.966 -0.58 -0.00    +0.000 C 
DOCKED: ATOM      4  C   UNL     1      25.058 -17.292  -0.949 -0.67 -0.00    +0.000 C 
DOCKED: ATOM      5  C   UNL     1      26.399 -17.702  -0.382 -0.61 -0.00    +0.000 C 
DOCKED: BRANCH   4   6
DOCKED: ATOM      6  C   UNL     1      23.806 -17.909  -0.437 -0.77 -0.00    +0.000 C 
DOCKED: ATOM      7  C   UNL     1      22.648 -17.886  -1.113 -0.72 -0.00    +0.000 C 
DOCKED: BRANCH   7   8
DOCKED: ATOM      8  C   UNL     1      21.400 -18.497  -0.612 -0.84 -0.00    +0.000 C 
DOCKED: ATOM      9  N   UNL     1      21.380 -19.770   0.047 -0.60 -0.00    +0.000 N 
DOCKED: ATOM     10  O   UNL     1      20.321 -17.860  -0.752 -2.23 -0.00    +0.000 OA
DOCKED: ATOM     11  H   UNL     1      22.226 -20.230   0.252 -0.54 -0.00    +0.000 HD
DOCKED: BRANCH   9  12
DOCKED: ATOM     12  O   UNL     1      20.200 -20.341   0.388 -0.79 -0.00    +0.000 OA
DOCKED: ATOM     13  H   UNL     1      19.481 -19.706   0.249 -0.02 -0.00    +0.000 HD
DOCKED: ENDBRANCH   9  12
DOCKED: ENDBRANCH   7   8
DOCKED: ENDBRANCH   4   6
DOCKED: ENDBRANCH   1   3
DOCKED: BRANCH   1  14
DOCKED: ATOM     14  C   UNL     1      26.376 -14.368  -2.025 -0.33 -0.00    +0.000 C 
DOCKED: ATOM     15  O   UNL     1      26.304 -13.350  -2.769 -0.27 -0.00    +0.000 OA
DOCKED: BRANCH  14  19
DOCKED: ATOM     16  C   UNL     1      27.389 -13.871   2.150 -0.27 -0.00    +0.000 A 
DOCKED: ATOM     17  C   UNL     1      28.169 -14.679   1.299 -0.19 -0.00    +0.000 A 
DOCKED: ATOM     18  C   UNL     1      27.832 -14.836  -0.048 -0.23 -0.00    +0.000 A 
DOCKED: ATOM     19  C   UNL     1      26.710 -14.187  -0.588 -0.26 -0.00    +0.000 A 
DOCKED: ATOM     20  C   UNL     1      25.922 -13.388   0.259 -0.20 -0.00    +0.000 A 
DOCKED: ATOM     21  C   UNL     1      26.257 -13.230   1.606 -0.16 -0.00    +0.000 A 
DOCKED: BRANCH  16  23
DOCKED: ATOM     22  C   UNL     1      27.762 -14.859   4.456 -0.60 -0.00    +0.000 C 
DOCKED: ATOM     23  N   UNL     1      27.739 -13.705   3.549 -0.41 -0.00    +0.000 N 
DOCKED: ATOM     24  C   UNL     1      28.076 -12.379   4.082 -0.34 -0.00    +0.000 C 
DOCKED: ENDBRANCH  16  23
DOCKED: ENDBRANCH  14  19
DOCKED: ENDBRANCH   1  14
DOCKED: TORSDOF 7
DOCKED: TER
DOCKED: ENDMDL
________________________________________________________________________________


	BEGINNING GENETIC ALGORITHM DOCKING 32 of 100
Run: 32 Seed: 2005027370 65414154 [ Run 32 of 100 GA/GALS ]
Beginning LAMARCKIAN GENETIC ALGORITHM (LGA), with a maximum of 2500000 energy evaluations.

Final-Value: -14.378


	FINAL GENETIC ALGORITHM DOCKED STATE
	_______________________________________________


Detailed state:  trans 26.210 -15.606 -0.759 quatxyzw 0.243245 -0.956125 -0.157932 -0.041405 center 1.174 0.164 -0.352 ntor 7 18.7242 177.6971 169.3437 -85.1314 18.6054 -14.3328 -75.7311
State:	 26.210 -15.606  -0.759   0.243 -0.957 -0.158 -175.254     18.72  177.70  169.34  -85.13   18.61  -14.33  -75.73

DOCKED: MODEL       32
DOCKED: USER    Run = 32
DOCKED: USER    DPF = ligand_dock.biased.dpf
DOCKED: USER  
DOCKED: USER    Estimated Free Energy of Binding    =  -10.70 kcal/mol  [=(1)+(2)+(3)-(4)]
DOCKED: USER    Estimated Inhibition Constant, Ki   =   14.35 nM (nanomolar)  [Temperature = 298.15 K]
DOCKED: USER    
DOCKED: USER    (1) Final Intermolecular Energy     =  -12.79 kcal/mol
DOCKED: USER        vdW + Hbond + desolv Energy     =  -12.79 kcal/mol
DOCKED: USER        Electrostatic Energy            =   +0.00 kcal/mol
DOCKED: USER    (2) Final Total Internal Energy     =   -1.59 kcal/mol
DOCKED: USER    (3) Torsional Free Energy           =   +2.09 kcal/mol
DOCKED: USER    (4) Unbound System's Energy  [=(2)] =   -1.59 kcal/mol
DOCKED: USER    
DOCKED: USER    
DOCKED: USER    NEWDPF move ligand.pdbqt
DOCKED: USER    NEWDPF about 1.174000 0.164000 -0.352000
DOCKED: USER    NEWDPF tran0 26.209957 -15.606422 -0.759074
DOCKED: USER    NEWDPF quaternion0 0.243245 -0.956125 -0.157932 -0.041405
DOCKED: USER    NEWDPF axisangle0 0.243454 -0.956946 -0.158068 -175.254009
DOCKED: USER    NEWDPF quat0 0.243454 -0.956946 -0.158068 -175.254009
DOCKED: USER    NEWDPF dihe0 18.72 177.70 169.34 -85.13 18.61 -14.33 -75.73 
DOCKED: USER  keepresnum = 1 
DOCKED: USER  
DOCKED: REMARK  Name = 
DOCKED: REMARK  11 active torsions:
DOCKED: REMARK  status: ('A' for Active; 'I' for Inactive)
DOCKED: REMARK    1  A    between atoms: C_1  and  N_2
DOCKED: REMARK    2  A    between atoms: N_2  and  C_3
DOCKED: REMARK    3  A    between atoms: N_2  and  C_22
DOCKED: REMARK    4  A    between atoms: C_6  and  C_9
DOCKED: REMARK    5  A    between atoms: C_9  and  C_10
DOCKED: REMARK    6  A    between atoms: C_10  and  C_11
DOCKED: REMARK    7  A    between atoms: C_10  and  C_20
DOCKED: REMARK    8  A    between atoms: C_12  and  C_13
DOCKED: REMARK    9  A    between atoms: C_12  and  C_19
DOCKED: REMARK   10  A    between atoms: C_14  and  C_15
DOCKED: REMARK   11  A    between atoms: N_16  and  O_17
DOCKED: REMARK                            x       y       z     vdW  Elec       q    Type
DOCKED: REMARK                         _______ _______ _______ _____ _____    ______ ____
DOCKED: USER                              x       y       z     vdW  Elec       q    Type
DOCKED: USER                           _______ _______ _______ _____ _____    ______ ____
DOCKED: ROOT
DOCKED: ATOM      1  C   UNL     1      26.404 -15.428  -2.667 -0.45 -0.00    +0.000 C 
DOCKED: ATOM      2  C   UNL     1      26.291 -15.215  -4.180 -0.56 -0.00    +0.000 C 
DOCKED: ENDROOT
DOCKED: BRANCH   1   3
DOCKED: ATOM      3  C   UNL     1      25.110 -15.990  -2.114 -0.55 -0.00    +0.000 C 
DOCKED: ATOM      4  C   UNL     1      25.036 -16.875  -1.098 -0.64 -0.00    +0.000 C 
DOCKED: ATOM      5  C   UNL     1      26.275 -17.410  -0.415 -0.60 -0.00    +0.000 C 
DOCKED: BRANCH   4   6
DOCKED: ATOM      6  C   UNL     1      23.691 -17.369  -0.704 -0.74 -0.00    +0.000 C 
DOCKED: ATOM      7  C   UNL     1      22.971 -18.214  -1.457 -0.69 -0.00    +0.000 C 
DOCKED: BRANCH   7   8
DOCKED: ATOM      8  C   UNL     1      21.633 -18.710  -1.074 -0.82 -0.00    +0.000 C 
DOCKED: ATOM      9  N   UNL     1      20.951 -19.729  -1.818 -0.70 -0.00    +0.000 N 
DOCKED: ATOM     10  O   UNL     1      21.087 -18.232  -0.044 -1.55 -0.00    +0.000 OA
DOCKED: ATOM     11  H   UNL     1      21.408 -20.181  -2.564 -0.59 -0.00    +0.000 HD
DOCKED: BRANCH   9  12
DOCKED: ATOM     12  O   UNL     1      19.682 -20.072  -1.497 -1.48 -0.00    +0.000 OA
DOCKED: ATOM     13  H   UNL     1      19.280 -19.366  -0.967 -0.20 -0.00    +0.000 HD
DOCKED: ENDBRANCH   9  12
DOCKED: ENDBRANCH   7   8
DOCKED: ENDBRANCH   4   6
DOCKED: ENDBRANCH   1   3
DOCKED: BRANCH   1  14
DOCKED: ATOM     14  C   UNL     1      26.743 -14.116  -1.994 -0.28 -0.00    +0.000 C 
DOCKED: ATOM     15  O   UNL     1      26.830 -13.074  -2.703 -0.23 -0.00    +0.000 OA
DOCKED: BRANCH  14  19
DOCKED: ATOM     16  C   UNL     1      27.452 -13.784   2.259 -0.29 -0.00    +0.000 A 
DOCKED: ATOM     17  C   UNL     1      26.692 -12.821   1.567 -0.31 -0.00    +0.000 A 
DOCKED: ATOM     18  C   UNL     1      26.471 -12.934   0.192 -0.23 -0.00    +0.000 A 
DOCKED: ATOM     19  C   UNL     1      26.996 -14.016  -0.533 -0.24 -0.00    +0.000 A 
DOCKED: ATOM     20  C   UNL     1      27.764 -14.975   0.150 -0.24 -0.00    +0.000 A 
DOCKED: ATOM     21  C   UNL     1      27.987 -14.862   1.525 -0.12 -0.00    +0.000 A 
DOCKED: BRANCH  16  23
DOCKED: ATOM     22  C   UNL     1      27.583 -12.366   4.358 -0.28 +0.00    +0.000 C 
DOCKED: ATOM     23  N   UNL     1      27.681 -13.669   3.688 -0.42 -0.00    +0.000 N 
DOCKED: ATOM     24  C   UNL     1      28.014 -14.854   4.489 -0.61 -0.00    +0.000 C 
DOCKED: ENDBRANCH  16  23
DOCKED: ENDBRANCH  14  19
DOCKED: ENDBRANCH   1  14
DOCKED: TORSDOF 7
DOCKED: TER
DOCKED: ENDMDL
________________________________________________________________________________


	BEGINNING GENETIC ALGORITHM DOCKING 33 of 100
Run: 33 Seed: 1392862557 75941964 [ Run 33 of 100 GA/GALS ]
Beginning LAMARCKIAN GENETIC ALGORITHM (LGA), with a maximum of 2500000 energy evaluations.

Final-Value: -13.424


	FINAL GENETIC ALGORITHM DOCKED STATE
	_______________________________________________


Detailed state:  trans 24.667 -14.331 -2.541 quatxyzw -0.356677 0.668697 -0.644467 -0.101434 center 1.174 0.164 -0.352 ntor 7 40.8833 -135.2795 165.9974 -7.7538 -114.4317 -112.2890 60.3587
State:	 24.667 -14.331  -2.541  -0.359  0.672 -0.648 -168.357     40.88 -135.28  166.00   -7.75 -114.43 -112.29   60.36

DOCKED: MODEL       33
DOCKED: USER    Run = 33
DOCKED: USER    DPF = ligand_dock.biased.dpf
DOCKED: USER  
DOCKED: USER    Estimated Free Energy of Binding    =  -10.38 kcal/mol  [=(1)+(2)+(3)-(4)]
DOCKED: USER    Estimated Inhibition Constant, Ki   =   24.54 nM (nanomolar)  [Temperature = 298.15 K]
DOCKED: USER    
DOCKED: USER    (1) Final Intermolecular Energy     =  -12.47 kcal/mol
DOCKED: USER        vdW + Hbond + desolv Energy     =  -12.47 kcal/mol
DOCKED: USER        Electrostatic Energy            =   +0.00 kcal/mol
DOCKED: USER    (2) Final Total Internal Energy     =   -0.95 kcal/mol
DOCKED: USER    (3) Torsional Free Energy           =   +2.09 kcal/mol
DOCKED: USER    (4) Unbound System's Energy  [=(2)] =   -0.95 kcal/mol
DOCKED: USER    
DOCKED: USER    
DOCKED: USER    NEWDPF move ligand.pdbqt
DOCKED: USER    NEWDPF about 1.174000 0.164000 -0.352000
DOCKED: USER    NEWDPF tran0 24.667283 -14.331367 -2.541047
DOCKED: USER    NEWDPF quaternion0 -0.356677 0.668697 -0.644467 -0.101434
DOCKED: USER    NEWDPF axisangle0 -0.358526 0.672164 -0.647808 -168.356552
DOCKED: USER    NEWDPF quat0 -0.358526 0.672164 -0.647808 -168.356552
DOCKED: USER    NEWDPF dihe0 40.88 -135.28 166.00 -7.75 -114.43 -112.29 60.36 
DOCKED: USER  keepresnum = 1 
DOCKED: USER  
DOCKED: REMARK  Name = 
DOCKED: REMARK  11 active torsions:
DOCKED: REMARK  status: ('A' for Active; 'I' for Inactive)
DOCKED: REMARK    1  A    between atoms: C_1  and  N_2
DOCKED: REMARK    2  A    between atoms: N_2  and  C_3
DOCKED: REMARK    3  A    between atoms: N_2  and  C_22
DOCKED: REMARK    4  A    between atoms: C_6  and  C_9
DOCKED: REMARK    5  A    between atoms: C_9  and  C_10
DOCKED: REMARK    6  A    between atoms: C_10  and  C_11
DOCKED: REMARK    7  A    between atoms: C_10  and  C_20
DOCKED: REMARK    8  A    between atoms: C_12  and  C_13
DOCKED: REMARK    9  A    between atoms: C_12  and  C_19
DOCKED: REMARK   10  A    between atoms: C_14  and  C_15
DOCKED: REMARK   11  A    between atoms: N_16  and  O_17
DOCKED: REMARK                            x       y       z     vdW  Elec       q    Type
DOCKED: REMARK                         _______ _______ _______ _____ _____    ______ ____
DOCKED: USER                              x       y       z     vdW  Elec       q    Type
DOCKED: USER                           _______ _______ _______ _____ _____    ______ ____
DOCKED: ROOT
DOCKED: ATOM      1  C   UNL     1      26.135 -15.568  -2.379 -0.47 -0.00    +0.000 C 
DOCKED: ATOM      2  C   UNL     1      27.128 -16.734  -2.364 -0.21 -0.00    +0.000 C 
DOCKED: ENDROOT
DOCKED: BRANCH   1   3
DOCKED: ATOM      3  C   UNL     1      24.727 -16.069  -2.129 -0.43 -0.00    +0.000 C 
DOCKED: ATOM      4  C   UNL     1      24.388 -16.929  -1.146 -0.67 -0.00    +0.000 C 
DOCKED: ATOM      5  C   UNL     1      25.416 -17.497  -0.193 -0.56 -0.00    +0.000 C 
DOCKED: BRANCH   4   6
DOCKED: ATOM      6  C   UNL     1      22.969 -17.364  -1.064 -0.67 -0.00    +0.000 C 
DOCKED: ATOM      7  C   UNL     1      22.597 -18.570  -0.611 -0.84 -0.00    +0.000 C 
DOCKED: BRANCH   7   8
DOCKED: ATOM      8  C   UNL     1      21.189 -19.010  -0.526 -0.87 -0.00    +0.000 C 
DOCKED: ATOM      9  N   UNL     1      20.814 -20.274   0.041 -0.60 -0.00    +0.000 N 
DOCKED: ATOM     10  O   UNL     1      20.290 -18.235  -0.947 -2.12 -0.00    +0.000 OA
DOCKED: ATOM     11  H   UNL     1      21.496 -20.844   0.464 -0.60 -0.00    +0.000 HD
DOCKED: BRANCH   9  12
DOCKED: ATOM     12  O   UNL     1      19.524 -20.683  -0.004 -0.78 -0.00    +0.000 OA
DOCKED: ATOM     13  H   UNL     1      19.146 -20.466  -0.871 -0.45 -0.00    +0.000 HD
DOCKED: ENDBRANCH   9  12
DOCKED: ENDBRANCH   7   8
DOCKED: ENDBRANCH   4   6
DOCKED: ENDBRANCH   1   3
DOCKED: BRANCH   1  14
DOCKED: ATOM     14  C   UNL     1      26.214 -14.852  -3.710 -0.51 -0.00    +0.000 C 
DOCKED: ATOM     15  O   UNL     1      25.143 -14.473  -4.261 -1.02 -0.00    +0.000 OA
DOCKED: BRANCH  14  19
DOCKED: ATOM     16  C   UNL     1      29.971 -14.154  -5.735 -0.15 -0.00    +0.000 A 
DOCKED: ATOM     17  C   UNL     1      29.240 -15.341  -5.939 -0.33 -0.00    +0.000 A 
DOCKED: ATOM     18  C   UNL     1      28.028 -15.560  -5.278 -0.30 -0.00    +0.000 A 
DOCKED: ATOM     19  C   UNL     1      27.507 -14.598  -4.398 -0.33 -0.00    +0.000 A 
DOCKED: ATOM     20  C   UNL     1      28.237 -13.416  -4.183 -0.15 -0.00    +0.000 A 
DOCKED: ATOM     21  C   UNL     1      29.449 -13.196  -4.843 -0.09 -0.00    +0.000 A 
DOCKED: BRANCH  16  23
DOCKED: ATOM     22  C   UNL     1      31.523 -14.605  -7.690 -0.19 -0.00    +0.000 C 
DOCKED: ATOM     23  N   UNL     1      31.229 -13.925  -6.423 -0.09 -0.00    +0.000 N 
DOCKED: ATOM     24  C   UNL     1      32.229 -13.006  -5.863 -0.03 -0.00    +0.000 C 
DOCKED: ENDBRANCH  16  23
DOCKED: ENDBRANCH  14  19
DOCKED: ENDBRANCH   1  14
DOCKED: TORSDOF 7
DOCKED: TER
DOCKED: ENDMDL
________________________________________________________________________________


	BEGINNING GENETIC ALGORITHM DOCKING 34 of 100
Run: 34 Seed: 14062165 1823355355 [ Run 34 of 100 GA/GALS ]
Beginning LAMARCKIAN GENETIC ALGORITHM (LGA), with a maximum of 2500000 energy evaluations.

Final-Value: -15.299


	FINAL GENETIC ALGORITHM DOCKED STATE
	_______________________________________________


Detailed state:  trans 25.802 -15.282 0.135 quatxyzw -0.240135 0.932908 -0.089864 -0.252867 center 1.174 0.164 -0.352 ntor 7 -4.7764 -180.0000 72.7206 56.4919 -171.8925 -60.8109 -35.4999
State:	 25.802 -15.282   0.135  -0.248  0.964 -0.093 -150.705     -4.78 -180.00   72.72   56.49 -171.89  -60.81  -35.50

DOCKED: MODEL       34
DOCKED: USER    Run = 34
DOCKED: USER    DPF = ligand_dock.biased.dpf
DOCKED: USER  
DOCKED: USER    Estimated Free Energy of Binding    =  -11.60 kcal/mol  [=(1)+(2)+(3)-(4)]
DOCKED: USER    Estimated Inhibition Constant, Ki   =    3.14 nM (nanomolar)  [Temperature = 298.15 K]
DOCKED: USER    
DOCKED: USER    (1) Final Intermolecular Energy     =  -13.69 kcal/mol
DOCKED: USER        vdW + Hbond + desolv Energy     =  -13.69 kcal/mol
DOCKED: USER        Electrostatic Energy            =   +0.00 kcal/mol
DOCKED: USER    (2) Final Total Internal Energy     =   -1.61 kcal/mol
DOCKED: USER    (3) Torsional Free Energy           =   +2.09 kcal/mol
DOCKED: USER    (4) Unbound System's Energy  [=(2)] =   -1.61 kcal/mol
DOCKED: USER    
DOCKED: USER    
DOCKED: USER    NEWDPF move ligand.pdbqt
DOCKED: USER    NEWDPF about 1.174000 0.164000 -0.352000
DOCKED: USER    NEWDPF tran0 25.801701 -15.281523 0.135113
DOCKED: USER    NEWDPF quaternion0 -0.240135 0.932908 -0.089864 -0.252867
DOCKED: USER    NEWDPF axisangle0 -0.248202 0.964245 -0.092883 -150.705497
DOCKED: USER    NEWDPF quat0 -0.248202 0.964245 -0.092883 -150.705497
DOCKED: USER    NEWDPF dihe0 -4.78 -180.00 72.72 56.49 -171.89 -60.81 -35.50 
DOCKED: USER  keepresnum = 1 
DOCKED: USER  
DOCKED: REMARK  Name = 
DOCKED: REMARK  11 active torsions:
DOCKED: REMARK  status: ('A' for Active; 'I' for Inactive)
DOCKED: REMARK    1  A    between atoms: C_1  and  N_2
DOCKED: REMARK    2  A    between atoms: N_2  and  C_3
DOCKED: REMARK    3  A    between atoms: N_2  and  C_22
DOCKED: REMARK    4  A    between atoms: C_6  and  C_9
DOCKED: REMARK    5  A    between atoms: C_9  and  C_10
DOCKED: REMARK    6  A    between atoms: C_10  and  C_11
DOCKED: REMARK    7  A    between atoms: C_10  and  C_20
DOCKED: REMARK    8  A    between atoms: C_12  and  C_13
DOCKED: REMARK    9  A    between atoms: C_12  and  C_19
DOCKED: REMARK   10  A    between atoms: C_14  and  C_15
DOCKED: REMARK   11  A    between atoms: N_16  and  O_17
DOCKED: REMARK                            x       y       z     vdW  Elec       q    Type
DOCKED: REMARK                         _______ _______ _______ _____ _____    ______ ____
DOCKED: USER                              x       y       z     vdW  Elec       q    Type
DOCKED: USER                           _______ _______ _______ _____ _____    ______ ____
DOCKED: ROOT
DOCKED: ATOM      1  C   UNL     1      27.162 -15.719  -1.156 -0.36 -0.00    +0.000 C 
DOCKED: ATOM      2  C   UNL     1      28.048 -16.011  -2.371 -0.29 -0.00    +0.000 C 
DOCKED: ENDROOT
DOCKED: BRANCH   1   3
DOCKED: ATOM      3  C   UNL     1      25.731 -16.133  -1.434 -0.53 -0.00    +0.000 C 
DOCKED: ATOM      4  C   UNL     1      25.182 -17.296  -1.025 -0.66 -0.00    +0.000 C 
DOCKED: ATOM      5  C   UNL     1      25.975 -18.322  -0.246 -0.65 -0.00    +0.000 C 
DOCKED: BRANCH   4   6
DOCKED: ATOM      6  C   UNL     1      23.778 -17.577  -1.422 -0.71 -0.00    +0.000 C 
DOCKED: ATOM      7  C   UNL     1      22.922 -18.265  -0.651 -0.83 -0.00    +0.000 C 
DOCKED: BRANCH   7   8
DOCKED: ATOM      8  C   UNL     1      21.524 -18.549  -1.038 -0.79 -0.00    +0.000 C 
DOCKED: ATOM      9  N   UNL     1      21.152 -19.737  -1.751 -0.60 -0.00    +0.000 N 
DOCKED: ATOM     10  O   UNL     1      20.630 -17.726  -0.706 -2.25 -0.00    +0.000 OA
DOCKED: ATOM     11  H   UNL     1      21.824 -20.435  -1.926 -0.44 -0.00    +0.000 HD
DOCKED: BRANCH   9  12
DOCKED: ATOM     12  O   UNL     1      19.879 -19.901  -2.182 -1.84 -0.00    +0.000 OA
DOCKED: ATOM     13  H   UNL     1      19.333 -19.165  -1.865 -0.42 -0.00    +0.000 HD
DOCKED: ENDBRANCH   9  12
DOCKED: ENDBRANCH   7   8
DOCKED: ENDBRANCH   4   6
DOCKED: ENDBRANCH   1   3
DOCKED: BRANCH   1  14
DOCKED: ATOM     14  C   UNL     1      27.231 -14.245  -0.820 -0.26 -0.00    +0.000 C 
DOCKED: ATOM     15  O   UNL     1      27.185 -13.404  -1.762 -0.20 -0.00    +0.000 OA
DOCKED: BRANCH  14  19
DOCKED: ATOM     16  C   UNL     1      27.663 -12.860   3.254 -0.30 -0.00    +0.000 A 
DOCKED: ATOM     17  C   UNL     1      28.215 -14.087   2.836 -0.31 -0.00    +0.000 A 
DOCKED: ATOM     18  C   UNL     1      28.068 -14.528   1.518 -0.22 -0.00    +0.000 A 
DOCKED: ATOM     19  C   UNL     1      27.371 -13.755   0.576 -0.24 -0.00    +0.000 A 
DOCKED: ATOM     20  C   UNL     1      26.808 -12.535   0.990 -0.27 -0.00    +0.000 A 
DOCKED: ATOM     21  C   UNL     1      26.954 -12.093   2.307 -0.29 +0.00    +0.000 A 
DOCKED: BRANCH  16  23
DOCKED: ATOM     22  C   UNL     1      28.138 -13.345   5.698 -0.46 -0.00    +0.000 C 
DOCKED: ATOM     23  N   UNL     1      27.817 -12.399   4.622 -0.37 +0.00    +0.000 N 
DOCKED: ATOM     24  C   UNL     1      27.656 -10.978   4.953 -0.37 +0.00    +0.000 C 
DOCKED: ENDBRANCH  16  23
DOCKED: ENDBRANCH  14  19
DOCKED: ENDBRANCH   1  14
DOCKED: TORSDOF 7
DOCKED: TER
DOCKED: ENDMDL
________________________________________________________________________________


	BEGINNING GENETIC ALGORITHM DOCKING 35 of 100
Run: 35 Seed: 178956548 1952259223 [ Run 35 of 100 GA/GALS ]
Beginning LAMARCKIAN GENETIC ALGORITHM (LGA), with a maximum of 2500000 energy evaluations.

Final-Value: -14.114


	FINAL GENETIC ALGORITHM DOCKED STATE
	_______________________________________________


Detailed state:  trans 25.402 -15.012 -2.534 quatxyzw -0.393804 0.627563 -0.649624 -0.170503 center 1.174 0.164 -0.352 ntor 7 8.2530 180.0000 -39.4439 146.4187 -128.6828 -106.9573 -46.1292
State:	 25.402 -15.012  -2.534  -0.400  0.637 -0.659 -160.366      8.25  180.00  -39.44  146.42 -128.68 -106.96  -46.13

DOCKED: MODEL       35
DOCKED: USER    Run = 35
DOCKED: USER    DPF = ligand_dock.biased.dpf
DOCKED: USER  
DOCKED: USER    Estimated Free Energy of Binding    =  -10.61 kcal/mol  [=(1)+(2)+(3)-(4)]
DOCKED: USER    Estimated Inhibition Constant, Ki   =   16.56 nM (nanomolar)  [Temperature = 298.15 K]
DOCKED: USER    
DOCKED: USER    (1) Final Intermolecular Energy     =  -12.70 kcal/mol
DOCKED: USER        vdW + Hbond + desolv Energy     =  -12.70 kcal/mol
DOCKED: USER        Electrostatic Energy            =   +0.00 kcal/mol
DOCKED: USER    (2) Final Total Internal Energy     =   -1.41 kcal/mol
DOCKED: USER    (3) Torsional Free Energy           =   +2.09 kcal/mol
DOCKED: USER    (4) Unbound System's Energy  [=(2)] =   -1.41 kcal/mol
DOCKED: USER    
DOCKED: USER    
DOCKED: USER    NEWDPF move ligand.pdbqt
DOCKED: USER    NEWDPF about 1.174000 0.164000 -0.352000
DOCKED: USER    NEWDPF tran0 25.402361 -15.012248 -2.534276
DOCKED: USER    NEWDPF quaternion0 -0.393804 0.627563 -0.649624 -0.170503
DOCKED: USER    NEWDPF axisangle0 -0.399656 0.636889 -0.659278 -160.365910
DOCKED: USER    NEWDPF quat0 -0.399656 0.636889 -0.659278 -160.365910
DOCKED: USER    NEWDPF dihe0 8.25 180.00 -39.44 146.42 -128.68 -106.96 -46.13 
DOCKED: USER  keepresnum = 1 
DOCKED: USER  
DOCKED: REMARK  Name = 
DOCKED: REMARK  11 active torsions:
DOCKED: REMARK  status: ('A' for Active; 'I' for Inactive)
DOCKED: REMARK    1  A    between atoms: C_1  and  N_2
DOCKED: REMARK    2  A    between atoms: N_2  and  C_3
DOCKED: REMARK    3  A    between atoms: N_2  and  C_22
DOCKED: REMARK    4  A    between atoms: C_6  and  C_9
DOCKED: REMARK    5  A    between atoms: C_9  and  C_10
DOCKED: REMARK    6  A    between atoms: C_10  and  C_11
DOCKED: REMARK    7  A    between atoms: C_10  and  C_20
DOCKED: REMARK    8  A    between atoms: C_12  and  C_13
DOCKED: REMARK    9  A    between atoms: C_12  and  C_19
DOCKED: REMARK   10  A    between atoms: C_14  and  C_15
DOCKED: REMARK   11  A    between atoms: N_16  and  O_17
DOCKED: REMARK                            x       y       z     vdW  Elec       q    Type
DOCKED: REMARK                         _______ _______ _______ _____ _____    ______ ____
DOCKED: USER                              x       y       z     vdW  Elec       q    Type
DOCKED: USER                           _______ _______ _______ _____ _____    ______ ____
DOCKED: ROOT
DOCKED: ATOM      1  C   UNL     1      27.043 -15.984  -2.264 -0.38 -0.00    +0.000 C 
DOCKED: ATOM      2  C   UNL     1      28.213 -16.969  -2.168 -0.22 -0.00    +0.000 C 
DOCKED: ENDROOT
DOCKED: BRANCH   1   3
DOCKED: ATOM      3  C   UNL     1      25.726 -16.709  -2.080 -0.56 -0.00    +0.000 C 
DOCKED: ATOM      4  C   UNL     1      25.442 -17.523  -1.041 -0.66 -0.00    +0.000 C 
DOCKED: ATOM      5  C   UNL     1      26.450 -17.800   0.052 -0.58 -0.00    +0.000 C 
DOCKED: BRANCH   4   6
DOCKED: ATOM      6  C   UNL     1      24.119 -18.201  -1.031 -0.79 -0.00    +0.000 C 
DOCKED: ATOM      7  C   UNL     1      22.955 -17.538  -1.089 -0.71 -0.00    +0.000 C 
DOCKED: BRANCH   7   8
DOCKED: ATOM      8  C   UNL     1      21.636 -18.203  -1.079 -0.70 -0.00    +0.000 C 
DOCKED: ATOM      9  N   UNL     1      21.469 -19.578  -1.454 -0.64 -0.00    +0.000 N 
DOCKED: ATOM     10  O   UNL     1      20.631 -17.541  -0.707 -2.12 +0.00    +0.000 OA
DOCKED: ATOM     11  H   UNL     1      22.258 -20.133  -1.649 -0.41 -0.00    +0.000 HD
DOCKED: BRANCH   9  12
DOCKED: ATOM     12  O   UNL     1      20.228 -20.113  -1.539 -1.65 -0.00    +0.000 OA
DOCKED: ATOM     13  H   UNL     1      19.565 -19.411  -1.446 -0.18 -0.00    +0.000 HD
DOCKED: ENDBRANCH   9  12
DOCKED: ENDBRANCH   7   8
DOCKED: ENDBRANCH   4   6
DOCKED: ENDBRANCH   1   3
DOCKED: BRANCH   1  14
DOCKED: ATOM     14  C   UNL     1      27.079 -15.283  -3.605 -0.41 -0.00    +0.000 C 
DOCKED: ATOM     15  O   UNL     1      27.521 -15.912  -4.607 -0.58 -0.00    +0.000 OA
DOCKED: BRANCH  14  19
DOCKED: ATOM     16  C   UNL     1      25.816 -11.175  -4.084 -0.17 -0.00    +0.000 A 
DOCKED: ATOM     17  C   UNL     1      27.040 -11.497  -3.464 -0.14 -0.00    +0.000 A 
DOCKED: ATOM     18  C   UNL     1      27.439 -12.827  -3.310 -0.16 -0.00    +0.000 A 
DOCKED: ATOM     19  C   UNL     1      26.631 -13.877  -3.777 -0.33 -0.00    +0.000 A 
DOCKED: ATOM     20  C   UNL     1      25.404 -13.562  -4.387 -0.29 -0.00    +0.000 A 
DOCKED: ATOM     21  C   UNL     1      25.004 -12.233  -4.541 -0.21 -0.00    +0.000 A 
DOCKED: BRANCH  16  23
DOCKED: ATOM     22  C   UNL     1      25.981  -8.736  -3.409 -0.18 -0.00    +0.000 C 
DOCKED: ATOM     23  N   UNL     1      25.402  -9.793  -4.246 -0.26 -0.00    +0.000 N 
DOCKED: ATOM     24  C   UNL     1      24.397  -9.429  -5.253 -0.39 -0.00    +0.000 C 
DOCKED: ENDBRANCH  16  23
DOCKED: ENDBRANCH  14  19
DOCKED: ENDBRANCH   1  14
DOCKED: TORSDOF 7
DOCKED: TER
DOCKED: ENDMDL
________________________________________________________________________________


	BEGINNING GENETIC ALGORITHM DOCKING 36 of 100
Run: 36 Seed: 1430684395 1388518392 [ Run 36 of 100 GA/GALS ]
Beginning LAMARCKIAN GENETIC ALGORITHM (LGA), with a maximum of 2500000 energy evaluations.

Final-Value: -13.483


	FINAL GENETIC ALGORITHM DOCKED STATE
	_______________________________________________


Detailed state:  trans 25.343 -14.223 -1.745 quatxyzw 0.253269 -0.477755 0.790414 0.287837 center 1.174 0.164 -0.352 ntor 7 3.4068 137.7078 22.9856 154.2545 77.0929 158.6878 -65.8922
State:	 25.343 -14.223  -1.745   0.264 -0.499  0.825 146.543      3.41  137.71   22.99  154.25   77.09  158.69  -65.89

DOCKED: MODEL       36
DOCKED: USER    Run = 36
DOCKED: USER    DPF = ligand_dock.biased.dpf
DOCKED: USER  
DOCKED: USER    Estimated Free Energy of Binding    =  -10.05 kcal/mol  [=(1)+(2)+(3)-(4)]
DOCKED: USER    Estimated Inhibition Constant, Ki   =   43.20 nM (nanomolar)  [Temperature = 298.15 K]
DOCKED: USER    
DOCKED: USER    (1) Final Intermolecular Energy     =  -12.14 kcal/mol
DOCKED: USER        vdW + Hbond + desolv Energy     =  -12.14 kcal/mol
DOCKED: USER        Electrostatic Energy            =   +0.00 kcal/mol
DOCKED: USER    (2) Final Total Internal Energy     =   -1.35 kcal/mol
DOCKED: USER    (3) Torsional Free Energy           =   +2.09 kcal/mol
DOCKED: USER    (4) Unbound System's Energy  [=(2)] =   -1.35 kcal/mol
DOCKED: USER    
DOCKED: USER    
DOCKED: USER    NEWDPF move ligand.pdbqt
DOCKED: USER    NEWDPF about 1.174000 0.164000 -0.352000
DOCKED: USER    NEWDPF tran0 25.342578 -14.223347 -1.744983
DOCKED: USER    NEWDPF quaternion0 0.253269 -0.477755 0.790414 0.287837
DOCKED: USER    NEWDPF axisangle0 0.264461 -0.498867 0.825343 146.542951
DOCKED: USER    NEWDPF quat0 0.264461 -0.498867 0.825343 146.542951
DOCKED: USER    NEWDPF dihe0 3.41 137.71 22.99 154.25 77.09 158.69 -65.89 
DOCKED: USER  keepresnum = 1 
DOCKED: USER  
DOCKED: REMARK  Name = 
DOCKED: REMARK  11 active torsions:
DOCKED: REMARK  status: ('A' for Active; 'I' for Inactive)
DOCKED: REMARK    1  A    between atoms: C_1  and  N_2
DOCKED: REMARK    2  A    between atoms: N_2  and  C_3
DOCKED: REMARK    3  A    between atoms: N_2  and  C_22
DOCKED: REMARK    4  A    between atoms: C_6  and  C_9
DOCKED: REMARK    5  A    between atoms: C_9  and  C_10
DOCKED: REMARK    6  A    between atoms: C_10  and  C_11
DOCKED: REMARK    7  A    between atoms: C_10  and  C_20
DOCKED: REMARK    8  A    between atoms: C_12  and  C_13
DOCKED: REMARK    9  A    between atoms: C_12  and  C_19
DOCKED: REMARK   10  A    between atoms: C_14  and  C_15
DOCKED: REMARK   11  A    between atoms: N_16  and  O_17
DOCKED: REMARK                            x       y       z     vdW  Elec       q    Type
DOCKED: REMARK                         _______ _______ _______ _____ _____    ______ ____
DOCKED: USER                              x       y       z     vdW  Elec       q    Type
DOCKED: USER                           _______ _______ _______ _____ _____    ______ ____
DOCKED: ROOT
DOCKED: ATOM      1  C   UNL     1      26.641 -14.946  -0.520 -0.35 -0.00    +0.000 C 
DOCKED: ATOM      2  C   UNL     1      27.610 -15.764   0.339 -0.30 -0.00    +0.000 C 
DOCKED: ENDROOT
DOCKED: BRANCH   1   3
DOCKED: ATOM      3  C   UNL     1      25.388 -15.745  -0.810 -0.40 -0.00    +0.000 C 
DOCKED: ATOM      4  C   UNL     1      25.377 -17.055  -1.136 -0.63 -0.00    +0.000 C 
DOCKED: ATOM      5  C   UNL     1      26.654 -17.856  -1.259 -0.29 -0.00    +0.000 C 
DOCKED: BRANCH   4   6
DOCKED: ATOM      6  C   UNL     1      24.065 -17.683  -1.440 -0.74 -0.00    +0.000 C 
DOCKED: ATOM      7  C   UNL     1      22.989 -17.554  -0.650 -0.78 -0.00    +0.000 C 
DOCKED: BRANCH   7   8
DOCKED: ATOM      8  C   UNL     1      21.682 -18.175  -0.944 -0.75 -0.00    +0.000 C 
DOCKED: ATOM      9  N   UNL     1      21.565 -19.508  -1.461 -0.65 -0.00    +0.000 N 
DOCKED: ATOM     10  O   UNL     1      20.635 -17.513  -0.710 -2.10 +0.00    +0.000 OA
DOCKED: ATOM     11  H   UNL     1      22.367 -20.071  -1.553 -0.37 -0.00    +0.000 HD
DOCKED: BRANCH   9  12
DOCKED: ATOM     12  O   UNL     1      20.354 -19.994  -1.822 -1.74 -0.00    +0.000 OA
DOCKED: ATOM     13  H   UNL     1      19.683 -19.301  -1.721 -0.20 -0.00    +0.000 HD
DOCKED: ENDBRANCH   9  12
DOCKED: ENDBRANCH   7   8
DOCKED: ENDBRANCH   4   6
DOCKED: ENDBRANCH   1   3
DOCKED: BRANCH   1  14
DOCKED: ATOM     14  C   UNL     1      27.324 -14.543  -1.810 -0.25 -0.00    +0.000 C 
DOCKED: ATOM     15  O   UNL     1      28.418 -15.094  -2.116 -0.18 -0.00    +0.000 OA
DOCKED: BRANCH  14  19
DOCKED: ATOM     16  C   UNL     1      25.650 -11.568  -4.465 -0.29 -0.00    +0.000 A 
DOCKED: ATOM     17  C   UNL     1      25.170 -12.892  -4.455 -0.26 -0.00    +0.000 A 
DOCKED: ATOM     18  C   UNL     1      25.719 -13.848  -3.596 -0.38 -0.00    +0.000 A 
DOCKED: ATOM     19  C   UNL     1      26.759 -13.509  -2.716 -0.21 -0.00    +0.000 A 
DOCKED: ATOM     20  C   UNL     1      27.250 -12.192  -2.728 -0.12 -0.00    +0.000 A 
DOCKED: ATOM     21  C   UNL     1      26.702 -11.235  -3.587 -0.14 -0.00    +0.000 A 
DOCKED: BRANCH  16  23
DOCKED: ATOM     22  C   UNL     1      25.169 -10.734  -6.812 -0.29 -0.00    +0.000 C 
DOCKED: ATOM     23  N   UNL     1      25.079 -10.573  -5.355 -0.35 -0.00    +0.000 N 
DOCKED: ATOM     24  C   UNL     1      24.401  -9.389  -4.814 -0.37 -0.00    +0.000 C 
DOCKED: ENDBRANCH  16  23
DOCKED: ENDBRANCH  14  19
DOCKED: ENDBRANCH   1  14
DOCKED: TORSDOF 7
DOCKED: TER
DOCKED: ENDMDL
________________________________________________________________________________


	BEGINNING GENETIC ALGORITHM DOCKING 37 of 100
Run: 37 Seed: 1162391926 856127142 [ Run 37 of 100 GA/GALS ]
Beginning LAMARCKIAN GENETIC ALGORITHM (LGA), with a maximum of 2500000 energy evaluations.

Final-Value: -13.974


	FINAL GENETIC ALGORITHM DOCKED STATE
	_______________________________________________


Detailed state:  trans 24.061 -15.272 -1.787 quatxyzw -0.474776 0.654382 -0.548352 -0.213734 center 1.174 0.164 -0.352 ntor 7 -3.7303 178.3632 43.1731 175.8798 -116.4182 -108.9166 76.7336
State:	 24.061 -15.272  -1.787  -0.486  0.670 -0.561 -155.317     -3.73  178.36   43.17  175.88 -116.42 -108.92   76.73

DOCKED: MODEL       37
DOCKED: USER    Run = 37
DOCKED: USER    DPF = ligand_dock.biased.dpf
DOCKED: USER  
DOCKED: USER    Estimated Free Energy of Binding    =  -10.52 kcal/mol  [=(1)+(2)+(3)-(4)]
DOCKED: USER    Estimated Inhibition Constant, Ki   =   19.48 nM (nanomolar)  [Temperature = 298.15 K]
DOCKED: USER    
DOCKED: USER    (1) Final Intermolecular Energy     =  -12.61 kcal/mol
DOCKED: USER        vdW + Hbond + desolv Energy     =  -12.61 kcal/mol
DOCKED: USER        Electrostatic Energy            =   +0.00 kcal/mol
DOCKED: USER    (2) Final Total Internal Energy     =   -1.37 kcal/mol
DOCKED: USER    (3) Torsional Free Energy           =   +2.09 kcal/mol
DOCKED: USER    (4) Unbound System's Energy  [=(2)] =   -1.37 kcal/mol
DOCKED: USER    
DOCKED: USER    
DOCKED: USER    NEWDPF move ligand.pdbqt
DOCKED: USER    NEWDPF about 1.174000 0.164000 -0.352000
DOCKED: USER    NEWDPF tran0 24.060969 -15.272373 -1.786503
DOCKED: USER    NEWDPF quaternion0 -0.474776 0.654382 -0.548352 -0.213734
DOCKED: USER    NEWDPF axisangle0 -0.486006 0.669862 -0.561323 -155.317476
DOCKED: USER    NEWDPF quat0 -0.486006 0.669862 -0.561323 -155.317476
DOCKED: USER    NEWDPF dihe0 -3.73 178.36 43.17 175.88 -116.42 -108.92 76.73 
DOCKED: USER  keepresnum = 1 
DOCKED: USER  
DOCKED: REMARK  Name = 
DOCKED: REMARK  11 active torsions:
DOCKED: REMARK  status: ('A' for Active; 'I' for Inactive)
DOCKED: REMARK    1  A    between atoms: C_1  and  N_2
DOCKED: REMARK    2  A    between atoms: N_2  and  C_3
DOCKED: REMARK    3  A    between atoms: N_2  and  C_22
DOCKED: REMARK    4  A    between atoms: C_6  and  C_9
DOCKED: REMARK    5  A    between atoms: C_9  and  C_10
DOCKED: REMARK    6  A    between atoms: C_10  and  C_11
DOCKED: REMARK    7  A    between atoms: C_10  and  C_20
DOCKED: REMARK    8  A    between atoms: C_12  and  C_13
DOCKED: REMARK    9  A    between atoms: C_12  and  C_19
DOCKED: REMARK   10  A    between atoms: C_14  and  C_15
DOCKED: REMARK   11  A    between atoms: N_16  and  O_17
DOCKED: REMARK                            x       y       z     vdW  Elec       q    Type
DOCKED: REMARK                         _______ _______ _______ _____ _____    ______ ____
DOCKED: USER                              x       y       z     vdW  Elec       q    Type
DOCKED: USER                           _______ _______ _______ _____ _____    ______ ____
DOCKED: ROOT
DOCKED: ATOM      1  C   UNL     1      25.856 -15.961  -1.900 -0.52 -0.00    +0.000 C 
DOCKED: ATOM      2  C   UNL     1      27.168 -16.719  -2.127 -0.35 -0.00    +0.000 C 
DOCKED: ENDROOT
DOCKED: BRANCH   1   3
DOCKED: ATOM      3  C   UNL     1      24.714 -16.932  -1.686 -0.65 -0.00    +0.000 C 
DOCKED: ATOM      4  C   UNL     1      24.739 -17.957  -0.809 -0.73 -0.00    +0.000 C 
DOCKED: ATOM      5  C   UNL     1      25.951 -18.242   0.050 -0.66 -0.00    +0.000 C 
DOCKED: BRANCH   4   6
DOCKED: ATOM      6  C   UNL     1      23.554 -18.853  -0.754 -0.80 -0.00    +0.000 C 
DOCKED: ATOM      7  C   UNL     1      22.316 -18.452  -1.078 -0.81 -0.00    +0.000 C 
DOCKED: BRANCH   7   8
DOCKED: ATOM      8  C   UNL     1      21.133 -19.335  -1.026 -0.86 -0.00    +0.000 C 
DOCKED: ATOM      9  N   UNL     1      20.685 -19.946   0.192 -0.69 -0.00    +0.000 N 
DOCKED: ATOM     10  O   UNL     1      20.486 -19.536  -2.088 -1.55 -0.00    +0.000 OA
DOCKED: ATOM     11  H   UNL     1      21.120 -19.717   1.045 -0.45 -0.00    +0.000 HD
DOCKED: BRANCH   9  12
DOCKED: ATOM     12  O   UNL     1      19.665 -20.836   0.172 -0.77 -0.00    +0.000 OA
DOCKED: ATOM     13  H   UNL     1      19.313 -20.904  -0.730 -0.50 -0.00    +0.000 HD
DOCKED: ENDBRANCH   9  12
DOCKED: ENDBRANCH   7   8
DOCKED: ENDBRANCH   4   6
DOCKED: ENDBRANCH   1   3
DOCKED: BRANCH   1  14
DOCKED: ATOM     14  C   UNL     1      25.576 -15.066  -3.088 -0.53 -0.00    +0.000 C 
DOCKED: ATOM     15  O   UNL     1      24.381 -14.734  -3.331 -0.54 -0.00    +0.000 OA
DOCKED: BRANCH  14  19
DOCKED: ATOM     16  C   UNL     1      28.711 -13.692  -5.732 -0.23 -0.00    +0.000 A 
DOCKED: ATOM     17  C   UNL     1      28.073 -14.932  -5.935 -0.35 -0.00    +0.000 A 
DOCKED: ATOM     18  C   UNL     1      27.063 -15.370  -5.074 -0.36 +0.00    +0.000 A 
DOCKED: ATOM     19  C   UNL     1      26.655 -14.580  -3.987 -0.40 -0.00    +0.000 A 
DOCKED: ATOM     20  C   UNL     1      27.295 -13.347  -3.773 -0.21 -0.00    +0.000 A 
DOCKED: ATOM     21  C   UNL     1      28.305 -12.908  -4.633 -0.14 -0.00    +0.000 A 
DOCKED: BRANCH  16  23
DOCKED: ATOM     22  C   UNL     1      30.514 -14.194  -7.444 -0.24 -0.00    +0.000 C 
DOCKED: ATOM     23  N   UNL     1      29.759 -13.236  -6.626 -0.16 -0.00    +0.000 N 
DOCKED: ATOM     24  C   UNL     1      30.081 -11.807  -6.731 -0.08 -0.00    +0.000 C 
DOCKED: ENDBRANCH  16  23
DOCKED: ENDBRANCH  14  19
DOCKED: ENDBRANCH   1  14
DOCKED: TORSDOF 7
DOCKED: TER
DOCKED: ENDMDL
________________________________________________________________________________


	BEGINNING GENETIC ALGORITHM DOCKING 38 of 100
Run: 38 Seed: 297507202 1138054304 [ Run 38 of 100 GA/GALS ]
Beginning LAMARCKIAN GENETIC ALGORITHM (LGA), with a maximum of 2500000 energy evaluations.

Final-Value: -14.777


	FINAL GENETIC ALGORITHM DOCKED STATE
	_______________________________________________


Detailed state:  trans 25.784 -15.334 -2.118 quatxyzw -0.253599 0.637761 -0.690163 -0.229397 center 1.174 0.164 -0.352 ntor 7 -2.4976 177.4244 0.0928 93.2693 -107.5991 -107.6047 -71.7193
State:	 25.784 -15.334  -2.118  -0.261  0.655 -0.709 -153.477     -2.50  177.42    0.09   93.27 -107.60 -107.60  -71.72

DOCKED: MODEL       38
DOCKED: USER    Run = 38
DOCKED: USER    DPF = ligand_dock.biased.dpf
DOCKED: USER  
DOCKED: USER    Estimated Free Energy of Binding    =  -11.26 kcal/mol  [=(1)+(2)+(3)-(4)]
DOCKED: USER    Estimated Inhibition Constant, Ki   =    5.58 nM (nanomolar)  [Temperature = 298.15 K]
DOCKED: USER    
DOCKED: USER    (1) Final Intermolecular Energy     =  -13.35 kcal/mol
DOCKED: USER        vdW + Hbond + desolv Energy     =  -13.35 kcal/mol
DOCKED: USER        Electrostatic Energy            =   +0.00 kcal/mol
DOCKED: USER    (2) Final Total Internal Energy     =   -1.43 kcal/mol
DOCKED: USER    (3) Torsional Free Energy           =   +2.09 kcal/mol
DOCKED: USER    (4) Unbound System's Energy  [=(2)] =   -1.43 kcal/mol
DOCKED: USER    
DOCKED: USER    
DOCKED: USER    NEWDPF move ligand.pdbqt
DOCKED: USER    NEWDPF about 1.174000 0.164000 -0.352000
DOCKED: USER    NEWDPF tran0 25.783561 -15.334057 -2.118283
DOCKED: USER    NEWDPF quaternion0 -0.253599 0.637761 -0.690163 -0.229397
DOCKED: USER    NEWDPF axisangle0 -0.260547 0.655234 -0.709072 -153.476813
DOCKED: USER    NEWDPF quat0 -0.260547 0.655234 -0.709072 -153.476813
DOCKED: USER    NEWDPF dihe0 -2.50 177.42 0.09 93.27 -107.60 -107.60 -71.72 
DOCKED: USER  keepresnum = 1 
DOCKED: USER  
DOCKED: REMARK  Name = 
DOCKED: REMARK  11 active torsions:
DOCKED: REMARK  status: ('A' for Active; 'I' for Inactive)
DOCKED: REMARK    1  A    between atoms: C_1  and  N_2
DOCKED: REMARK    2  A    between atoms: N_2  and  C_3
DOCKED: REMARK    3  A    between atoms: N_2  and  C_22
DOCKED: REMARK    4  A    between atoms: C_6  and  C_9
DOCKED: REMARK    5  A    between atoms: C_9  and  C_10
DOCKED: REMARK    6  A    between atoms: C_10  and  C_11
DOCKED: REMARK    7  A    between atoms: C_10  and  C_20
DOCKED: REMARK    8  A    between atoms: C_12  and  C_13
DOCKED: REMARK    9  A    between atoms: C_12  and  C_19
DOCKED: REMARK   10  A    between atoms: C_14  and  C_15
DOCKED: REMARK   11  A    between atoms: N_16  and  O_17
DOCKED: REMARK                            x       y       z     vdW  Elec       q    Type
DOCKED: REMARK                         _______ _______ _______ _____ _____    ______ ____
DOCKED: USER                              x       y       z     vdW  Elec       q    Type
DOCKED: USER                           _______ _______ _______ _____ _____    ______ ____
DOCKED: ROOT
DOCKED: ATOM      1  C   UNL     1      27.160 -16.518  -1.475 -0.42 -0.00    +0.000 C 
DOCKED: ATOM      2  C   UNL     1      28.137 -17.646  -1.130 -0.21 -0.00    +0.000 C 
DOCKED: ENDROOT
DOCKED: BRANCH   1   3
DOCKED: ATOM      3  C   UNL     1      25.772 -17.075  -1.717 -0.57 -0.00    +0.000 C 
DOCKED: ATOM      4  C   UNL     1      25.121 -17.895  -0.866 -0.70 -0.00    +0.000 C 
DOCKED: ATOM      5  C   UNL     1      25.745 -18.353   0.433 -0.46 -0.00    +0.000 C 
DOCKED: BRANCH   4   6
DOCKED: ATOM      6  C   UNL     1      23.782 -18.396  -1.273 -0.78 -0.00    +0.000 C 
DOCKED: ATOM      7  C   UNL     1      22.643 -18.005  -0.684 -0.83 -0.00    +0.000 C 
DOCKED: BRANCH   7   8
DOCKED: ATOM      8  C   UNL     1      21.308 -18.498  -1.082 -0.76 -0.00    +0.000 C 
DOCKED: ATOM      9  N   UNL     1      21.131 -19.694  -1.853 -0.58 -0.00    +0.000 N 
DOCKED: ATOM     10  O   UNL     1      20.293 -17.852  -0.709 -2.20 +0.00    +0.000 OA
DOCKED: ATOM     11  H   UNL     1      21.908 -20.262  -2.064 -0.49 -0.00    +0.000 HD
DOCKED: BRANCH   9  12
DOCKED: ATOM     12  O   UNL     1      19.899 -20.047  -2.290 -1.77 -0.00    +0.000 OA
DOCKED: ATOM     13  H   UNL     1      19.246 -19.408  -1.965 -0.45 -0.00    +0.000 HD
DOCKED: ENDBRANCH   9  12
DOCKED: ENDBRANCH   7   8
DOCKED: ENDBRANCH   4   6
DOCKED: ENDBRANCH   1   3
DOCKED: BRANCH   1  14
DOCKED: ATOM     14  C   UNL     1      27.654 -15.776  -2.698 -0.31 -0.00    +0.000 C 
DOCKED: ATOM     15  O   UNL     1      28.658 -16.227  -3.318 -0.30 -0.00    +0.000 OA
DOCKED: BRANCH  14  19
DOCKED: ATOM     16  C   UNL     1      25.817 -12.113  -4.081 -0.18 -0.00    +0.000 A 
DOCKED: ATOM     17  C   UNL     1      26.947 -12.092  -3.240 -0.14 -0.00    +0.000 A 
DOCKED: ATOM     18  C   UNL     1      27.533 -13.281  -2.795 -0.15 -0.00    +0.000 A 
DOCKED: ATOM     19  C   UNL     1      27.011 -14.526  -3.181 -0.29 -0.00    +0.000 A 
DOCKED: ATOM     20  C   UNL     1      25.878 -14.553  -4.012 -0.49 -0.00    +0.000 A 
DOCKED: ATOM     21  C   UNL     1      25.291 -13.365  -4.457 -0.24 -0.00    +0.000 A 
DOCKED: BRANCH  16  23
DOCKED: ATOM     22  C   UNL     1      25.396  -9.627  -3.801 -0.26 -0.00    +0.000 C 
DOCKED: ATOM     23  N   UNL     1      25.209 -10.879  -4.545 -0.34 -0.00    +0.000 N 
DOCKED: ATOM     24  C   UNL     1      24.398 -10.861  -5.769 -0.41 -0.00    +0.000 C 
DOCKED: ENDBRANCH  16  23
DOCKED: ENDBRANCH  14  19
DOCKED: ENDBRANCH   1  14
DOCKED: TORSDOF 7
DOCKED: TER
DOCKED: ENDMDL
________________________________________________________________________________


	BEGINNING GENETIC ALGORITHM DOCKING 39 of 100
Run: 39 Seed: 1679630438 1328171697 [ Run 39 of 100 GA/GALS ]
Beginning LAMARCKIAN GENETIC ALGORITHM (LGA), with a maximum of 2500000 energy evaluations.

Final-Value: -14.637


	FINAL GENETIC ALGORITHM DOCKED STATE
	_______________________________________________


Detailed state:  trans 25.022 -14.818 0.452 quatxyzw 0.263130 -0.869873 0.266903 0.320698 center 1.174 0.164 -0.352 ntor 7 -9.6189 -179.8461 51.3210 93.3470 155.2057 -100.6972 -12.1573
State:	 25.022 -14.818   0.452   0.278 -0.918  0.282 142.590     -9.62 -179.85   51.32   93.35  155.21 -100.70  -12.16

DOCKED: MODEL       39
DOCKED: USER    Run = 39
DOCKED: USER    DPF = ligand_dock.biased.dpf
DOCKED: USER  
DOCKED: USER    Estimated Free Energy of Binding    =  -11.12 kcal/mol  [=(1)+(2)+(3)-(4)]
DOCKED: USER    Estimated Inhibition Constant, Ki   =    7.04 nM (nanomolar)  [Temperature = 298.15 K]
DOCKED: USER    
DOCKED: USER    (1) Final Intermolecular Energy     =  -13.21 kcal/mol
DOCKED: USER        vdW + Hbond + desolv Energy     =  -13.21 kcal/mol
DOCKED: USER        Electrostatic Energy            =   +0.00 kcal/mol
DOCKED: USER    (2) Final Total Internal Energy     =   -1.43 kcal/mol
DOCKED: USER    (3) Torsional Free Energy           =   +2.09 kcal/mol
DOCKED: USER    (4) Unbound System's Energy  [=(2)] =   -1.43 kcal/mol
DOCKED: USER    
DOCKED: USER    
DOCKED: USER    NEWDPF move ligand.pdbqt
DOCKED: USER    NEWDPF about 1.174000 0.164000 -0.352000
DOCKED: USER    NEWDPF tran0 25.021828 -14.817692 0.451725
DOCKED: USER    NEWDPF quaternion0 0.263130 -0.869873 0.266903 0.320698
DOCKED: USER    NEWDPF axisangle0 0.277803 -0.918380 0.281786 142.589728
DOCKED: USER    NEWDPF quat0 0.277803 -0.918380 0.281786 142.589728
DOCKED: USER    NEWDPF dihe0 -9.62 -179.85 51.32 93.35 155.21 -100.70 -12.16 
DOCKED: USER  keepresnum = 1 
DOCKED: USER  
DOCKED: REMARK  Name = 
DOCKED: REMARK  11 active torsions:
DOCKED: REMARK  status: ('A' for Active; 'I' for Inactive)
DOCKED: REMARK    1  A    between atoms: C_1  and  N_2
DOCKED: REMARK    2  A    between atoms: N_2  and  C_3
DOCKED: REMARK    3  A    between atoms: N_2  and  C_22
DOCKED: REMARK    4  A    between atoms: C_6  and  C_9
DOCKED: REMARK    5  A    between atoms: C_9  and  C_10
DOCKED: REMARK    6  A    between atoms: C_10  and  C_11
DOCKED: REMARK    7  A    between atoms: C_10  and  C_20
DOCKED: REMARK    8  A    between atoms: C_12  and  C_13
DOCKED: REMARK    9  A    between atoms: C_12  and  C_19
DOCKED: REMARK   10  A    between atoms: C_14  and  C_15
DOCKED: REMARK   11  A    between atoms: N_16  and  O_17
DOCKED: REMARK                            x       y       z     vdW  Elec       q    Type
DOCKED: REMARK                         _______ _______ _______ _____ _____    ______ ____
DOCKED: USER                              x       y       z     vdW  Elec       q    Type
DOCKED: USER                           _______ _______ _______ _____ _____    ______ ____
DOCKED: ROOT
DOCKED: ATOM      1  C   UNL     1      26.626 -15.592  -0.279 -0.37 -0.00    +0.000 C 
DOCKED: ATOM      2  C   UNL     1      27.759 -16.221  -1.097 -0.36 -0.00    +0.000 C 
DOCKED: ENDROOT
DOCKED: BRANCH   1   3
DOCKED: ATOM      3  C   UNL     1      25.284 -16.122  -0.741 -0.46 -0.00    +0.000 C 
DOCKED: ATOM      4  C   UNL     1      24.937 -17.426  -0.738 -0.69 -0.00    +0.000 C 
DOCKED: ATOM      5  C   UNL     1      25.893 -18.504  -0.275 -0.62 -0.00    +0.000 C 
DOCKED: BRANCH   4   6
DOCKED: ATOM      6  C   UNL     1      23.598 -17.789  -1.270 -0.75 -0.00    +0.000 C 
DOCKED: ATOM      7  C   UNL     1      22.595 -18.227  -0.495 -0.84 -0.00    +0.000 C 
DOCKED: BRANCH   7   8
DOCKED: ATOM      8  C   UNL     1      21.261 -18.590  -1.016 -0.80 -0.00    +0.000 C 
DOCKED: ATOM      9  N   UNL     1      21.047 -19.750  -1.833 -0.62 -0.00    +0.000 N 
DOCKED: ATOM     10  O   UNL     1      20.278 -17.864  -0.709 -2.22 -0.00    +0.000 OA
DOCKED: ATOM     11  H   UNL     1      21.786 -20.379  -1.996 -0.47 -0.00    +0.000 HD
DOCKED: BRANCH   9  12
DOCKED: ATOM     12  O   UNL     1      19.830 -19.981  -2.380 -1.67 -0.00    +0.000 OA
DOCKED: ATOM     13  H   UNL     1      19.184 -19.362  -2.006 -0.49 -0.00    +0.000 HD
DOCKED: ENDBRANCH   9  12
DOCKED: ENDBRANCH   7   8
DOCKED: ENDBRANCH   4   6
DOCKED: ENDBRANCH   1   3
DOCKED: BRANCH   1  14
DOCKED: ATOM     14  C   UNL     1      26.678 -14.086  -0.416 -0.31 -0.00    +0.000 C 
DOCKED: ATOM     15  O   UNL     1      26.442 -13.570  -1.545 -0.24 -0.00    +0.000 OA
DOCKED: BRANCH  14  19
DOCKED: ATOM     16  C   UNL     1      27.664 -11.538   2.936 -0.24 +0.00    +0.000 A 
DOCKED: ATOM     17  C   UNL     1      27.584 -12.937   3.079 -0.30 -0.00    +0.000 A 
DOCKED: ATOM     18  C   UNL     1      27.262 -13.753   1.991 -0.26 -0.00    +0.000 A 
DOCKED: ATOM     19  C   UNL     1      27.015 -13.197   0.726 -0.26 -0.00    +0.000 A 
DOCKED: ATOM     20  C   UNL     1      27.083 -11.800   0.579 -0.20 -0.00    +0.000 A 
DOCKED: ATOM     21  C   UNL     1      27.405 -10.984   1.666 -0.21 +0.00    +0.000 A 
DOCKED: BRANCH  16  23
DOCKED: ATOM     22  C   UNL     1      27.835 -11.175   5.440 -0.40 +0.00    +0.000 C 
DOCKED: ATOM     23  N   UNL     1      28.001 -10.689   4.064 -0.27 +0.00    +0.000 N 
DOCKED: ATOM     24  C   UNL     1      28.515  -9.331   3.850 -0.18 +0.00    +0.000 C 
DOCKED: ENDBRANCH  16  23
DOCKED: ENDBRANCH  14  19
DOCKED: ENDBRANCH   1  14
DOCKED: TORSDOF 7
DOCKED: TER
DOCKED: ENDMDL
________________________________________________________________________________


	BEGINNING GENETIC ALGORITHM DOCKING 40 of 100
Run: 40 Seed: 1262658616 341366641 [ Run 40 of 100 GA/GALS ]
Beginning LAMARCKIAN GENETIC ALGORITHM (LGA), with a maximum of 2500000 energy evaluations.

Final-Value: -14.554


	FINAL GENETIC ALGORITHM DOCKED STATE
	_______________________________________________


Detailed state:  trans 25.648 -15.170 0.331 quatxyzw 0.225018 -0.964452 0.060597 0.124606 center 1.174 0.164 -0.352 ntor 7 6.1067 -179.4015 -174.4516 -0.3914 4.7161 -61.7268 -49.2113
State:	 25.648 -15.170   0.331   0.227 -0.972  0.061 165.684      6.11 -179.40 -174.45   -0.39    4.72  -61.73  -49.21

DOCKED: MODEL       40
DOCKED: USER    Run = 40
DOCKED: USER    DPF = ligand_dock.biased.dpf
DOCKED: USER  
DOCKED: USER    Estimated Free Energy of Binding    =  -10.85 kcal/mol  [=(1)+(2)+(3)-(4)]
DOCKED: USER    Estimated Inhibition Constant, Ki   =   11.11 nM (nanomolar)  [Temperature = 298.15 K]
DOCKED: USER    
DOCKED: USER    (1) Final Intermolecular Energy     =  -12.94 kcal/mol
DOCKED: USER        vdW + Hbond + desolv Energy     =  -12.94 kcal/mol
DOCKED: USER        Electrostatic Energy            =   +0.00 kcal/mol
DOCKED: USER    (2) Final Total Internal Energy     =   -1.61 kcal/mol
DOCKED: USER    (3) Torsional Free Energy           =   +2.09 kcal/mol
DOCKED: USER    (4) Unbound System's Energy  [=(2)] =   -1.61 kcal/mol
DOCKED: USER    
DOCKED: USER    
DOCKED: USER    NEWDPF move ligand.pdbqt
DOCKED: USER    NEWDPF about 1.174000 0.164000 -0.352000
DOCKED: USER    NEWDPF tran0 25.647829 -15.169636 0.330731
DOCKED: USER    NEWDPF quaternion0 0.225018 -0.964452 0.060597 0.124606
DOCKED: USER    NEWDPF axisangle0 0.226785 -0.972028 0.061073 165.683979
DOCKED: USER    NEWDPF quat0 0.226785 -0.972028 0.061073 165.683979
DOCKED: USER    NEWDPF dihe0 6.11 -179.40 -174.45 -0.39 4.72 -61.73 -49.21 
DOCKED: USER  keepresnum = 1 
DOCKED: USER  
DOCKED: REMARK  Name = 
DOCKED: REMARK  11 active torsions:
DOCKED: REMARK  status: ('A' for Active; 'I' for Inactive)
DOCKED: REMARK    1  A    between atoms: C_1  and  N_2
DOCKED: REMARK    2  A    between atoms: N_2  and  C_3
DOCKED: REMARK    3  A    between atoms: N_2  and  C_22
DOCKED: REMARK    4  A    between atoms: C_6  and  C_9
DOCKED: REMARK    5  A    between atoms: C_9  and  C_10
DOCKED: REMARK    6  A    between atoms: C_10  and  C_11
DOCKED: REMARK    7  A    between atoms: C_10  and  C_20
DOCKED: REMARK    8  A    between atoms: C_12  and  C_13
DOCKED: REMARK    9  A    between atoms: C_12  and  C_19
DOCKED: REMARK   10  A    between atoms: C_14  and  C_15
DOCKED: REMARK   11  A    between atoms: N_16  and  O_17
DOCKED: REMARK                            x       y       z     vdW  Elec       q    Type
DOCKED: REMARK                         _______ _______ _______ _____ _____    ______ ____
DOCKED: USER                              x       y       z     vdW  Elec       q    Type
DOCKED: USER                           _______ _______ _______ _____ _____    ______ ____
DOCKED: ROOT
DOCKED: ATOM      1  C   UNL     1      26.594 -15.658  -1.274 -0.41 -0.00    +0.000 C 
DOCKED: ATOM      2  C   UNL     1      27.112 -15.978  -2.680 -0.37 -0.00    +0.000 C 
DOCKED: ENDROOT
DOCKED: BRANCH   1   3
DOCKED: ATOM      3  C   UNL     1      25.122 -15.996  -1.163 -0.50 -0.00    +0.000 C 
DOCKED: ATOM      4  C   UNL     1      24.641 -17.143  -0.639 -0.63 -0.00    +0.000 C 
DOCKED: ATOM      5  C   UNL     1      25.557 -18.227  -0.117 -0.68 -0.00    +0.000 C 
DOCKED: BRANCH   4   6
DOCKED: ATOM      6  C   UNL     1      23.168 -17.346  -0.648 -0.74 -0.00    +0.000 C 
DOCKED: ATOM      7  C   UNL     1      22.595 -18.558  -0.604 -0.84 -0.00    +0.000 C 
DOCKED: BRANCH   7   8
DOCKED: ATOM      8  C   UNL     1      21.133 -18.769  -0.613 -0.85 -0.00    +0.000 C 
DOCKED: ATOM      9  N   UNL     1      20.527 -19.957  -0.085 -0.73 -0.00    +0.000 N 
DOCKED: ATOM     10  O   UNL     1      20.397 -17.860  -1.082 -2.19 -0.00    +0.000 OA
DOCKED: ATOM     11  H   UNL     1      21.081 -20.628   0.375 -0.44 -0.00    +0.000 HD
DOCKED: BRANCH   9  12
DOCKED: ATOM     12  O   UNL     1      19.194 -20.156  -0.216 -0.89 -0.00    +0.000 OA
DOCKED: ATOM     13  H   UNL     1      18.815 -19.458  -0.772 -0.33 -0.00    +0.000 HD
DOCKED: ENDBRANCH   9  12
DOCKED: ENDBRANCH   7   8
DOCKED: ENDBRANCH   4   6
DOCKED: ENDBRANCH   1   3
DOCKED: BRANCH   1  14
DOCKED: ATOM     14  C   UNL     1      26.826 -14.194  -0.969 -0.29 -0.00    +0.000 C 
DOCKED: ATOM     15  O   UNL     1      26.833 -13.368  -1.925 -0.23 -0.00    +0.000 OA
DOCKED: BRANCH  14  19
DOCKED: ATOM     16  C   UNL     1      27.500 -12.712   3.038 -0.29 -0.00    +0.000 A 
DOCKED: ATOM     17  C   UNL     1      26.916 -11.900   2.046 -0.28 +0.00    +0.000 A 
DOCKED: ATOM     18  C   UNL     1      26.705 -12.386   0.753 -0.26 -0.00    +0.000 A 
DOCKED: ATOM     19  C   UNL     1      27.065 -13.699   0.412 -0.25 -0.00    +0.000 A 
DOCKED: ATOM     20  C   UNL     1      27.658 -14.511   1.394 -0.23 -0.00    +0.000 A 
DOCKED: ATOM     21  C   UNL     1      27.869 -14.027   2.688 -0.32 -0.00    +0.000 A 
DOCKED: BRANCH  16  23
DOCKED: ATOM     22  C   UNL     1      27.752 -10.765   4.643 -0.37 +0.00    +0.000 C 
DOCKED: ATOM     23  N   UNL     1      27.718 -12.210   4.382 -0.34 +0.00    +0.000 N 
DOCKED: ATOM     24  C   UNL     1      27.905 -13.137   5.504 -0.47 -0.00    +0.000 C 
DOCKED: ENDBRANCH  16  23
DOCKED: ENDBRANCH  14  19
DOCKED: ENDBRANCH   1  14
DOCKED: TORSDOF 7
DOCKED: TER
DOCKED: ENDMDL
________________________________________________________________________________


	BEGINNING GENETIC ALGORITHM DOCKING 41 of 100
Run: 41 Seed: 1178294459 2066817893 [ Run 41 of 100 GA/GALS ]
Beginning LAMARCKIAN GENETIC ALGORITHM (LGA), with a maximum of 2500000 energy evaluations.

Final-Value: -14.394


	FINAL GENETIC ALGORITHM DOCKED STATE
	_______________________________________________


Detailed state:  trans 26.787 -17.494 -0.373 quatxyzw -0.027624 0.933339 0.346465 -0.089875 center 1.174 0.164 -0.352 ntor 7 -6.8474 -114.4404 178.6183 -61.7273 108.3016 14.2092 -179.9890
State:	 26.787 -17.494  -0.373  -0.028  0.937  0.348 -169.687     -6.85 -114.44  178.62  -61.73  108.30   14.21 -179.99

DOCKED: MODEL       41
DOCKED: USER    Run = 41
DOCKED: USER    DPF = ligand_dock.biased.dpf
DOCKED: USER  
DOCKED: USER    Estimated Free Energy of Binding    =  -10.48 kcal/mol  [=(1)+(2)+(3)-(4)]
DOCKED: USER    Estimated Inhibition Constant, Ki   =   20.77 nM (nanomolar)  [Temperature = 298.15 K]
DOCKED: USER    
DOCKED: USER    (1) Final Intermolecular Energy     =  -12.57 kcal/mol
DOCKED: USER        vdW + Hbond + desolv Energy     =  -12.57 kcal/mol
DOCKED: USER        Electrostatic Energy            =   +0.00 kcal/mol
DOCKED: USER    (2) Final Total Internal Energy     =   -1.82 kcal/mol
DOCKED: USER    (3) Torsional Free Energy           =   +2.09 kcal/mol
DOCKED: USER    (4) Unbound System's Energy  [=(2)] =   -1.82 kcal/mol
DOCKED: USER    
DOCKED: USER    
DOCKED: USER    NEWDPF move ligand.pdbqt
DOCKED: USER    NEWDPF about 1.174000 0.164000 -0.352000
DOCKED: USER    NEWDPF tran0 26.787441 -17.493512 -0.373498
DOCKED: USER    NEWDPF quaternion0 -0.027624 0.933339 0.346465 -0.089875
DOCKED: USER    NEWDPF axisangle0 -0.027737 0.937131 0.347873 -169.687124
DOCKED: USER    NEWDPF quat0 -0.027737 0.937131 0.347873 -169.687124
DOCKED: USER    NEWDPF dihe0 -6.85 -114.44 178.62 -61.73 108.30 14.21 -179.99 
DOCKED: USER  keepresnum = 1 
DOCKED: USER  
DOCKED: REMARK  Name = 
DOCKED: REMARK  11 active torsions:
DOCKED: REMARK  status: ('A' for Active; 'I' for Inactive)
DOCKED: REMARK    1  A    between atoms: C_1  and  N_2
DOCKED: REMARK    2  A    between atoms: N_2  and  C_3
DOCKED: REMARK    3  A    between atoms: N_2  and  C_22
DOCKED: REMARK    4  A    between atoms: C_6  and  C_9
DOCKED: REMARK    5  A    between atoms: C_9  and  C_10
DOCKED: REMARK    6  A    between atoms: C_10  and  C_11
DOCKED: REMARK    7  A    between atoms: C_10  and  C_20
DOCKED: REMARK    8  A    between atoms: C_12  and  C_13
DOCKED: REMARK    9  A    between atoms: C_12  and  C_19
DOCKED: REMARK   10  A    between atoms: C_14  and  C_15
DOCKED: REMARK   11  A    between atoms: N_16  and  O_17
DOCKED: REMARK                            x       y       z     vdW  Elec       q    Type
DOCKED: REMARK                         _______ _______ _______ _____ _____    ______ ____
DOCKED: USER                              x       y       z     vdW  Elec       q    Type
DOCKED: USER                           _______ _______ _______ _____ _____    ______ ____
DOCKED: ROOT
DOCKED: ATOM      1  C   UNL     1      27.377 -16.726  -2.039 -0.35 -0.00    +0.000 C 
DOCKED: ATOM      2  C   UNL     1      27.637 -15.939  -3.327 -0.28 -0.00    +0.000 C 
DOCKED: ENDROOT
DOCKED: BRANCH   1   3
DOCKED: ATOM      3  C   UNL     1      25.891 -16.800  -1.754 -0.56 -0.00    +0.000 C 
DOCKED: ATOM      4  C   UNL     1      25.340 -17.530  -0.762 -0.67 -0.00    +0.000 C 
DOCKED: ATOM      5  C   UNL     1      26.182 -18.374   0.168 -0.60 -0.00    +0.000 C 
DOCKED: BRANCH   4   6
DOCKED: ATOM      6  C   UNL     1      23.858 -17.536  -0.646 -0.74 -0.00    +0.000 C 
DOCKED: ATOM      7  C   UNL     1      23.084 -18.484  -1.193 -0.80 -0.00    +0.000 C 
DOCKED: BRANCH   7   8
DOCKED: ATOM      8  C   UNL     1      21.611 -18.498  -1.083 -0.77 -0.00    +0.000 C 
DOCKED: ATOM      9  N   UNL     1      20.832 -19.670  -1.359 -0.79 -0.00    +0.000 N 
DOCKED: ATOM     10  O   UNL     1      21.026 -17.446  -0.710 -2.03 -0.00    +0.000 OA
DOCKED: ATOM     11  H   UNL     1      21.282 -20.524  -1.553 -0.29 -0.00    +0.000 HD
DOCKED: BRANCH   9  12
DOCKED: ATOM     12  O   UNL     1      19.480 -19.606  -1.355 -1.44 -0.00    +0.000 OA
DOCKED: ATOM     13  H   UNL     1      19.198 -18.731  -1.044 -0.32 -0.00    +0.000 HD
DOCKED: ENDBRANCH   9  12
DOCKED: ENDBRANCH   7   8
DOCKED: ENDBRANCH   4   6
DOCKED: ENDBRANCH   1   3
DOCKED: BRANCH   1  14
DOCKED: ATOM     14  C   UNL     1      28.106 -16.069  -0.887 -0.32 -0.00    +0.000 C 
DOCKED: ATOM     15  O   UNL     1      29.192 -16.575  -0.487 -0.27 -0.00    +0.000 OA
DOCKED: BRANCH  14  19
DOCKED: ATOM     16  C   UNL     1      26.560 -12.535   1.069 -0.30 -0.00    +0.000 A 
DOCKED: ATOM     17  C   UNL     1      26.639 -12.619  -0.335 -0.11 -0.00    +0.000 A 
DOCKED: ATOM     18  C   UNL     1      27.144 -13.763  -0.959 -0.20 -0.00    +0.000 A 
DOCKED: ATOM     19  C   UNL     1      27.578 -14.862  -0.200 -0.24 -0.00    +0.000 A 
DOCKED: ATOM     20  C   UNL     1      27.510 -14.781   1.202 -0.18 -0.00    +0.000 A 
DOCKED: ATOM     21  C   UNL     1      27.007 -13.637   1.827 -0.25 -0.00    +0.000 A 
DOCKED: BRANCH  16  23
DOCKED: ATOM     22  C   UNL     1      24.806 -10.710   1.229 -0.44 +0.00    +0.000 C 
DOCKED: ATOM     23  N   UNL     1      26.035 -11.348   1.718 -0.38 +0.00    +0.000 N 
DOCKED: ATOM     24  C   UNL     1      26.722 -10.765   2.878 -0.23 +0.00    +0.000 C 
DOCKED: ENDBRANCH  16  23
DOCKED: ENDBRANCH  14  19
DOCKED: ENDBRANCH   1  14
DOCKED: TORSDOF 7
DOCKED: TER
DOCKED: ENDMDL
________________________________________________________________________________


	BEGINNING GENETIC ALGORITHM DOCKING 42 of 100
Run: 42 Seed: 1890394584 1151773934 [ Run 42 of 100 GA/GALS ]
Beginning LAMARCKIAN GENETIC ALGORITHM (LGA), with a maximum of 2500000 energy evaluations.

Final-Value: -14.739


	FINAL GENETIC ALGORITHM DOCKED STATE
	_______________________________________________


Detailed state:  trans 26.780 -17.496 -0.356 quatxyzw 0.038424 -0.912399 -0.400486 0.075247 center 1.174 0.164 -0.352 ntor 7 11.3616 54.5312 -175.7779 -63.6671 -60.2692 10.3708 169.8699
State:	 26.780 -17.496  -0.356   0.039 -0.915 -0.402 171.369     11.36   54.53 -175.78  -63.67  -60.27   10.37  169.87

DOCKED: MODEL       42
DOCKED: USER    Run = 42
DOCKED: USER    DPF = ligand_dock.biased.dpf
DOCKED: USER  
DOCKED: USER    Estimated Free Energy of Binding    =  -10.95 kcal/mol  [=(1)+(2)+(3)-(4)]
DOCKED: USER    Estimated Inhibition Constant, Ki   =    9.47 nM (nanomolar)  [Temperature = 298.15 K]
DOCKED: USER    
DOCKED: USER    (1) Final Intermolecular Energy     =  -13.03 kcal/mol
DOCKED: USER        vdW + Hbond + desolv Energy     =  -13.03 kcal/mol
DOCKED: USER        Electrostatic Energy            =   +0.00 kcal/mol
DOCKED: USER    (2) Final Total Internal Energy     =   -1.70 kcal/mol
DOCKED: USER    (3) Torsional Free Energy           =   +2.09 kcal/mol
DOCKED: USER    (4) Unbound System's Energy  [=(2)] =   -1.70 kcal/mol
DOCKED: USER    
DOCKED: USER    
DOCKED: USER    NEWDPF move ligand.pdbqt
DOCKED: USER    NEWDPF about 1.174000 0.164000 -0.352000
DOCKED: USER    NEWDPF tran0 26.780076 -17.495820 -0.355801
DOCKED: USER    NEWDPF quaternion0 0.038424 -0.912399 -0.400486 0.075247
DOCKED: USER    NEWDPF axisangle0 0.038533 -0.914994 -0.401624 171.369129
DOCKED: USER    NEWDPF quat0 0.038533 -0.914994 -0.401624 171.369129
DOCKED: USER    NEWDPF dihe0 11.36 54.53 -175.78 -63.67 -60.27 10.37 169.87 
DOCKED: USER  keepresnum = 1 
DOCKED: USER  
DOCKED: REMARK  Name = 
DOCKED: REMARK  11 active torsions:
DOCKED: REMARK  status: ('A' for Active; 'I' for Inactive)
DOCKED: REMARK    1  A    between atoms: C_1  and  N_2
DOCKED: REMARK    2  A    between atoms: N_2  and  C_3
DOCKED: REMARK    3  A    between atoms: N_2  and  C_22
DOCKED: REMARK    4  A    between atoms: C_6  and  C_9
DOCKED: REMARK    5  A    between atoms: C_9  and  C_10
DOCKED: REMARK    6  A    between atoms: C_10  and  C_11
DOCKED: REMARK    7  A    between atoms: C_10  and  C_20
DOCKED: REMARK    8  A    between atoms: C_12  and  C_13
DOCKED: REMARK    9  A    between atoms: C_12  and  C_19
DOCKED: REMARK   10  A    between atoms: C_14  and  C_15
DOCKED: REMARK   11  A    between atoms: N_16  and  O_17
DOCKED: REMARK                            x       y       z     vdW  Elec       q    Type
DOCKED: REMARK                         _______ _______ _______ _____ _____    ______ ____
DOCKED: USER                              x       y       z     vdW  Elec       q    Type
DOCKED: USER                           _______ _______ _______ _____ _____    ______ ____
DOCKED: ROOT
DOCKED: ATOM      1  C   UNL     1      27.303 -16.523  -1.933 -0.38 -0.00    +0.000 C 
DOCKED: ATOM      2  C   UNL     1      27.504 -15.586  -3.129 -0.34 -0.00    +0.000 C 
DOCKED: ENDROOT
DOCKED: BRANCH   1   3
DOCKED: ATOM      3  C   UNL     1      25.827 -16.690  -1.634 -0.57 -0.00    +0.000 C 
DOCKED: ATOM      4  C   UNL     1      25.322 -17.600  -0.776 -0.68 -0.00    +0.000 C 
DOCKED: ATOM      5  C   UNL     1      26.210 -18.571  -0.029 -0.60 -0.00    +0.000 C 
DOCKED: BRANCH   4   6
DOCKED: ATOM      6  C   UNL     1      23.845 -17.672  -0.630 -0.76 -0.00    +0.000 C 
DOCKED: ATOM      7  C   UNL     1      23.077 -18.505  -1.348 -0.77 -0.00    +0.000 C 
DOCKED: BRANCH   7   8
DOCKED: ATOM      8  C   UNL     1      21.608 -18.582  -1.210 -0.63 -0.00    +0.000 C 
DOCKED: ATOM      9  N   UNL     1      20.861 -19.742  -1.603 -0.75 -0.00    +0.000 N 
DOCKED: ATOM     10  O   UNL     1      20.999 -17.601  -0.707 -2.11 -0.00    +0.000 OA
DOCKED: ATOM     11  H   UNL     1      21.334 -20.552  -1.903 -0.36 -0.00    +0.000 HD
DOCKED: BRANCH   9  12
DOCKED: ATOM     12  O   UNL     1      19.508 -19.725  -1.563 -1.59 -0.00    +0.000 OA
DOCKED: ATOM     13  H   UNL     1      19.199 -18.816  -1.425 -0.50 -0.00    +0.000 HD
DOCKED: ENDBRANCH   9  12
DOCKED: ENDBRANCH   7   8
DOCKED: ENDBRANCH   4   6
DOCKED: ENDBRANCH   1   3
DOCKED: BRANCH   1  14
DOCKED: ATOM     14  C   UNL     1      28.029 -15.968  -0.727 -0.32 -0.00    +0.000 C 
DOCKED: ATOM     15  O   UNL     1      29.039 -16.587  -0.288 -0.28 -0.00    +0.000 OA
DOCKED: BRANCH  14  19
DOCKED: ATOM     16  C   UNL     1      26.746 -12.392   1.339 -0.29 -0.00    +0.000 A 
DOCKED: ATOM     17  C   UNL     1      27.271 -13.495   2.042 -0.28 -0.00    +0.000 A 
DOCKED: ATOM     18  C   UNL     1      27.680 -14.648   1.366 -0.21 -0.00    +0.000 A 
DOCKED: ATOM     19  C   UNL     1      27.583 -14.733  -0.032 -0.24 -0.00    +0.000 A 
DOCKED: ATOM     20  C   UNL     1      27.051 -13.640  -0.738 -0.21 -0.00    +0.000 A 
DOCKED: ATOM     21  C   UNL     1      26.641 -12.487  -0.063 -0.16 -0.00    +0.000 A 
DOCKED: BRANCH  16  23
DOCKED: ATOM     22  C   UNL     1      25.181 -10.408   1.553 -0.41 +0.00    +0.000 C 
DOCKED: ATOM     23  N   UNL     1      26.322 -11.193   2.039 -0.36 +0.00    +0.000 N 
DOCKED: ATOM     24  C   UNL     1      27.026 -10.746   3.247 -0.25 +0.00    +0.000 C 
DOCKED: ENDBRANCH  16  23
DOCKED: ENDBRANCH  14  19
DOCKED: ENDBRANCH   1  14
DOCKED: TORSDOF 7
DOCKED: TER
DOCKED: ENDMDL
________________________________________________________________________________


	BEGINNING GENETIC ALGORITHM DOCKING 43 of 100
Run: 43 Seed: 1398836719 133828697 [ Run 43 of 100 GA/GALS ]
Beginning LAMARCKIAN GENETIC ALGORITHM (LGA), with a maximum of 2500000 energy evaluations.

Final-Value: -14.853


	FINAL GENETIC ALGORITHM DOCKED STATE
	_______________________________________________


Detailed state:  trans 26.003 -15.138 -0.175 quatxyzw 0.217091 -0.969096 -0.048792 0.106508 center 1.174 0.164 -0.352 ntor 7 3.5115 -179.7373 144.5459 -13.0360 -171.9668 -44.9481 -57.9723
State:	 26.003 -15.138  -0.175   0.218 -0.975 -0.049 167.772      3.51 -179.74  144.55  -13.04 -171.97  -44.95  -57.97

DOCKED: MODEL       43
DOCKED: USER    Run = 43
DOCKED: USER    DPF = ligand_dock.biased.dpf
DOCKED: USER  
DOCKED: USER    Estimated Free Energy of Binding    =  -11.06 kcal/mol  [=(1)+(2)+(3)-(4)]
DOCKED: USER    Estimated Inhibition Constant, Ki   =    7.82 nM (nanomolar)  [Temperature = 298.15 K]
DOCKED: USER    
DOCKED: USER    (1) Final Intermolecular Energy     =  -13.15 kcal/mol
DOCKED: USER        vdW + Hbond + desolv Energy     =  -13.15 kcal/mol
DOCKED: USER        Electrostatic Energy            =   +0.00 kcal/mol
DOCKED: USER    (2) Final Total Internal Energy     =   -1.71 kcal/mol
DOCKED: USER    (3) Torsional Free Energy           =   +2.09 kcal/mol
DOCKED: USER    (4) Unbound System's Energy  [=(2)] =   -1.71 kcal/mol
DOCKED: USER    
DOCKED: USER    
DOCKED: USER    NEWDPF move ligand.pdbqt
DOCKED: USER    NEWDPF about 1.174000 0.164000 -0.352000
DOCKED: USER    NEWDPF tran0 26.003240 -15.137713 -0.175367
DOCKED: USER    NEWDPF quaternion0 0.217091 -0.969096 -0.048792 0.106508
DOCKED: USER    NEWDPF axisangle0 0.218333 -0.974640 -0.049071 167.771844
DOCKED: USER    NEWDPF quat0 0.218333 -0.974640 -0.049071 167.771844
DOCKED: USER    NEWDPF dihe0 3.51 -179.74 144.55 -13.04 -171.97 -44.95 -57.97 
DOCKED: USER  keepresnum = 1 
DOCKED: USER  
DOCKED: REMARK  Name = 
DOCKED: REMARK  11 active torsions:
DOCKED: REMARK  status: ('A' for Active; 'I' for Inactive)
DOCKED: REMARK    1  A    between atoms: C_1  and  N_2
DOCKED: REMARK    2  A    between atoms: N_2  and  C_3
DOCKED: REMARK    3  A    between atoms: N_2  and  C_22
DOCKED: REMARK    4  A    between atoms: C_6  and  C_9
DOCKED: REMARK    5  A    between atoms: C_9  and  C_10
DOCKED: REMARK    6  A    between atoms: C_10  and  C_11
DOCKED: REMARK    7  A    between atoms: C_10  and  C_20
DOCKED: REMARK    8  A    between atoms: C_12  and  C_13
DOCKED: REMARK    9  A    between atoms: C_12  and  C_19
DOCKED: REMARK   10  A    between atoms: C_14  and  C_15
DOCKED: REMARK   11  A    between atoms: N_16  and  O_17
DOCKED: REMARK                            x       y       z     vdW  Elec       q    Type
DOCKED: REMARK                         _______ _______ _______ _____ _____    ______ ____
DOCKED: USER                              x       y       z     vdW  Elec       q    Type
DOCKED: USER                           _______ _______ _______ _____ _____    ______ ____
DOCKED: ROOT
DOCKED: ATOM      1  C   UNL     1      26.810 -15.273  -1.919 -0.36 -0.00    +0.000 C 
DOCKED: ATOM      2  C   UNL     1      27.207 -15.291  -3.399 -0.38 -0.00    +0.000 C 
DOCKED: ENDROOT
DOCKED: BRANCH   1   3
DOCKED: ATOM      3  C   UNL     1      25.352 -15.651  -1.758 -0.47 -0.00    +0.000 C 
DOCKED: ATOM      4  C   UNL     1      24.918 -16.769  -1.139 -0.63 -0.00    +0.000 C 
DOCKED: ATOM      5  C   UNL     1      25.879 -17.778  -0.550 -0.65 -0.00    +0.000 C 
DOCKED: BRANCH   4   6
DOCKED: ATOM      6  C   UNL     1      23.454 -17.021  -1.108 -0.62 -0.00    +0.000 C 
DOCKED: ATOM      7  C   UNL     1      22.919 -18.247  -1.208 -0.78 -0.00    +0.000 C 
DOCKED: BRANCH   7   8
DOCKED: ATOM      8  C   UNL     1      21.465 -18.507  -1.178 -0.60 -0.00    +0.000 C 
DOCKED: ATOM      9  N   UNL     1      20.897 -19.740  -1.642 -0.74 -0.00    +0.000 N 
DOCKED: ATOM     10  O   UNL     1      20.705 -17.620  -0.706 -2.17 +0.00    +0.000 OA
DOCKED: ATOM     11  H   UNL     1      21.486 -20.478  -1.919 -0.43 -0.00    +0.000 HD
DOCKED: BRANCH   9  12
DOCKED: ATOM     12  O   UNL     1      19.553 -19.890  -1.701 -1.56 -0.00    +0.000 OA
DOCKED: ATOM     13  H   UNL     1      19.122 -19.057  -1.450 -0.55 -0.00    +0.000 HD
DOCKED: ENDBRANCH   9  12
DOCKED: ENDBRANCH   7   8
DOCKED: ENDBRANCH   4   6
DOCKED: ENDBRANCH   1   3
DOCKED: BRANCH   1  14
DOCKED: ATOM     14  C   UNL     1      27.069 -13.898  -1.341 -0.24 -0.00    +0.000 C 
DOCKED: ATOM     15  O   UNL     1      27.162 -12.916  -2.130 -0.19 -0.00    +0.000 OA
DOCKED: BRANCH  14  19
DOCKED: ATOM     16  C   UNL     1      27.574 -13.276   2.908 -0.31 -0.00    +0.000 A 
DOCKED: ATOM     17  C   UNL     1      27.966 -14.482   2.294 -0.23 -0.00    +0.000 A 
DOCKED: ATOM     18  C   UNL     1      27.796 -14.676   0.920 -0.24 -0.00    +0.000 A 
DOCKED: ATOM     19  C   UNL     1      27.235 -13.669   0.118 -0.23 -0.00    +0.000 A 
DOCKED: ATOM     20  C   UNL     1      26.833 -12.468   0.726 -0.25 -0.00    +0.000 A 
DOCKED: ATOM     21  C   UNL     1      27.002 -12.273   2.099 -0.28 +0.00    +0.000 A 
DOCKED: BRANCH  16  23
DOCKED: ATOM     22  C   UNL     1      27.918 -14.217   5.238 -0.45 -0.00    +0.000 C 
DOCKED: ATOM     23  N   UNL     1      27.752 -13.072   4.334 -0.42 -0.00    +0.000 N 
DOCKED: ATOM     24  C   UNL     1      27.771 -11.716   4.898 -0.39 +0.00    +0.000 C 
DOCKED: ENDBRANCH  16  23
DOCKED: ENDBRANCH  14  19
DOCKED: ENDBRANCH   1  14
DOCKED: TORSDOF 7
DOCKED: TER
DOCKED: ENDMDL
________________________________________________________________________________


	BEGINNING GENETIC ALGORITHM DOCKING 44 of 100
Run: 44 Seed: 959036219 2119279917 [ Run 44 of 100 GA/GALS ]
Beginning LAMARCKIAN GENETIC ALGORITHM (LGA), with a maximum of 2500000 energy evaluations.

Final-Value: -14.762


	FINAL GENETIC ALGORITHM DOCKED STATE
	_______________________________________________


Detailed state:  trans 25.738 -16.014 -0.248 quatxyzw 0.361584 -0.929103 -0.048990 0.060210 center 1.174 0.164 -0.352 ntor 7 52.6739 162.9530 -9.3227 164.1543 1.1946 -27.8117 -49.5496
State:	 25.738 -16.014  -0.248   0.362 -0.931 -0.049 173.096     52.67  162.95   -9.32  164.15    1.19  -27.81  -49.55

DOCKED: MODEL       44
DOCKED: USER    Run = 44
DOCKED: USER    DPF = ligand_dock.biased.dpf
DOCKED: USER  
DOCKED: USER    Estimated Free Energy of Binding    =  -11.20 kcal/mol  [=(1)+(2)+(3)-(4)]
DOCKED: USER    Estimated Inhibition Constant, Ki   =    6.19 nM (nanomolar)  [Temperature = 298.15 K]
DOCKED: USER    
DOCKED: USER    (1) Final Intermolecular Energy     =  -13.29 kcal/mol
DOCKED: USER        vdW + Hbond + desolv Energy     =  -13.29 kcal/mol
DOCKED: USER        Electrostatic Energy            =   +0.00 kcal/mol
DOCKED: USER    (2) Final Total Internal Energy     =   -1.48 kcal/mol
DOCKED: USER    (3) Torsional Free Energy           =   +2.09 kcal/mol
DOCKED: USER    (4) Unbound System's Energy  [=(2)] =   -1.48 kcal/mol
DOCKED: USER    
DOCKED: USER    
DOCKED: USER    NEWDPF move ligand.pdbqt
DOCKED: USER    NEWDPF about 1.174000 0.164000 -0.352000
DOCKED: USER    NEWDPF tran0 25.737533 -16.014109 -0.247530
DOCKED: USER    NEWDPF quaternion0 0.361584 -0.929103 -0.048990 0.060210
DOCKED: USER    NEWDPF axisangle0 0.362241 -0.930791 -0.049079 173.096298
DOCKED: USER    NEWDPF quat0 0.362241 -0.930791 -0.049079 173.096298
DOCKED: USER    NEWDPF dihe0 52.67 162.95 -9.32 164.15 1.19 -27.81 -49.55 
DOCKED: USER  keepresnum = 1 
DOCKED: USER  
DOCKED: REMARK  Name = 
DOCKED: REMARK  11 active torsions:
DOCKED: REMARK  status: ('A' for Active; 'I' for Inactive)
DOCKED: REMARK    1  A    between atoms: C_1  and  N_2
DOCKED: REMARK    2  A    between atoms: N_2  and  C_3
DOCKED: REMARK    3  A    between atoms: N_2  and  C_22
DOCKED: REMARK    4  A    between atoms: C_6  and  C_9
DOCKED: REMARK    5  A    between atoms: C_9  and  C_10
DOCKED: REMARK    6  A    between atoms: C_10  and  C_11
DOCKED: REMARK    7  A    between atoms: C_10  and  C_20
DOCKED: REMARK    8  A    between atoms: C_12  and  C_13
DOCKED: REMARK    9  A    between atoms: C_12  and  C_19
DOCKED: REMARK   10  A    between atoms: C_14  and  C_15
DOCKED: REMARK   11  A    between atoms: N_16  and  O_17
DOCKED: REMARK                            x       y       z     vdW  Elec       q    Type
DOCKED: REMARK                         _______ _______ _______ _____ _____    ______ ____
DOCKED: USER                              x       y       z     vdW  Elec       q    Type
DOCKED: USER                           _______ _______ _______ _____ _____    ______ ____
DOCKED: ROOT
DOCKED: ATOM      1  C   UNL     1      26.443 -16.002  -2.040 -0.46 -0.00    +0.000 C 
DOCKED: ATOM      2  C   UNL     1      26.738 -15.985  -3.543 -0.24 -0.00    +0.000 C 
DOCKED: ENDROOT
DOCKED: BRANCH   1   3
DOCKED: ATOM      3  C   UNL     1      25.177 -16.786  -1.758 -0.62 -0.00    +0.000 C 
DOCKED: ATOM      4  C   UNL     1      25.068 -17.744  -0.814 -0.70 -0.00    +0.000 C 
DOCKED: ATOM      5  C   UNL     1      26.238 -18.140   0.058 -0.64 -0.00    +0.000 C 
DOCKED: BRANCH   4   6
DOCKED: ATOM      6  C   UNL     1      23.769 -18.457  -0.697 -0.81 -0.00    +0.000 C 
DOCKED: ATOM      7  C   UNL     1      22.583 -17.845  -0.823 -0.79 -0.00    +0.000 C 
DOCKED: BRANCH   7   8
DOCKED: ATOM      8  C   UNL     1      21.288 -18.545  -0.707 -0.85 -0.00    +0.000 C 
DOCKED: ATOM      9  N   UNL     1      21.189 -19.908  -0.269 -0.64 -0.00    +0.000 N 
DOCKED: ATOM     10  O   UNL     1      20.234 -17.911  -0.983 -2.15 -0.00    +0.000 OA
DOCKED: ATOM     11  H   UNL     1      21.993 -20.382   0.045 -0.56 -0.00    +0.000 HD
DOCKED: BRANCH   9  12
DOCKED: ATOM     12  O   UNL     1      19.994 -20.543  -0.286 -0.85 -0.00    +0.000 OA
DOCKED: ATOM     13  H   UNL     1      19.598 -20.466  -1.169 -0.54 -0.00    +0.000 HD
DOCKED: ENDBRANCH   9  12
DOCKED: ENDBRANCH   7   8
DOCKED: ENDBRANCH   4   6
DOCKED: ENDBRANCH   1   3
DOCKED: BRANCH   1  14
DOCKED: ATOM     14  C   UNL     1      26.311 -14.582  -1.532 -0.34 -0.00    +0.000 C 
DOCKED: ATOM     15  O   UNL     1      25.902 -13.689  -2.326 -0.21 -0.00    +0.000 OA
DOCKED: BRANCH  14  19
DOCKED: ATOM     16  C   UNL     1      27.309 -13.436   2.517 -0.31 -0.00    +0.000 A 
DOCKED: ATOM     17  C   UNL     1      26.395 -12.689   1.749 -0.30 -0.00    +0.000 A 
DOCKED: ATOM     18  C   UNL     1      26.080 -13.064   0.440 -0.25 -0.00    +0.000 A 
DOCKED: ATOM     19  C   UNL     1      26.665 -14.201  -0.140 -0.27 -0.00    +0.000 A 
DOCKED: ATOM     20  C   UNL     1      27.586 -14.945   0.617 -0.25 -0.00    +0.000 A 
DOCKED: ATOM     21  C   UNL     1      27.902 -14.570   1.925 -0.18 -0.00    +0.000 A 
DOCKED: BRANCH  16  23
DOCKED: ATOM     22  C   UNL     1      27.757 -11.631   4.241 -0.35 +0.00    +0.000 C 
DOCKED: ATOM     23  N   UNL     1      27.635 -13.048   3.877 -0.38 -0.00    +0.000 N 
DOCKED: ATOM     24  C   UNL     1      27.848 -14.067   4.913 -0.58 -0.00    +0.000 C 
DOCKED: ENDBRANCH  16  23
DOCKED: ENDBRANCH  14  19
DOCKED: ENDBRANCH   1  14
DOCKED: TORSDOF 7
DOCKED: TER
DOCKED: ENDMDL
________________________________________________________________________________


	BEGINNING GENETIC ALGORITHM DOCKING 45 of 100
Run: 45 Seed: 662659939 572458122 [ Run 45 of 100 GA/GALS ]
Beginning LAMARCKIAN GENETIC ALGORITHM (LGA), with a maximum of 2500000 energy evaluations.

Final-Value: -14.352


	FINAL GENETIC ALGORITHM DOCKED STATE
	_______________________________________________


Detailed state:  trans 26.220 -15.490 -0.311 quatxyzw 0.186719 -0.979067 -0.073748 0.033554 center 1.174 0.164 -0.352 ntor 7 12.1106 130.3199 -180.0000 -33.3471 62.4667 -46.7162 -65.0973
State:	 26.220 -15.490  -0.311   0.187 -0.980 -0.074 176.154     12.11  130.32 -180.00  -33.35   62.47  -46.72  -65.10

DOCKED: MODEL       45
DOCKED: USER    Run = 45
DOCKED: USER    DPF = ligand_dock.biased.dpf
DOCKED: USER  
DOCKED: USER    Estimated Free Energy of Binding    =  -10.58 kcal/mol  [=(1)+(2)+(3)-(4)]
DOCKED: USER    Estimated Inhibition Constant, Ki   =   17.66 nM (nanomolar)  [Temperature = 298.15 K]
DOCKED: USER    
DOCKED: USER    (1) Final Intermolecular Energy     =  -12.67 kcal/mol
DOCKED: USER        vdW + Hbond + desolv Energy     =  -12.67 kcal/mol
DOCKED: USER        Electrostatic Energy            =   +0.00 kcal/mol
DOCKED: USER    (2) Final Total Internal Energy     =   -1.69 kcal/mol
DOCKED: USER    (3) Torsional Free Energy           =   +2.09 kcal/mol
DOCKED: USER    (4) Unbound System's Energy  [=(2)] =   -1.69 kcal/mol
DOCKED: USER    
DOCKED: USER    
DOCKED: USER    NEWDPF move ligand.pdbqt
DOCKED: USER    NEWDPF about 1.174000 0.164000 -0.352000
DOCKED: USER    NEWDPF tran0 26.219895 -15.489898 -0.311413
DOCKED: USER    NEWDPF quaternion0 0.186719 -0.979067 -0.073748 0.033554
DOCKED: USER    NEWDPF axisangle0 0.186824 -0.979618 -0.073789 176.154222
DOCKED: USER    NEWDPF quat0 0.186824 -0.979618 -0.073789 176.154222
DOCKED: USER    NEWDPF dihe0 12.11 130.32 -180.00 -33.35 62.47 -46.72 -65.10 
DOCKED: USER  keepresnum = 1 
DOCKED: USER  
DOCKED: REMARK  Name = 
DOCKED: REMARK  11 active torsions:
DOCKED: REMARK  status: ('A' for Active; 'I' for Inactive)
DOCKED: REMARK    1  A    between atoms: C_1  and  N_2
DOCKED: REMARK    2  A    between atoms: N_2  and  C_3
DOCKED: REMARK    3  A    between atoms: N_2  and  C_22
DOCKED: REMARK    4  A    between atoms: C_6  and  C_9
DOCKED: REMARK    5  A    between atoms: C_9  and  C_10
DOCKED: REMARK    6  A    between atoms: C_10  and  C_11
DOCKED: REMARK    7  A    between atoms: C_10  and  C_20
DOCKED: REMARK    8  A    between atoms: C_12  and  C_13
DOCKED: REMARK    9  A    between atoms: C_12  and  C_19
DOCKED: REMARK   10  A    between atoms: C_14  and  C_15
DOCKED: REMARK   11  A    between atoms: N_16  and  O_17
DOCKED: REMARK                            x       y       z     vdW  Elec       q    Type
DOCKED: REMARK                         _______ _______ _______ _____ _____    ______ ____
DOCKED: USER                              x       y       z     vdW  Elec       q    Type
DOCKED: USER                           _______ _______ _______ _____ _____    ______ ____
DOCKED: ROOT
DOCKED: ATOM      1  C   UNL     1      26.736 -15.619  -2.162 -0.39 -0.00    +0.000 C 
DOCKED: ATOM      2  C   UNL     1      26.895 -15.618  -3.686 -0.42 -0.00    +0.000 C 
DOCKED: ENDROOT
DOCKED: BRANCH   1   3
DOCKED: ATOM      3  C   UNL     1      25.303 -15.929  -1.781 -0.53 -0.00    +0.000 C 
DOCKED: ATOM      4  C   UNL     1      24.909 -17.056  -1.152 -0.66 -0.00    +0.000 C 
DOCKED: ATOM      5  C   UNL     1      25.890 -18.145  -0.777 -0.61 -0.00    +0.000 C 
DOCKED: BRANCH   4   6
DOCKED: ATOM      6  C   UNL     1      23.457 -17.234  -0.891 -0.71 -0.00    +0.000 C 
DOCKED: ATOM      7  C   UNL     1      22.759 -18.294  -1.325 -0.71 -0.00    +0.000 C 
DOCKED: BRANCH   7   8
DOCKED: ATOM      8  C   UNL     1      21.315 -18.478  -1.071 -0.76 -0.00    +0.000 C 
DOCKED: ATOM      9  N   UNL     1      20.671 -19.753  -1.198 -0.81 -0.00    +0.000 N 
DOCKED: ATOM     10  O   UNL     1      20.636 -17.481  -0.707 -2.08 +0.00    +0.000 OA
DOCKED: ATOM     11  H   UNL     1      21.207 -20.558  -1.382 -0.22 -0.00    +0.000 HD
DOCKED: BRANCH   9  12
DOCKED: ATOM     12  O   UNL     1      19.327 -19.853  -1.066 -1.22 -0.00    +0.000 OA
DOCKED: ATOM     13  H   UNL     1      18.933 -18.967  -1.081 -0.50 -0.00    +0.000 HD
DOCKED: ENDBRANCH   9  12
DOCKED: ENDBRANCH   7   8
DOCKED: ENDBRANCH   4   6
DOCKED: ENDBRANCH   1   3
DOCKED: BRANCH   1  14
DOCKED: ATOM     14  C   UNL     1      27.153 -14.274  -1.608 -0.25 -0.00    +0.000 C 
DOCKED: ATOM     15  O   UNL     1      27.305 -13.308  -2.407 -0.19 -0.00    +0.000 OA
DOCKED: BRANCH  14  19
DOCKED: ATOM     16  C   UNL     1      27.848 -13.629   2.612 -0.29 -0.00    +0.000 A 
DOCKED: ATOM     17  C   UNL     1      26.595 -13.360   2.027 -0.20 -0.00    +0.000 A 
DOCKED: ATOM     18  C   UNL     1      26.380 -13.568   0.662 -0.24 -0.00    +0.000 A 
DOCKED: ATOM     19  C   UNL     1      27.408 -14.057  -0.160 -0.22 -0.00    +0.000 A 
DOCKED: ATOM     20  C   UNL     1      28.664 -14.319   0.415 -0.16 -0.00    +0.000 A 
DOCKED: ATOM     21  C   UNL     1      28.880 -14.111   1.780 -0.19 -0.00    +0.000 A 
DOCKED: BRANCH  16  23
DOCKED: ATOM     22  C   UNL     1      28.127 -12.056   4.581 -0.36 +0.00    +0.000 C 
DOCKED: ATOM     23  N   UNL     1      28.073 -13.416   4.030 -0.38 -0.00    +0.000 N 
DOCKED: ATOM     24  C   UNL     1      28.247 -14.556   4.938 -0.57 -0.00    +0.000 C 
DOCKED: ENDBRANCH  16  23
DOCKED: ENDBRANCH  14  19
DOCKED: ENDBRANCH   1  14
DOCKED: TORSDOF 7
DOCKED: TER
DOCKED: ENDMDL
________________________________________________________________________________


	BEGINNING GENETIC ALGORITHM DOCKING 46 of 100
Run: 46 Seed: 484480506 1011630483 [ Run 46 of 100 GA/GALS ]
Beginning LAMARCKIAN GENETIC ALGORITHM (LGA), with a maximum of 2500000 energy evaluations.

Final-Value: -13.172


	FINAL GENETIC ALGORITHM DOCKED STATE
	_______________________________________________


Detailed state:  trans 26.341 -15.476 -1.860 quatxyzw -0.269888 0.597564 -0.749978 -0.087240 center 1.174 0.164 -0.352 ntor 7 -152.8620 73.8531 173.5509 -173.9589 -101.7551 -15.0803 -74.9385
State:	 26.341 -15.476  -1.860  -0.271  0.600 -0.753 -169.990   -152.86   73.85  173.55 -173.96 -101.76  -15.08  -74.94

DOCKED: MODEL       46
DOCKED: USER    Run = 46
DOCKED: USER    DPF = ligand_dock.biased.dpf
DOCKED: USER  
DOCKED: USER    Estimated Free Energy of Binding    =   -9.64 kcal/mol  [=(1)+(2)+(3)-(4)]
DOCKED: USER    Estimated Inhibition Constant, Ki   =   85.16 nM (nanomolar)  [Temperature = 298.15 K]
DOCKED: USER    
DOCKED: USER    (1) Final Intermolecular Energy     =  -11.73 kcal/mol
DOCKED: USER        vdW + Hbond + desolv Energy     =  -11.73 kcal/mol
DOCKED: USER        Electrostatic Energy            =   +0.00 kcal/mol
DOCKED: USER    (2) Final Total Internal Energy     =   -1.44 kcal/mol
DOCKED: USER    (3) Torsional Free Energy           =   +2.09 kcal/mol
DOCKED: USER    (4) Unbound System's Energy  [=(2)] =   -1.44 kcal/mol
DOCKED: USER    
DOCKED: USER    
DOCKED: USER    NEWDPF move ligand.pdbqt
DOCKED: USER    NEWDPF about 1.174000 0.164000 -0.352000
DOCKED: USER    NEWDPF tran0 26.340742 -15.475800 -1.860254
DOCKED: USER    NEWDPF quaternion0 -0.269888 0.597564 -0.749978 -0.087240
DOCKED: USER    NEWDPF axisangle0 -0.270921 0.599851 -0.752849 -169.990273
DOCKED: USER    NEWDPF quat0 -0.270921 0.599851 -0.752849 -169.990273
DOCKED: USER    NEWDPF dihe0 -152.86 73.85 173.55 -173.96 -101.76 -15.08 -74.94 
DOCKED: USER  keepresnum = 1 
DOCKED: USER  
DOCKED: REMARK  Name = 
DOCKED: REMARK  11 active torsions:
DOCKED: REMARK  status: ('A' for Active; 'I' for Inactive)
DOCKED: REMARK    1  A    between atoms: C_1  and  N_2
DOCKED: REMARK    2  A    between atoms: N_2  and  C_3
DOCKED: REMARK    3  A    between atoms: N_2  and  C_22
DOCKED: REMARK    4  A    between atoms: C_6  and  C_9
DOCKED: REMARK    5  A    between atoms: C_9  and  C_10
DOCKED: REMARK    6  A    between atoms: C_10  and  C_11
DOCKED: REMARK    7  A    between atoms: C_10  and  C_20
DOCKED: REMARK    8  A    between atoms: C_12  and  C_13
DOCKED: REMARK    9  A    between atoms: C_12  and  C_19
DOCKED: REMARK   10  A    between atoms: C_14  and  C_15
DOCKED: REMARK   11  A    between atoms: N_16  and  O_17
DOCKED: REMARK                            x       y       z     vdW  Elec       q    Type
DOCKED: REMARK                         _______ _______ _______ _____ _____    ______ ____
DOCKED: USER                              x       y       z     vdW  Elec       q    Type
DOCKED: USER                           _______ _______ _______ _____ _____    ______ ____
DOCKED: ROOT
DOCKED: ATOM      1  C   UNL     1      27.595 -16.759  -1.160 -0.42 -0.00    +0.000 C 
DOCKED: ATOM      2  C   UNL     1      28.418 -17.968  -0.706 +0.02 -0.00    +0.000 C 
DOCKED: ENDROOT
DOCKED: BRANCH   1   3
DOCKED: ATOM      3  C   UNL     1      26.114 -17.069  -1.084 -0.57 -0.00    +0.000 C 
DOCKED: ATOM      4  C   UNL     1      25.165 -16.174  -0.736 -0.46 -0.00    +0.000 C 
DOCKED: ATOM      5  C   UNL     1      25.510 -14.749  -0.366 -0.08 -0.00    +0.000 C 
DOCKED: BRANCH   4   6
DOCKED: ATOM      6  C   UNL     1      23.758 -16.649  -0.660 -0.39 -0.00    +0.000 C 
DOCKED: ATOM      7  C   UNL     1      23.338 -17.789  -1.228 -0.74 -0.00    +0.000 C 
DOCKED: BRANCH   7   8
DOCKED: ATOM      8  C   UNL     1      21.942 -18.268  -1.158 -0.63 -0.00    +0.000 C 
DOCKED: ATOM      9  N   UNL     1      21.566 -19.594  -1.557 -0.55 -0.00    +0.000 N 
DOCKED: ATOM     10  O   UNL     1      21.061 -17.488  -0.709 -2.03 -0.00    +0.000 OA
DOCKED: ATOM     11  H   UNL     1      22.259 -20.245  -1.814 -0.43 -0.00    +0.000 HD
DOCKED: BRANCH   9  12
DOCKED: ATOM     12  O   UNL     1      20.260 -19.952  -1.582 -1.69 -0.00    +0.000 OA
DOCKED: ATOM     13  H   UNL     1      20.184 -20.909  -1.444 -0.58 -0.00    +0.000 HD
DOCKED: ENDBRANCH   9  12
DOCKED: ENDBRANCH   7   8
DOCKED: ENDBRANCH   4   6
DOCKED: ENDBRANCH   1   3
DOCKED: BRANCH   1  14
DOCKED: ATOM     14  C   UNL     1      27.986 -16.381  -2.572 -0.30 -0.00    +0.000 C 
DOCKED: ATOM     15  O   UNL     1      28.827 -17.098  -3.182 -0.28 -0.00    +0.000 OA
DOCKED: BRANCH  14  19
DOCKED: ATOM     16  C   UNL     1      26.405 -12.877  -4.555 -0.28 -0.00    +0.000 A 
DOCKED: ATOM     17  C   UNL     1      27.694 -12.877  -3.985 -0.16 -0.00    +0.000 A 
DOCKED: ATOM     18  C   UNL     1      28.196 -14.012  -3.343 -0.15 -0.00    +0.000 A 
DOCKED: ATOM     19  C   UNL     1      27.428 -15.185  -3.256 -0.29 -0.00    +0.000 A 
DOCKED: ATOM     20  C   UNL     1      26.138 -15.188  -3.813 -0.50 -0.00    +0.000 A 
DOCKED: ATOM     21  C   UNL     1      25.635 -14.053  -4.455 -0.35 -0.00    +0.000 A 
DOCKED: BRANCH  16  23
DOCKED: ATOM     22  C   UNL     1      24.585 -11.133  -4.836 -0.38 -0.00    +0.000 C 
DOCKED: ATOM     23  N   UNL     1      25.884 -11.699  -5.223 -0.30 -0.00    +0.000 N 
DOCKED: ATOM     24  C   UNL     1      26.647 -11.051  -6.297 -0.21 -0.00    +0.000 C 
DOCKED: ENDBRANCH  16  23
DOCKED: ENDBRANCH  14  19
DOCKED: ENDBRANCH   1  14
DOCKED: TORSDOF 7
DOCKED: TER
DOCKED: ENDMDL
________________________________________________________________________________


	BEGINNING GENETIC ALGORITHM DOCKING 47 of 100
Run: 47 Seed: 1475963973 1851160938 [ Run 47 of 100 GA/GALS ]
Beginning LAMARCKIAN GENETIC ALGORITHM (LGA), with a maximum of 2500000 energy evaluations.

Final-Value: -13.562


	FINAL GENETIC ALGORITHM DOCKED STATE
	_______________________________________________


Detailed state:  trans 25.945 -16.993 -0.655 quatxyzw 0.091998 -0.926394 -0.359914 0.061585 center 1.174 0.164 -0.352 ntor 7 8.3906 -89.3796 179.7237 -9.5854 -36.6375 5.5475 -2.0506
State:	 25.945 -16.993  -0.655   0.092 -0.928 -0.361 172.938      8.39  -89.38  179.72   -9.59  -36.64    5.55   -2.05

DOCKED: MODEL       47
DOCKED: USER    Run = 47
DOCKED: USER    DPF = ligand_dock.biased.dpf
DOCKED: USER  
DOCKED: USER    Estimated Free Energy of Binding    =   -9.81 kcal/mol  [=(1)+(2)+(3)-(4)]
DOCKED: USER    Estimated Inhibition Constant, Ki   =   64.10 nM (nanomolar)  [Temperature = 298.15 K]
DOCKED: USER    
DOCKED: USER    (1) Final Intermolecular Energy     =  -11.90 kcal/mol
DOCKED: USER        vdW + Hbond + desolv Energy     =  -11.90 kcal/mol
DOCKED: USER        Electrostatic Energy            =   +0.00 kcal/mol
DOCKED: USER    (2) Final Total Internal Energy     =   -1.66 kcal/mol
DOCKED: USER    (3) Torsional Free Energy           =   +2.09 kcal/mol
DOCKED: USER    (4) Unbound System's Energy  [=(2)] =   -1.66 kcal/mol
DOCKED: USER    
DOCKED: USER    
DOCKED: USER    NEWDPF move ligand.pdbqt
DOCKED: USER    NEWDPF about 1.174000 0.164000 -0.352000
DOCKED: USER    NEWDPF tran0 25.945290 -16.993089 -0.655044
DOCKED: USER    NEWDPF quaternion0 0.091998 -0.926394 -0.359914 0.061585
DOCKED: USER    NEWDPF axisangle0 0.092173 -0.928156 -0.360599 172.938447
DOCKED: USER    NEWDPF quat0 0.092173 -0.928156 -0.360599 172.938447
DOCKED: USER    NEWDPF dihe0 8.39 -89.38 179.72 -9.59 -36.64 5.55 -2.05 
DOCKED: USER  keepresnum = 1 
DOCKED: USER  
DOCKED: REMARK  Name = 
DOCKED: REMARK  11 active torsions:
DOCKED: REMARK  status: ('A' for Active; 'I' for Inactive)
DOCKED: REMARK    1  A    between atoms: C_1  and  N_2
DOCKED: REMARK    2  A    between atoms: N_2  and  C_3
DOCKED: REMARK    3  A    between atoms: N_2  and  C_22
DOCKED: REMARK    4  A    between atoms: C_6  and  C_9
DOCKED: REMARK    5  A    between atoms: C_9  and  C_10
DOCKED: REMARK    6  A    between atoms: C_10  and  C_11
DOCKED: REMARK    7  A    between atoms: C_10  and  C_20
DOCKED: REMARK    8  A    between atoms: C_12  and  C_13
DOCKED: REMARK    9  A    between atoms: C_12  and  C_19
DOCKED: REMARK   10  A    between atoms: C_14  and  C_15
DOCKED: REMARK   11  A    between atoms: N_16  and  O_17
DOCKED: REMARK                            x       y       z     vdW  Elec       q    Type
DOCKED: REMARK                         _______ _______ _______ _____ _____    ______ ____
DOCKED: USER                              x       y       z     vdW  Elec       q    Type
DOCKED: USER                           _______ _______ _______ _____ _____    ______ ____
DOCKED: ROOT
DOCKED: ATOM      1  C   UNL     1      26.405 -16.123  -2.310 -0.46 -0.00    +0.000 C 
DOCKED: ATOM      2  C   UNL     1      26.539 -15.286  -3.586 -0.49 -0.00    +0.000 C 
DOCKED: ENDROOT
DOCKED: BRANCH   1   3
DOCKED: ATOM      3  C   UNL     1      24.947 -16.412  -2.018 -0.58 -0.00    +0.000 C 
DOCKED: ATOM      4  C   UNL     1      24.515 -17.351  -1.150 -0.71 -0.00    +0.000 C 
DOCKED: ATOM      5  C   UNL     1      25.477 -18.232  -0.386 -0.70 -0.00    +0.000 C 
DOCKED: BRANCH   4   6
DOCKED: ATOM      6  C   UNL     1      23.048 -17.546  -1.012 -0.73 -0.00    +0.000 C 
DOCKED: ATOM      7  C   UNL     1      22.488 -18.736  -0.751 -0.84 -0.00    +0.000 C 
DOCKED: BRANCH   7   8
DOCKED: ATOM      8  C   UNL     1      21.032 -18.939  -0.613 -0.87 -0.00    +0.000 C 
DOCKED: ATOM      9  N   UNL     1      20.476 -20.100   0.020 -0.72 -0.00    +0.000 N 
DOCKED: ATOM     10  O   UNL     1      20.256 -18.046  -1.047 -2.14 -0.00    +0.000 OA
DOCKED: ATOM     11  H   UNL     1      21.070 -20.756   0.452 -0.49 -0.00    +0.000 HD
DOCKED: BRANCH   9  12
DOCKED: ATOM     12  O   UNL     1      19.136 -20.298   0.024 -0.84 -0.00    +0.000 OA
DOCKED: ATOM     13  H   UNL     1      18.711 -19.642  -0.551 -0.23 -0.00    +0.000 HD
DOCKED: ENDBRANCH   9  12
DOCKED: ENDBRANCH   7   8
DOCKED: ENDBRANCH   4   6
DOCKED: ENDBRANCH   1   3
DOCKED: BRANCH   1  14
DOCKED: ATOM     14  C   UNL     1      27.043 -15.387  -1.152 -0.34 -0.00    +0.000 C 
DOCKED: ATOM     15  O   UNL     1      26.422 -14.418  -0.631 -0.35 -0.00    +0.000 OA
DOCKED: BRANCH  14  19
DOCKED: ATOM     16  C   UNL     1      30.939 -16.413   0.422 -0.11 -0.00    +0.000 A 
DOCKED: ATOM     17  C   UNL     1      30.306 -15.202   0.766 -0.11 -0.00    +0.000 A 
DOCKED: ATOM     18  C   UNL     1      29.049 -14.877   0.250 -0.16 -0.00    +0.000 A 
DOCKED: ATOM     19  C   UNL     1      28.382 -15.754  -0.620 -0.23 -0.00    +0.000 A 
DOCKED: ATOM     20  C   UNL     1      29.012 -16.959  -0.975 -0.26 -0.00    +0.000 A 
DOCKED: ATOM     21  C   UNL     1      30.269 -17.285  -0.461 -0.15 -0.00    +0.000 A 
DOCKED: BRANCH  16  23
DOCKED: ATOM     22  C   UNL     1      32.403 -17.092   2.378 -0.24 -0.00    +0.000 C 
DOCKED: ATOM     23  N   UNL     1      32.244 -16.753   0.959 -0.13 -0.00    +0.000 N 
DOCKED: ATOM     24  C   UNL     1      33.428 -16.766   0.091 -0.04 -0.00    +0.000 C 
DOCKED: ENDBRANCH  16  23
DOCKED: ENDBRANCH  14  19
DOCKED: ENDBRANCH   1  14
DOCKED: TORSDOF 7
DOCKED: TER
DOCKED: ENDMDL
________________________________________________________________________________


	BEGINNING GENETIC ALGORITHM DOCKING 48 of 100
Run: 48 Seed: 2095699462 964623438 [ Run 48 of 100 GA/GALS ]
Beginning LAMARCKIAN GENETIC ALGORITHM (LGA), with a maximum of 2500000 energy evaluations.

Final-Value: -14.300


	FINAL GENETIC ALGORITHM DOCKED STATE
	_______________________________________________


Detailed state:  trans 25.950 -14.845 -2.428 quatxyzw 0.177796 -0.309511 0.928829 0.099341 center 1.174 0.164 -0.352 ntor 7 -9.3805 170.5444 117.3878 30.5397 -2.4020 148.8200 -50.9376
State:	 25.950 -14.845  -2.428   0.179 -0.311  0.933 168.598     -9.38  170.54  117.39   30.54   -2.40  148.82  -50.94

DOCKED: MODEL       48
DOCKED: USER    Run = 48
DOCKED: USER    DPF = ligand_dock.biased.dpf
DOCKED: USER  
DOCKED: USER    Estimated Free Energy of Binding    =  -10.77 kcal/mol  [=(1)+(2)+(3)-(4)]
DOCKED: USER    Estimated Inhibition Constant, Ki   =   12.65 nM (nanomolar)  [Temperature = 298.15 K]
DOCKED: USER    
DOCKED: USER    (1) Final Intermolecular Energy     =  -12.86 kcal/mol
DOCKED: USER        vdW + Hbond + desolv Energy     =  -12.86 kcal/mol
DOCKED: USER        Electrostatic Energy            =   +0.00 kcal/mol
DOCKED: USER    (2) Final Total Internal Energy     =   -1.44 kcal/mol
DOCKED: USER    (3) Torsional Free Energy           =   +2.09 kcal/mol
DOCKED: USER    (4) Unbound System's Energy  [=(2)] =   -1.44 kcal/mol
DOCKED: USER    
DOCKED: USER    
DOCKED: USER    NEWDPF move ligand.pdbqt
DOCKED: USER    NEWDPF about 1.174000 0.164000 -0.352000
DOCKED: USER    NEWDPF tran0 25.950281 -14.845231 -2.427944
DOCKED: USER    NEWDPF quaternion0 0.177796 -0.309511 0.928829 0.099341
DOCKED: USER    NEWDPF axisangle0 0.178680 -0.311049 0.933446 168.597499
DOCKED: USER    NEWDPF quat0 0.178680 -0.311049 0.933446 168.597499
DOCKED: USER    NEWDPF dihe0 -9.38 170.54 117.39 30.54 -2.40 148.82 -50.94 
DOCKED: USER  keepresnum = 1 
DOCKED: USER  
DOCKED: REMARK  Name = 
DOCKED: REMARK  11 active torsions:
DOCKED: REMARK  status: ('A' for Active; 'I' for Inactive)
DOCKED: REMARK    1  A    between atoms: C_1  and  N_2
DOCKED: REMARK    2  A    between atoms: N_2  and  C_3
DOCKED: REMARK    3  A    between atoms: N_2  and  C_22
DOCKED: REMARK    4  A    between atoms: C_6  and  C_9
DOCKED: REMARK    5  A    between atoms: C_9  and  C_10
DOCKED: REMARK    6  A    between atoms: C_10  and  C_11
DOCKED: REMARK    7  A    between atoms: C_10  and  C_20
DOCKED: REMARK    8  A    between atoms: C_12  and  C_13
DOCKED: REMARK    9  A    between atoms: C_12  and  C_19
DOCKED: REMARK   10  A    between atoms: C_14  and  C_15
DOCKED: REMARK   11  A    between atoms: N_16  and  O_17
DOCKED: REMARK                            x       y       z     vdW  Elec       q    Type
DOCKED: REMARK                         _______ _______ _______ _____ _____    ______ ____
DOCKED: USER                              x       y       z     vdW  Elec       q    Type
DOCKED: USER                           _______ _______ _______ _____ _____    ______ ____
DOCKED: ROOT
DOCKED: ATOM      1  C   UNL     1      26.863 -15.317  -0.799 -0.36 -0.00    +0.000 C 
DOCKED: ATOM      2  C   UNL     1      27.441 -15.926   0.483 -0.24 -0.00    +0.000 C 
DOCKED: ENDROOT
DOCKED: BRANCH   1   3
DOCKED: ATOM      3  C   UNL     1      25.407 -15.706  -0.959 -0.43 -0.00    +0.000 C 
DOCKED: ATOM      4  C   UNL     1      24.946 -16.972  -0.900 -0.64 -0.00    +0.000 C 
DOCKED: ATOM      5  C   UNL     1      25.871 -18.149  -0.678 -0.64 -0.00    +0.000 C 
DOCKED: BRANCH   4   6
DOCKED: ATOM      6  C   UNL     1      23.494 -17.193  -1.128 -0.68 -0.00    +0.000 C 
DOCKED: ATOM      7  C   UNL     1      22.898 -18.382  -0.958 -0.83 -0.00    +0.000 C 
DOCKED: BRANCH   7   8
DOCKED: ATOM      8  C   UNL     1      21.455 -18.611  -1.182 -0.66 -0.00    +0.000 C 
DOCKED: ATOM      9  N   UNL     1      20.962 -19.754  -1.893 -0.62 -0.00    +0.000 N 
DOCKED: ATOM     10  O   UNL     1      20.635 -17.780  -0.709 -2.29 -0.00    +0.000 OA
DOCKED: ATOM     11  H   UNL     1      21.584 -20.461  -2.179 -0.51 -0.00    +0.000 HD
DOCKED: BRANCH   9  12
DOCKED: ATOM     12  O   UNL     1      19.641 -19.864  -2.172 -1.61 -0.00    +0.000 OA
DOCKED: ATOM     13  H   UNL     1      19.152 -19.172  -1.701 -0.53 -0.00    +0.000 HD
DOCKED: ENDBRANCH   9  12
DOCKED: ENDBRANCH   7   8
DOCKED: ENDBRANCH   4   6
DOCKED: ENDBRANCH   1   3
DOCKED: BRANCH   1  14
DOCKED: ATOM     14  C   UNL     1      27.671 -15.783  -1.991 -0.31 -0.00    +0.000 C 
DOCKED: ATOM     15  O   UNL     1      28.265 -16.896  -1.924 -0.35 -0.00    +0.000 OA
DOCKED: BRANCH  14  19
DOCKED: ATOM     16  C   UNL     1      28.068 -13.452  -5.612 -0.24 -0.00    +0.000 A 
DOCKED: ATOM     17  C   UNL     1      28.300 -14.842  -5.607 -0.36 -0.00    +0.000 A 
DOCKED: ATOM     18  C   UNL     1      28.173 -15.587  -4.432 -0.31 -0.00    +0.000 A 
DOCKED: ATOM     19  C   UNL     1      27.804 -14.968  -3.227 -0.23 -0.00    +0.000 A 
DOCKED: ATOM     20  C   UNL     1      27.581 -13.580  -3.223 -0.18 -0.00    +0.000 A 
DOCKED: ATOM     21  C   UNL     1      27.708 -12.834  -4.397 -0.17 -0.00    +0.000 A 
DOCKED: BRANCH  16  23
DOCKED: ATOM     22  C   UNL     1      29.143 -13.085  -7.880 -0.25 -0.00    +0.000 C 
DOCKED: ATOM     23  N   UNL     1      28.198 -12.678  -6.833 -0.23 -0.00    +0.000 N 
DOCKED: ATOM     24  C   UNL     1      27.385 -11.473  -7.043 -0.20 -0.00    +0.000 C 
DOCKED: ENDBRANCH  16  23
DOCKED: ENDBRANCH  14  19
DOCKED: ENDBRANCH   1  14
DOCKED: TORSDOF 7
DOCKED: TER
DOCKED: ENDMDL
________________________________________________________________________________


	BEGINNING GENETIC ALGORITHM DOCKING 49 of 100
Run: 49 Seed: 1296681834 579847755 [ Run 49 of 100 GA/GALS ]
Beginning LAMARCKIAN GENETIC ALGORITHM (LGA), with a maximum of 2500000 energy evaluations.

Final-Value: -13.740


	FINAL GENETIC ALGORITHM DOCKED STATE
	_______________________________________________


Detailed state:  trans 24.664 -16.699 -3.333 quatxyzw -0.236952 -0.073190 -0.924592 -0.289183 center 1.174 0.164 -0.352 ntor 7 0.2394 -165.7021 41.1015 -179.7884 152.1628 147.8925 -0.2750
State:	 24.664 -16.699  -3.333  -0.248 -0.076 -0.966 -146.382      0.24 -165.70   41.10 -179.79  152.16  147.89   -0.28

DOCKED: MODEL       49
DOCKED: USER    Run = 49
DOCKED: USER    DPF = ligand_dock.biased.dpf
DOCKED: USER  
DOCKED: USER    Estimated Free Energy of Binding    =  -10.44 kcal/mol  [=(1)+(2)+(3)-(4)]
DOCKED: USER    Estimated Inhibition Constant, Ki   =   22.35 nM (nanomolar)  [Temperature = 298.15 K]
DOCKED: USER    
DOCKED: USER    (1) Final Intermolecular Energy     =  -12.53 kcal/mol
DOCKED: USER        vdW + Hbond + desolv Energy     =  -12.53 kcal/mol
DOCKED: USER        Electrostatic Energy            =   +0.00 kcal/mol
DOCKED: USER    (2) Final Total Internal Energy     =   -1.21 kcal/mol
DOCKED: USER    (3) Torsional Free Energy           =   +2.09 kcal/mol
DOCKED: USER    (4) Unbound System's Energy  [=(2)] =   -1.21 kcal/mol
DOCKED: USER    
DOCKED: USER    
DOCKED: USER    NEWDPF move ligand.pdbqt
DOCKED: USER    NEWDPF about 1.174000 0.164000 -0.352000
DOCKED: USER    NEWDPF tran0 24.663509 -16.699054 -3.333025
DOCKED: USER    NEWDPF quaternion0 -0.236952 -0.073190 -0.924592 -0.289183
DOCKED: USER    NEWDPF axisangle0 -0.247527 -0.076457 -0.965860 -146.381951
DOCKED: USER    NEWDPF quat0 -0.247527 -0.076457 -0.965860 -146.381951
DOCKED: USER    NEWDPF dihe0 0.24 -165.70 41.10 -179.79 152.16 147.89 -0.28 
DOCKED: USER  keepresnum = 1 
DOCKED: USER  
DOCKED: REMARK  Name = 
DOCKED: REMARK  11 active torsions:
DOCKED: REMARK  status: ('A' for Active; 'I' for Inactive)
DOCKED: REMARK    1  A    between atoms: C_1  and  N_2
DOCKED: REMARK    2  A    between atoms: N_2  and  C_3
DOCKED: REMARK    3  A    between atoms: N_2  and  C_22
DOCKED: REMARK    4  A    between atoms: C_6  and  C_9
DOCKED: REMARK    5  A    between atoms: C_9  and  C_10
DOCKED: REMARK    6  A    between atoms: C_10  and  C_11
DOCKED: REMARK    7  A    between atoms: C_10  and  C_20
DOCKED: REMARK    8  A    between atoms: C_12  and  C_13
DOCKED: REMARK    9  A    between atoms: C_12  and  C_19
DOCKED: REMARK   10  A    between atoms: C_14  and  C_15
DOCKED: REMARK   11  A    between atoms: N_16  and  O_17
DOCKED: REMARK                            x       y       z     vdW  Elec       q    Type
DOCKED: REMARK                         _______ _______ _______ _____ _____    ______ ____
DOCKED: USER                              x       y       z     vdW  Elec       q    Type
DOCKED: USER                           _______ _______ _______ _____ _____    ______ ____
DOCKED: ROOT
DOCKED: ATOM      1  C   UNL     1      25.258 -15.616  -1.856 -0.45 -0.00    +0.000 C 
DOCKED: ATOM      2  C   UNL     1      25.713 -14.989  -0.534 -0.25 -0.00    +0.000 C 
DOCKED: ENDROOT
DOCKED: BRANCH   1   3
DOCKED: ATOM      3  C   UNL     1      24.224 -16.693  -1.602 -0.54 -0.00    +0.000 C 
DOCKED: ATOM      4  C   UNL     1      24.391 -17.724  -0.746 -0.75 -0.00    +0.000 C 
DOCKED: ATOM      5  C   UNL     1      25.669 -17.906   0.043 -0.62 -0.00    +0.000 C 
DOCKED: BRANCH   4   6
DOCKED: ATOM      6  C   UNL     1      23.299 -18.727  -0.647 -0.82 -0.00    +0.000 C 
DOCKED: ATOM      7  C   UNL     1      22.027 -18.461  -0.979 -0.81 -0.00    +0.000 C 
DOCKED: BRANCH   7   8
DOCKED: ATOM      8  C   UNL     1      20.935 -19.452  -0.884 -0.86 -0.00    +0.000 C 
DOCKED: ATOM      9  N   UNL     1      20.580 -20.085   0.354 -0.68 -0.00    +0.000 N 
DOCKED: ATOM     10  O   UNL     1      20.282 -19.729  -1.925 -1.83 -0.00    +0.000 OA
DOCKED: ATOM     11  H   UNL     1      21.014 -19.804   1.192 -0.50 -0.00    +0.000 HD
DOCKED: BRANCH   9  12
DOCKED: ATOM     12  O   UNL     1      19.650 -21.068   0.373 -0.74 -0.00    +0.000 OA
DOCKED: ATOM     13  H   UNL     1      19.327 -21.226  -0.528 -0.42 -0.00    +0.000 HD
DOCKED: ENDBRANCH   9  12
DOCKED: ENDBRANCH   7   8
DOCKED: ENDBRANCH   4   6
DOCKED: ENDBRANCH   1   3
DOCKED: BRANCH   1  14
DOCKED: ATOM     14  C   UNL     1      26.455 -16.191  -2.582 -0.44 -0.00    +0.000 C 
DOCKED: ATOM     15  O   UNL     1      26.920 -17.302  -2.203 -0.29 -0.00    +0.000 OA
DOCKED: BRANCH  14  19
DOCKED: ATOM     16  C   UNL     1      28.332 -14.097  -5.868 -0.30 -0.00    +0.000 A 
DOCKED: ATOM     17  C   UNL     1      27.160 -13.604  -5.260 -0.23 -0.00    +0.000 A 
DOCKED: ATOM     18  C   UNL     1      26.559 -14.289  -4.201 -0.40 -0.00    +0.000 A 
DOCKED: ATOM     19  C   UNL     1      27.111 -15.483  -3.712 -0.36 -0.00    +0.000 A 
DOCKED: ATOM     20  C   UNL     1      28.274 -15.986  -4.322 -0.19 -0.00    +0.000 A 
DOCKED: ATOM     21  C   UNL     1      28.876 -15.302  -5.381 -0.32 -0.00    +0.000 A 
DOCKED: BRANCH  16  23
DOCKED: ATOM     22  C   UNL     1      28.314 -12.208  -7.560 -0.23 -0.00    +0.000 C 
DOCKED: ATOM     23  N   UNL     1      28.959 -13.386  -6.967 -0.27 -0.00    +0.000 N 
DOCKED: ATOM     24  C   UNL     1      30.251 -13.831  -7.504 -0.22 -0.00    +0.000 C 
DOCKED: ENDBRANCH  16  23
DOCKED: ENDBRANCH  14  19
DOCKED: ENDBRANCH   1  14
DOCKED: TORSDOF 7
DOCKED: TER
DOCKED: ENDMDL
________________________________________________________________________________


	BEGINNING GENETIC ALGORITHM DOCKING 50 of 100
Run: 50 Seed: 793756543 629267933 [ Run 50 of 100 GA/GALS ]
Beginning LAMARCKIAN GENETIC ALGORITHM (LGA), with a maximum of 2500000 energy evaluations.

Final-Value: -14.718


	FINAL GENETIC ALGORITHM DOCKED STATE
	_______________________________________________


Detailed state:  trans 25.985 -15.174 0.291 quatxyzw 0.245368 -0.962708 0.042192 0.105865 center 1.174 0.164 -0.352 ntor 7 5.2997 -180.0000 141.8642 -22.1075 -172.7468 -70.3241 -55.6435
State:	 25.985 -15.174   0.291   0.247 -0.968  0.042 167.846      5.30 -180.00  141.86  -22.11 -172.75  -70.32  -55.64

DOCKED: MODEL       50
DOCKED: USER    Run = 50
DOCKED: USER    DPF = ligand_dock.biased.dpf
DOCKED: USER  
DOCKED: USER    Estimated Free Energy of Binding    =  -11.02 kcal/mol  [=(1)+(2)+(3)-(4)]
DOCKED: USER    Estimated Inhibition Constant, Ki   =    8.37 nM (nanomolar)  [Temperature = 298.15 K]
DOCKED: USER    
DOCKED: USER    (1) Final Intermolecular Energy     =  -13.11 kcal/mol
DOCKED: USER        vdW + Hbond + desolv Energy     =  -13.11 kcal/mol
DOCKED: USER        Electrostatic Energy            =   +0.00 kcal/mol
DOCKED: USER    (2) Final Total Internal Energy     =   -1.61 kcal/mol
DOCKED: USER    (3) Torsional Free Energy           =   +2.09 kcal/mol
DOCKED: USER    (4) Unbound System's Energy  [=(2)] =   -1.61 kcal/mol
DOCKED: USER    
DOCKED: USER    
DOCKED: USER    NEWDPF move ligand.pdbqt
DOCKED: USER    NEWDPF about 1.174000 0.164000 -0.352000
DOCKED: USER    NEWDPF tran0 25.985058 -15.174042 0.290655
DOCKED: USER    NEWDPF quaternion0 0.245368 -0.962708 0.042192 0.105865
DOCKED: USER    NEWDPF axisangle0 0.246754 -0.968149 0.042431 167.845998
DOCKED: USER    NEWDPF quat0 0.246754 -0.968149 0.042431 167.845998
DOCKED: USER    NEWDPF dihe0 5.30 -180.00 141.86 -22.11 -172.75 -70.32 -55.64 
DOCKED: USER  keepresnum = 1 
DOCKED: USER  
DOCKED: REMARK  Name = 
DOCKED: REMARK  11 active torsions:
DOCKED: REMARK  status: ('A' for Active; 'I' for Inactive)
DOCKED: REMARK    1  A    between atoms: C_1  and  N_2
DOCKED: REMARK    2  A    between atoms: N_2  and  C_3
DOCKED: REMARK    3  A    between atoms: N_2  and  C_22
DOCKED: REMARK    4  A    between atoms: C_6  and  C_9
DOCKED: REMARK    5  A    between atoms: C_9  and  C_10
DOCKED: REMARK    6  A    between atoms: C_10  and  C_11
DOCKED: REMARK    7  A    between atoms: C_10  and  C_20
DOCKED: REMARK    8  A    between atoms: C_12  and  C_13
DOCKED: REMARK    9  A    between atoms: C_12  and  C_19
DOCKED: REMARK   10  A    between atoms: C_14  and  C_15
DOCKED: REMARK   11  A    between atoms: N_16  and  O_17
DOCKED: REMARK                            x       y       z     vdW  Elec       q    Type
DOCKED: REMARK                         _______ _______ _______ _____ _____    ______ ____
DOCKED: USER                              x       y       z     vdW  Elec       q    Type
DOCKED: USER                           _______ _______ _______ _____ _____    ______ ____
DOCKED: ROOT
DOCKED: ATOM      1  C   UNL     1      26.875 -15.588  -1.367 -0.37 -0.00    +0.000 C 
DOCKED: ATOM      2  C   UNL     1      27.339 -15.856  -2.802 -0.34 -0.00    +0.000 C 
DOCKED: ENDROOT
DOCKED: BRANCH   1   3
DOCKED: ATOM      3  C   UNL     1      25.425 -15.991  -1.196 -0.52 -0.00    +0.000 C 
DOCKED: ATOM      4  C   UNL     1      25.014 -17.225  -0.833 -0.66 -0.00    +0.000 C 
DOCKED: ATOM      5  C   UNL     1      25.995 -18.347  -0.575 -0.61 -0.00    +0.000 C 
DOCKED: BRANCH   4   6
DOCKED: ATOM      6  C   UNL     1      23.551 -17.475  -0.758 -0.76 -0.00    +0.000 C 
DOCKED: ATOM      7  C   UNL     1      22.967 -18.568  -1.272 -0.79 -0.00    +0.000 C 
DOCKED: BRANCH   7   8
DOCKED: ATOM      8  C   UNL     1      21.514 -18.824  -1.202 -0.73 -0.00    +0.000 C 
DOCKED: ATOM      9  N   UNL     1      20.854 -19.741  -2.086 -0.58 -0.00    +0.000 N 
DOCKED: ATOM     10  O   UNL     1      20.841 -18.232  -0.317 -1.91 -0.00    +0.000 OA
DOCKED: ATOM     11  H   UNL     1      21.383 -20.285  -2.714 -0.56 -0.00    +0.000 HD
DOCKED: BRANCH   9  12
DOCKED: ATOM     12  O   UNL     1      19.505 -19.860  -2.060 -1.50 -0.00    +0.000 OA
DOCKED: ATOM     13  H   UNL     1      19.134 -19.200  -1.453 -0.52 -0.00    +0.000 HD
DOCKED: ENDBRANCH   9  12
DOCKED: ENDBRANCH   7   8
DOCKED: ENDBRANCH   4   6
DOCKED: ENDBRANCH   1   3
DOCKED: BRANCH   1  14
DOCKED: ATOM     14  C   UNL     1      27.060 -14.122  -1.039 -0.26 -0.00    +0.000 C 
DOCKED: ATOM     15  O   UNL     1      27.110 -13.289  -1.988 -0.21 -0.00    +0.000 OA
DOCKED: BRANCH  14  19
DOCKED: ATOM     16  C   UNL     1      27.497 -12.739   3.035 -0.29 -0.00    +0.000 A 
DOCKED: ATOM     17  C   UNL     1      27.938 -14.019   2.645 -0.31 -0.00    +0.000 A 
DOCKED: ATOM     18  C   UNL     1      27.790 -14.459   1.327 -0.25 -0.00    +0.000 A 
DOCKED: ATOM     19  C   UNL     1      27.202 -13.632   0.357 -0.24 -0.00    +0.000 A 
DOCKED: ATOM     20  C   UNL     1      26.750 -12.358   0.742 -0.26 -0.00    +0.000 A 
DOCKED: ATOM     21  C   UNL     1      26.897 -11.918   2.059 -0.29 +0.00    +0.000 A 
DOCKED: BRANCH  16  23
DOCKED: ATOM     22  C   UNL     1      27.844 -13.241   5.497 -0.46 -0.00    +0.000 C 
DOCKED: ATOM     23  N   UNL     1      27.652 -12.280   4.403 -0.34 +0.00    +0.000 N 
DOCKED: ATOM     24  C   UNL     1      27.621 -10.847   4.718 -0.35 +0.00    +0.000 C 
DOCKED: ENDBRANCH  16  23
DOCKED: ENDBRANCH  14  19
DOCKED: ENDBRANCH   1  14
DOCKED: TORSDOF 7
DOCKED: TER
DOCKED: ENDMDL
________________________________________________________________________________


	BEGINNING GENETIC ALGORITHM DOCKING 51 of 100
Run: 51 Seed: 1642338121 74550906 [ Run 51 of 100 GA/GALS ]
Beginning LAMARCKIAN GENETIC ALGORITHM (LGA), with a maximum of 2500000 energy evaluations.

Final-Value: -12.913


	FINAL GENETIC ALGORITHM DOCKED STATE
	_______________________________________________


Detailed state:  trans 25.855 -15.764 0.723 quatxyzw -0.221224 0.873654 -0.410923 -0.137588 center 1.174 0.164 -0.352 ntor 7 103.1686 154.6390 -179.9053 133.4300 -113.5095 126.8076 -58.0060
State:	 25.855 -15.764   0.723  -0.223  0.882 -0.415 -164.183    103.17  154.64 -179.91  133.43 -113.51  126.81  -58.01

DOCKED: MODEL       51
DOCKED: USER    Run = 51
DOCKED: USER    DPF = ligand_dock.biased.dpf
DOCKED: USER  
DOCKED: USER    Estimated Free Energy of Binding    =   -9.97 kcal/mol  [=(1)+(2)+(3)-(4)]
DOCKED: USER    Estimated Inhibition Constant, Ki   =   48.88 nM (nanomolar)  [Temperature = 298.15 K]
DOCKED: USER    
DOCKED: USER    (1) Final Intermolecular Energy     =  -12.06 kcal/mol
DOCKED: USER        vdW + Hbond + desolv Energy     =  -12.06 kcal/mol
DOCKED: USER        Electrostatic Energy            =   +0.00 kcal/mol
DOCKED: USER    (2) Final Total Internal Energy     =   -0.85 kcal/mol
DOCKED: USER    (3) Torsional Free Energy           =   +2.09 kcal/mol
DOCKED: USER    (4) Unbound System's Energy  [=(2)] =   -0.85 kcal/mol
DOCKED: USER    
DOCKED: USER    
DOCKED: USER    NEWDPF move ligand.pdbqt
DOCKED: USER    NEWDPF about 1.174000 0.164000 -0.352000
DOCKED: USER    NEWDPF tran0 25.855272 -15.763886 0.723381
DOCKED: USER    NEWDPF quaternion0 -0.221224 0.873654 -0.410923 -0.137588
DOCKED: USER    NEWDPF axisangle0 -0.223348 0.882043 -0.414869 -164.183434
DOCKED: USER    NEWDPF quat0 -0.223348 0.882043 -0.414869 -164.183434
DOCKED: USER    NEWDPF dihe0 103.17 154.64 -179.91 133.43 -113.51 126.81 -58.01 
DOCKED: USER  keepresnum = 1 
DOCKED: USER  
DOCKED: REMARK  Name = 
DOCKED: REMARK  11 active torsions:
DOCKED: REMARK  status: ('A' for Active; 'I' for Inactive)
DOCKED: REMARK    1  A    between atoms: C_1  and  N_2
DOCKED: REMARK    2  A    between atoms: N_2  and  C_3
DOCKED: REMARK    3  A    between atoms: N_2  and  C_22
DOCKED: REMARK    4  A    between atoms: C_6  and  C_9
DOCKED: REMARK    5  A    between atoms: C_9  and  C_10
DOCKED: REMARK    6  A    between atoms: C_10  and  C_11
DOCKED: REMARK    7  A    between atoms: C_10  and  C_20
DOCKED: REMARK    8  A    between atoms: C_12  and  C_13
DOCKED: REMARK    9  A    between atoms: C_12  and  C_19
DOCKED: REMARK   10  A    between atoms: C_14  and  C_15
DOCKED: REMARK   11  A    between atoms: N_16  and  O_17
DOCKED: REMARK                            x       y       z     vdW  Elec       q    Type
DOCKED: REMARK                         _______ _______ _______ _____ _____    ______ ____
DOCKED: USER                              x       y       z     vdW  Elec       q    Type
DOCKED: USER                           _______ _______ _______ _____ _____    ______ ____
DOCKED: ROOT
DOCKED: ATOM      1  C   UNL     1      27.002 -17.147   0.030 -0.47 -0.00    +0.000 C 
DOCKED: ATOM      2  C   UNL     1      27.716 -18.282  -0.711 +0.02 -0.00    +0.000 C 
DOCKED: ENDROOT
DOCKED: BRANCH   1   3
DOCKED: ATOM      3  C   UNL     1      25.504 -17.367   0.017 -0.35 -0.00    +0.000 C 
DOCKED: ATOM      4  C   UNL     1      24.717 -17.188  -1.065 -0.68 -0.00    +0.000 C 
DOCKED: ATOM      5  C   UNL     1      25.277 -16.724  -2.391 -0.56 -0.00    +0.000 C 
DOCKED: BRANCH   4   6
DOCKED: ATOM      6  C   UNL     1      23.254 -17.398  -0.901 -0.74 -0.00    +0.000 C 
DOCKED: ATOM      7  C   UNL     1      22.705 -18.604  -0.702 -0.84 -0.00    +0.000 C 
DOCKED: BRANCH   7   8
DOCKED: ATOM      8  C   UNL     1      21.252 -18.822  -0.539 -0.85 -0.00    +0.000 C 
DOCKED: ATOM      9  N   UNL     1      20.717 -20.020   0.039 -0.70 -0.00    +0.000 N 
DOCKED: ATOM     10  O   UNL     1      20.463 -17.909  -0.901 -2.23 -0.00    +0.000 OA
DOCKED: ATOM     11  H   UNL     1      21.324 -20.697   0.418 -0.58 -0.00    +0.000 HD
DOCKED: BRANCH   9  12
DOCKED: ATOM     12  O   UNL     1      19.379 -20.224   0.066 -0.85 -0.00    +0.000 OA
DOCKED: ATOM     13  H   UNL     1      19.134 -20.859  -0.625 -0.46 -0.00    +0.000 HD
DOCKED: ENDBRANCH   9  12
DOCKED: ENDBRANCH   7   8
DOCKED: ENDBRANCH   4   6
DOCKED: ENDBRANCH   1   3
DOCKED: BRANCH   1  14
DOCKED: ATOM     14  C   UNL     1      27.350 -15.823  -0.616 -0.36 -0.00    +0.000 C 
DOCKED: ATOM     15  O   UNL     1      27.784 -15.821  -1.802 -0.28 -0.00    +0.000 OA
DOCKED: BRANCH  14  19
DOCKED: ATOM     16  C   UNL     1      27.007 -12.064   1.495 -0.26 +0.00    +0.000 A 
DOCKED: ATOM     17  C   UNL     1      28.196 -12.819   1.534 -0.17 -0.00    +0.000 A 
DOCKED: ATOM     18  C   UNL     1      28.297 -14.034   0.852 -0.19 -0.00    +0.000 A 
DOCKED: ATOM     19  C   UNL     1      27.216 -14.530   0.105 -0.26 -0.00    +0.000 A 
DOCKED: ATOM     20  C   UNL     1      26.024 -13.786   0.070 -0.23 -0.00    +0.000 A 
DOCKED: ATOM     21  C   UNL     1      25.922 -12.571   0.752 -0.27 -0.00    +0.000 A 
DOCKED: BRANCH  16  23
DOCKED: ATOM     22  C   UNL     1      27.373 -10.677   3.587 -0.28 +0.00    +0.000 C 
DOCKED: ATOM     23  N   UNL     1      26.901 -10.800   2.202 -0.29 +0.00    +0.000 N 
DOCKED: ATOM     24  C   UNL     1      26.322  -9.623   1.543 -0.18 +0.00    +0.000 C 
DOCKED: ENDBRANCH  16  23
DOCKED: ENDBRANCH  14  19
DOCKED: ENDBRANCH   1  14
DOCKED: TORSDOF 7
DOCKED: TER
DOCKED: ENDMDL
________________________________________________________________________________


	BEGINNING GENETIC ALGORITHM DOCKING 52 of 100
Run: 52 Seed: 959760602 1946852215 [ Run 52 of 100 GA/GALS ]
Beginning LAMARCKIAN GENETIC ALGORITHM (LGA), with a maximum of 2500000 energy evaluations.

Final-Value: -14.611


	FINAL GENETIC ALGORITHM DOCKED STATE
	_______________________________________________


Detailed state:  trans 26.372 -17.715 -0.728 quatxyzw -0.022291 0.870135 0.471035 -0.143156 center 1.174 0.164 -0.352 ntor 7 3.3489 180.0000 131.8751 -0.4316 -180.0000 17.3487 158.6850
State:	 26.372 -17.715  -0.728  -0.023  0.879  0.476 -163.539      3.35  180.00  131.88   -0.43 -180.00   17.35  158.68

DOCKED: MODEL       52
DOCKED: USER    Run = 52
DOCKED: USER    DPF = ligand_dock.biased.dpf
DOCKED: USER  
DOCKED: USER    Estimated Free Energy of Binding    =  -10.93 kcal/mol  [=(1)+(2)+(3)-(4)]
DOCKED: USER    Estimated Inhibition Constant, Ki   =    9.81 nM (nanomolar)  [Temperature = 298.15 K]
DOCKED: USER    
DOCKED: USER    (1) Final Intermolecular Energy     =  -13.01 kcal/mol
DOCKED: USER        vdW + Hbond + desolv Energy     =  -13.01 kcal/mol
DOCKED: USER        Electrostatic Energy            =   +0.00 kcal/mol
DOCKED: USER    (2) Final Total Internal Energy     =   -1.60 kcal/mol
DOCKED: USER    (3) Torsional Free Energy           =   +2.09 kcal/mol
DOCKED: USER    (4) Unbound System's Energy  [=(2)] =   -1.60 kcal/mol
DOCKED: USER    
DOCKED: USER    
DOCKED: USER    NEWDPF move ligand.pdbqt
DOCKED: USER    NEWDPF about 1.174000 0.164000 -0.352000
DOCKED: USER    NEWDPF tran0 26.372147 -17.715223 -0.728109
DOCKED: USER    NEWDPF quaternion0 -0.022291 0.870135 0.471035 -0.143156
DOCKED: USER    NEWDPF axisangle0 -0.022523 0.879191 0.475937 -163.538983
DOCKED: USER    NEWDPF quat0 -0.022523 0.879191 0.475937 -163.538983
DOCKED: USER    NEWDPF dihe0 3.35 180.00 131.88 -0.43 -180.00 17.35 158.68 
DOCKED: USER  keepresnum = 1 
DOCKED: USER  
DOCKED: REMARK  Name = 
DOCKED: REMARK  11 active torsions:
DOCKED: REMARK  status: ('A' for Active; 'I' for Inactive)
DOCKED: REMARK    1  A    between atoms: C_1  and  N_2
DOCKED: REMARK    2  A    between atoms: N_2  and  C_3
DOCKED: REMARK    3  A    between atoms: N_2  and  C_22
DOCKED: REMARK    4  A    between atoms: C_6  and  C_9
DOCKED: REMARK    5  A    between atoms: C_9  and  C_10
DOCKED: REMARK    6  A    between atoms: C_10  and  C_11
DOCKED: REMARK    7  A    between atoms: C_10  and  C_20
DOCKED: REMARK    8  A    between atoms: C_12  and  C_13
DOCKED: REMARK    9  A    between atoms: C_12  and  C_19
DOCKED: REMARK   10  A    between atoms: C_14  and  C_15
DOCKED: REMARK   11  A    between atoms: N_16  and  O_17
DOCKED: REMARK                            x       y       z     vdW  Elec       q    Type
DOCKED: REMARK                         _______ _______ _______ _____ _____    ______ ____
DOCKED: USER                              x       y       z     vdW  Elec       q    Type
DOCKED: USER                           _______ _______ _______ _____ _____    ______ ____
DOCKED: ROOT
DOCKED: ATOM      1  C   UNL     1      27.134 -16.539  -2.049 -0.38 -0.00    +0.000 C 
DOCKED: ATOM      2  C   UNL     1      27.529 -15.436  -3.036 -0.32 -0.00    +0.000 C 
DOCKED: ENDROOT
DOCKED: BRANCH   1   3
DOCKED: ATOM      3  C   UNL     1      25.626 -16.636  -1.941 -0.57 -0.00    +0.000 C 
DOCKED: ATOM      4  C   UNL     1      24.973 -17.556  -1.200 -0.69 -0.00    +0.000 C 
DOCKED: ATOM      5  C   UNL     1      25.711 -18.609  -0.403 -0.60 -0.00    +0.000 C 
DOCKED: BRANCH   4   6
DOCKED: ATOM      6  C   UNL     1      23.487 -17.550  -1.239 -0.71 -0.00    +0.000 C 
DOCKED: ATOM      7  C   UNL     1      22.742 -18.628  -0.956 -0.83 -0.00    +0.000 C 
DOCKED: BRANCH   7   8
DOCKED: ATOM      8  C   UNL     1      21.265 -18.632  -0.992 -0.81 -0.00    +0.000 C 
DOCKED: ATOM      9  N   UNL     1      20.508 -19.807  -1.313 -0.80 -0.00    +0.000 N 
DOCKED: ATOM     10  O   UNL     1      20.655 -17.567  -0.707 -2.14 +0.00    +0.000 OA
DOCKED: ATOM     11  H   UNL     1      20.969 -20.668  -1.439 -0.21 -0.00    +0.000 HD
DOCKED: BRANCH   9  12
DOCKED: ATOM     12  O   UNL     1      19.163 -19.735  -1.445 -1.18 -0.00    +0.000 OA
DOCKED: ATOM     13  H   UNL     1      18.876 -18.814  -1.344 -0.58 -0.00    +0.000 HD
DOCKED: ENDBRANCH   9  12
DOCKED: ENDBRANCH   7   8
DOCKED: ENDBRANCH   4   6
DOCKED: ENDBRANCH   1   3
DOCKED: BRANCH   1  14
DOCKED: ATOM     14  C   UNL     1      27.746 -16.251  -0.695 -0.37 -0.00    +0.000 C 
DOCKED: ATOM     15  O   UNL     1      28.497 -17.120  -0.171 -0.32 -0.00    +0.000 OA
DOCKED: BRANCH  14  19
DOCKED: ATOM     16  C   UNL     1      26.921 -12.578   1.433 -0.28 -0.00    +0.000 A 
DOCKED: ATOM     17  C   UNL     1      26.036 -13.071   0.454 -0.25 -0.00    +0.000 A 
DOCKED: ATOM     18  C   UNL     1      26.312 -14.257  -0.231 -0.28 -0.00    +0.000 A 
DOCKED: ATOM     19  C   UNL     1      27.477 -14.990   0.044 -0.26 -0.00    +0.000 A 
DOCKED: ATOM     20  C   UNL     1      28.369 -14.499   1.013 -0.21 -0.00    +0.000 A 
DOCKED: ATOM     21  C   UNL     1      28.094 -13.313   1.699 -0.21 -0.00    +0.000 A 
DOCKED: BRANCH  16  23
DOCKED: ATOM     22  C   UNL     1      25.695 -10.364   1.595 -0.40 +0.00    +0.000 C 
DOCKED: ATOM     23  N   UNL     1      26.634 -11.347   2.147 -0.33 +0.00    +0.000 N 
DOCKED: ATOM     24  C   UNL     1      27.278 -11.065   3.437 -0.28 +0.00    +0.000 C 
DOCKED: ENDBRANCH  16  23
DOCKED: ENDBRANCH  14  19
DOCKED: ENDBRANCH   1  14
DOCKED: TORSDOF 7
DOCKED: TER
DOCKED: ENDMDL
________________________________________________________________________________


	BEGINNING GENETIC ALGORITHM DOCKING 53 of 100
Run: 53 Seed: 150638203 446223930 [ Run 53 of 100 GA/GALS ]
Beginning LAMARCKIAN GENETIC ALGORITHM (LGA), with a maximum of 2500000 energy evaluations.

Final-Value: -14.994


	FINAL GENETIC ALGORITHM DOCKED STATE
	_______________________________________________


Detailed state:  trans 25.782 -15.810 -0.192 quatxyzw 0.291798 -0.924862 0.055875 0.237406 center 1.174 0.164 -0.352 ntor 7 -24.2792 159.2967 27.8091 97.9891 -158.1221 -37.6143 -32.8243
State:	 25.782 -15.810  -0.192   0.300 -0.952  0.058 152.533    -24.28  159.30   27.81   97.99 -158.12  -37.61  -32.82

DOCKED: MODEL       53
DOCKED: USER    Run = 53
DOCKED: USER    DPF = ligand_dock.biased.dpf
DOCKED: USER  
DOCKED: USER    Estimated Free Energy of Binding    =  -11.26 kcal/mol  [=(1)+(2)+(3)-(4)]
DOCKED: USER    Estimated Inhibition Constant, Ki   =    5.54 nM (nanomolar)  [Temperature = 298.15 K]
DOCKED: USER    
DOCKED: USER    (1) Final Intermolecular Energy     =  -13.35 kcal/mol
DOCKED: USER        vdW + Hbond + desolv Energy     =  -13.35 kcal/mol
DOCKED: USER        Electrostatic Energy            =   +0.00 kcal/mol
DOCKED: USER    (2) Final Total Internal Energy     =   -1.64 kcal/mol
DOCKED: USER    (3) Torsional Free Energy           =   +2.09 kcal/mol
DOCKED: USER    (4) Unbound System's Energy  [=(2)] =   -1.64 kcal/mol
DOCKED: USER    
DOCKED: USER    
DOCKED: USER    NEWDPF move ligand.pdbqt
DOCKED: USER    NEWDPF about 1.174000 0.164000 -0.352000
DOCKED: USER    NEWDPF tran0 25.782032 -15.810429 -0.192169
DOCKED: USER    NEWDPF quaternion0 0.291798 -0.924862 0.055875 0.237406
DOCKED: USER    NEWDPF axisangle0 0.300386 -0.952082 0.057520 152.533010
DOCKED: USER    NEWDPF quat0 0.300386 -0.952082 0.057520 152.533010
DOCKED: USER    NEWDPF dihe0 -24.28 159.30 27.81 97.99 -158.12 -37.61 -32.82 
DOCKED: USER  keepresnum = 1 
DOCKED: USER  
DOCKED: REMARK  Name = 
DOCKED: REMARK  11 active torsions:
DOCKED: REMARK  status: ('A' for Active; 'I' for Inactive)
DOCKED: REMARK    1  A    between atoms: C_1  and  N_2
DOCKED: REMARK    2  A    between atoms: N_2  and  C_3
DOCKED: REMARK    3  A    between atoms: N_2  and  C_22
DOCKED: REMARK    4  A    between atoms: C_6  and  C_9
DOCKED: REMARK    5  A    between atoms: C_9  and  C_10
DOCKED: REMARK    6  A    between atoms: C_10  and  C_11
DOCKED: REMARK    7  A    between atoms: C_10  and  C_20
DOCKED: REMARK    8  A    between atoms: C_12  and  C_13
DOCKED: REMARK    9  A    between atoms: C_12  and  C_19
DOCKED: REMARK   10  A    between atoms: C_14  and  C_15
DOCKED: REMARK   11  A    between atoms: N_16  and  O_17
DOCKED: REMARK                            x       y       z     vdW  Elec       q    Type
DOCKED: REMARK                         _______ _______ _______ _____ _____    ______ ____
DOCKED: USER                              x       y       z     vdW  Elec       q    Type
DOCKED: USER                           _______ _______ _______ _____ _____    ______ ____
DOCKED: ROOT
DOCKED: ATOM      1  C   UNL     1      27.114 -16.055  -1.561 -0.38 -0.00    +0.000 C 
DOCKED: ATOM      2  C   UNL     1      27.964 -16.212  -2.826 -0.27 -0.00    +0.000 C 
DOCKED: ENDROOT
DOCKED: BRANCH   1   3
DOCKED: ATOM      3  C   UNL     1      25.728 -16.624  -1.782 -0.57 -0.00    +0.000 C 
DOCKED: ATOM      4  C   UNL     1      25.182 -17.611  -1.039 -0.68 -0.00    +0.000 C 
DOCKED: ATOM      5  C   UNL     1      25.936 -18.262   0.099 -0.64 -0.00    +0.000 C 
DOCKED: BRANCH   4   6
DOCKED: ATOM      6  C   UNL     1      23.828 -18.094  -1.415 -0.76 -0.00    +0.000 C 
DOCKED: ATOM      7  C   UNL     1      22.722 -17.788  -0.721 -0.80 -0.00    +0.000 C 
DOCKED: BRANCH   7   8
DOCKED: ATOM      8  C   UNL     1      21.372 -18.264  -1.088 -0.67 -0.00    +0.000 C 
DOCKED: ATOM      9  N   UNL     1      21.110 -19.628  -1.447 -0.73 -0.00    +0.000 N 
DOCKED: ATOM     10  O   UNL     1      20.417 -17.442  -1.060 -1.98 -0.00    +0.000 OA
DOCKED: ATOM     11  H   UNL     1      21.826 -20.300  -1.375 -0.29 -0.00    +0.000 HD
DOCKED: BRANCH   9  12
DOCKED: ATOM     12  O   UNL     1      19.882 -19.993  -1.884 -1.79 -0.00    +0.000 OA
DOCKED: ATOM     13  H   UNL     1      19.220 -19.367  -1.551 -0.44 -0.00    +0.000 HD
DOCKED: ENDBRANCH   9  12
DOCKED: ENDBRANCH   7   8
DOCKED: ENDBRANCH   4   6
DOCKED: ENDBRANCH   1   3
DOCKED: BRANCH   1  14
DOCKED: ATOM     14  C   UNL     1      27.033 -14.592  -1.183 -0.29 -0.00    +0.000 C 
DOCKED: ATOM     15  O   UNL     1      26.792 -13.743  -2.087 -0.25 -0.00    +0.000 OA
DOCKED: BRANCH  14  19
DOCKED: ATOM     16  C   UNL     1      27.691 -13.246   2.874 -0.30 -0.00    +0.000 A 
DOCKED: ATOM     17  C   UNL     1      28.541 -14.194   2.270 -0.22 -0.00    +0.000 A 
DOCKED: ATOM     18  C   UNL     1      28.319 -14.626   0.960 -0.20 -0.00    +0.000 A 
DOCKED: ATOM     19  C   UNL     1      27.246 -14.120   0.210 -0.25 -0.00    +0.000 A 
DOCKED: ATOM     20  C   UNL     1      26.388 -13.182   0.810 -0.29 -0.00    +0.000 A 
DOCKED: ATOM     21  C   UNL     1      26.608 -12.750   2.120 -0.29 -0.00    +0.000 A 
DOCKED: BRANCH  16  23
DOCKED: ATOM     22  C   UNL     1      28.318 -13.746   5.280 -0.52 -0.00    +0.000 C 
DOCKED: ATOM     23  N   UNL     1      27.922 -12.795   4.234 -0.36 -0.00    +0.000 N 
DOCKED: ATOM     24  C   UNL     1      27.765 -11.379   4.588 -0.37 +0.00    +0.000 C 
DOCKED: ENDBRANCH  16  23
DOCKED: ENDBRANCH  14  19
DOCKED: ENDBRANCH   1  14
DOCKED: TORSDOF 7
DOCKED: TER
DOCKED: ENDMDL
________________________________________________________________________________


	BEGINNING GENETIC ALGORITHM DOCKING 54 of 100
Run: 54 Seed: 1834986297 1361212098 [ Run 54 of 100 GA/GALS ]
Beginning LAMARCKIAN GENETIC ALGORITHM (LGA), with a maximum of 2500000 energy evaluations.

Final-Value: -14.786


	FINAL GENETIC ALGORITHM DOCKED STATE
	_______________________________________________


Detailed state:  trans 26.128 -15.475 -0.587 quatxyzw 0.213132 -0.969247 -0.120362 0.025474 center 1.174 0.164 -0.352 ntor 7 18.0589 138.9462 179.4435 -64.6794 42.9569 -18.3866 -67.6981
State:	 26.128 -15.475  -0.587   0.213 -0.970 -0.120 177.081     18.06  138.95  179.44  -64.68   42.96  -18.39  -67.70

DOCKED: MODEL       54
DOCKED: USER    Run = 54
DOCKED: USER    DPF = ligand_dock.biased.dpf
DOCKED: USER  
DOCKED: USER    Estimated Free Energy of Binding    =  -10.90 kcal/mol  [=(1)+(2)+(3)-(4)]
DOCKED: USER    Estimated Inhibition Constant, Ki   =   10.32 nM (nanomolar)  [Temperature = 298.15 K]
DOCKED: USER    
DOCKED: USER    (1) Final Intermolecular Energy     =  -12.98 kcal/mol
DOCKED: USER        vdW + Hbond + desolv Energy     =  -12.98 kcal/mol
DOCKED: USER        Electrostatic Energy            =   +0.00 kcal/mol
DOCKED: USER    (2) Final Total Internal Energy     =   -1.80 kcal/mol
DOCKED: USER    (3) Torsional Free Energy           =   +2.09 kcal/mol
DOCKED: USER    (4) Unbound System's Energy  [=(2)] =   -1.80 kcal/mol
DOCKED: USER    
DOCKED: USER    
DOCKED: USER    NEWDPF move ligand.pdbqt
DOCKED: USER    NEWDPF about 1.174000 0.164000 -0.352000
DOCKED: USER    NEWDPF tran0 26.127731 -15.475324 -0.586528
DOCKED: USER    NEWDPF quaternion0 0.213132 -0.969247 -0.120362 0.025474
DOCKED: USER    NEWDPF axisangle0 0.213201 -0.969561 -0.120401 177.080559
DOCKED: USER    NEWDPF quat0 0.213201 -0.969561 -0.120401 177.080559
DOCKED: USER    NEWDPF dihe0 18.06 138.95 179.44 -64.68 42.96 -18.39 -67.70 
DOCKED: USER  keepresnum = 1 
DOCKED: USER  
DOCKED: REMARK  Name = 
DOCKED: REMARK  11 active torsions:
DOCKED: REMARK  status: ('A' for Active; 'I' for Inactive)
DOCKED: REMARK    1  A    between atoms: C_1  and  N_2
DOCKED: REMARK    2  A    between atoms: N_2  and  C_3
DOCKED: REMARK    3  A    between atoms: N_2  and  C_22
DOCKED: REMARK    4  A    between atoms: C_6  and  C_9
DOCKED: REMARK    5  A    between atoms: C_9  and  C_10
DOCKED: REMARK    6  A    between atoms: C_10  and  C_11
DOCKED: REMARK    7  A    between atoms: C_10  and  C_20
DOCKED: REMARK    8  A    between atoms: C_12  and  C_13
DOCKED: REMARK    9  A    between atoms: C_12  and  C_19
DOCKED: REMARK   10  A    between atoms: C_14  and  C_15
DOCKED: REMARK   11  A    between atoms: N_16  and  O_17
DOCKED: REMARK                            x       y       z     vdW  Elec       q    Type
DOCKED: REMARK                         _______ _______ _______ _____ _____    ______ ____
DOCKED: USER                              x       y       z     vdW  Elec       q    Type
DOCKED: USER                           _______ _______ _______ _____ _____    ______ ____
DOCKED: ROOT
DOCKED: ATOM      1  C   UNL     1      26.593 -15.411  -2.454 -0.41 -0.00    +0.000 C 
DOCKED: ATOM      2  C   UNL     1      26.704 -15.268  -3.976 -0.50 -0.00    +0.000 C 
DOCKED: ENDROOT
DOCKED: BRANCH   1   3
DOCKED: ATOM      3  C   UNL     1      25.193 -15.840  -2.065 -0.52 -0.00    +0.000 C 
DOCKED: ATOM      4  C   UNL     1      24.912 -16.724  -1.084 -0.63 -0.00    +0.000 C 
DOCKED: ATOM      5  C   UNL     1      26.002 -17.394  -0.278 -0.59 -0.00    +0.000 C 
DOCKED: BRANCH   4   6
DOCKED: ATOM      6  C   UNL     1      23.486 -17.079  -0.857 -0.68 -0.00    +0.000 C 
DOCKED: ATOM      7  C   UNL     1      22.887 -18.121  -1.451 -0.64 -0.00    +0.000 C 
DOCKED: BRANCH   7   8
DOCKED: ATOM      8  C   UNL     1      21.471 -18.480  -1.232 -0.49 -0.00    +0.000 C 
DOCKED: ATOM      9  N   UNL     1      20.947 -19.773  -1.568 -0.69 -0.00    +0.000 N 
DOCKED: ATOM     10  O   UNL     1      20.707 -17.625  -0.710 -2.17 +0.00    +0.000 OA
DOCKED: ATOM     11  H   UNL     1      21.554 -20.482  -1.882 -0.42 -0.00    +0.000 HD
DOCKED: BRANCH   9  12
DOCKED: ATOM     12  O   UNL     1      19.621 -20.020  -1.455 -1.46 -0.00    +0.000 OA
DOCKED: ATOM     13  H   UNL     1      19.137 -19.180  -1.418 -0.50 -0.00    +0.000 HD
DOCKED: ENDBRANCH   9  12
DOCKED: ENDBRANCH   7   8
DOCKED: ENDBRANCH   4   6
DOCKED: ENDBRANCH   1   3
DOCKED: BRANCH   1  14
DOCKED: ATOM     14  C   UNL     1      26.948 -14.097  -1.794 -0.26 -0.00    +0.000 C 
DOCKED: ATOM     15  O   UNL     1      27.067 -13.067  -2.516 -0.20 -0.00    +0.000 OA
DOCKED: BRANCH  14  19
DOCKED: ATOM     16  C   UNL     1      27.581 -13.734   2.469 -0.30 -0.00    +0.000 A 
DOCKED: ATOM     17  C   UNL     1      26.490 -13.107   1.835 -0.24 -0.00    +0.000 A 
DOCKED: ATOM     18  C   UNL     1      26.295 -13.227   0.456 -0.29 -0.00    +0.000 A 
DOCKED: ATOM     19  C   UNL     1      27.179 -13.981  -0.330 -0.23 -0.00    +0.000 A 
DOCKED: ATOM     20  C   UNL     1      28.276 -14.601   0.294 -0.20 -0.00    +0.000 A 
DOCKED: ATOM     21  C   UNL     1      28.472 -14.482   1.672 -0.19 -0.00    +0.000 A 
DOCKED: BRANCH  16  23
DOCKED: ATOM     22  C   UNL     1      28.013 -12.298   4.514 -0.37 +0.00    +0.000 C 
DOCKED: ATOM     23  N   UNL     1      27.784 -13.612   3.901 -0.43 -0.00    +0.000 N 
DOCKED: ATOM     24  C   UNL     1      27.761 -14.801   4.762 -0.58 -0.00    +0.000 C 
DOCKED: ENDBRANCH  16  23
DOCKED: ENDBRANCH  14  19
DOCKED: ENDBRANCH   1  14
DOCKED: TORSDOF 7
DOCKED: TER
DOCKED: ENDMDL
________________________________________________________________________________


	BEGINNING GENETIC ALGORITHM DOCKING 55 of 100
Run: 55 Seed: 226408168 822977210 [ Run 55 of 100 GA/GALS ]
Beginning LAMARCKIAN GENETIC ALGORITHM (LGA), with a maximum of 2500000 energy evaluations.

Final-Value: -13.828


	FINAL GENETIC ALGORITHM DOCKED STATE
	_______________________________________________


Detailed state:  trans 24.570 -14.915 -3.348 quatxyzw -0.450968 0.548096 -0.677862 -0.191631 center 1.174 0.164 -0.352 ntor 7 20.3023 -171.8755 25.6549 106.4206 -95.6863 -101.9856 -9.5768
State:	 24.570 -14.915  -3.348  -0.459  0.558 -0.691 -157.904     20.30 -171.88   25.65  106.42  -95.69 -101.99   -9.58

DOCKED: MODEL       55
DOCKED: USER    Run = 55
DOCKED: USER    DPF = ligand_dock.biased.dpf
DOCKED: USER  
DOCKED: USER    Estimated Free Energy of Binding    =  -10.40 kcal/mol  [=(1)+(2)+(3)-(4)]
DOCKED: USER    Estimated Inhibition Constant, Ki   =   23.62 nM (nanomolar)  [Temperature = 298.15 K]
DOCKED: USER    
DOCKED: USER    (1) Final Intermolecular Energy     =  -12.49 kcal/mol
DOCKED: USER        vdW + Hbond + desolv Energy     =  -12.49 kcal/mol
DOCKED: USER        Electrostatic Energy            =   +0.00 kcal/mol
DOCKED: USER    (2) Final Total Internal Energy     =   -1.34 kcal/mol
DOCKED: USER    (3) Torsional Free Energy           =   +2.09 kcal/mol
DOCKED: USER    (4) Unbound System's Energy  [=(2)] =   -1.34 kcal/mol
DOCKED: USER    
DOCKED: USER    
DOCKED: USER    NEWDPF move ligand.pdbqt
DOCKED: USER    NEWDPF about 1.174000 0.164000 -0.352000
DOCKED: USER    NEWDPF tran0 24.569828 -14.914572 -3.348288
DOCKED: USER    NEWDPF quaternion0 -0.450968 0.548096 -0.677862 -0.191631
DOCKED: USER    NEWDPF axisangle0 -0.459483 0.558446 -0.690662 -157.903991
DOCKED: USER    NEWDPF quat0 -0.459483 0.558446 -0.690662 -157.903991
DOCKED: USER    NEWDPF dihe0 20.30 -171.88 25.65 106.42 -95.69 -101.99 -9.58 
DOCKED: USER  keepresnum = 1 
DOCKED: USER  
DOCKED: REMARK  Name = 
DOCKED: REMARK  11 active torsions:
DOCKED: REMARK  status: ('A' for Active; 'I' for Inactive)
DOCKED: REMARK    1  A    between atoms: C_1  and  N_2
DOCKED: REMARK    2  A    between atoms: N_2  and  C_3
DOCKED: REMARK    3  A    between atoms: N_2  and  C_22
DOCKED: REMARK    4  A    between atoms: C_6  and  C_9
DOCKED: REMARK    5  A    between atoms: C_9  and  C_10
DOCKED: REMARK    6  A    between atoms: C_10  and  C_11
DOCKED: REMARK    7  A    between atoms: C_10  and  C_20
DOCKED: REMARK    8  A    between atoms: C_12  and  C_13
DOCKED: REMARK    9  A    between atoms: C_12  and  C_19
DOCKED: REMARK   10  A    between atoms: C_14  and  C_15
DOCKED: REMARK   11  A    between atoms: N_16  and  O_17
DOCKED: REMARK                            x       y       z     vdW  Elec       q    Type
DOCKED: REMARK                         _______ _______ _______ _____ _____    ______ ____
DOCKED: USER                              x       y       z     vdW  Elec       q    Type
DOCKED: USER                           _______ _______ _______ _____ _____    ______ ____
DOCKED: ROOT
DOCKED: ATOM      1  C   UNL     1      26.335 -15.579  -2.959 -0.48 -0.00    +0.000 C 
DOCKED: ATOM      2  C   UNL     1      27.639 -16.351  -2.736 -0.26 -0.00    +0.000 C 
DOCKED: ENDROOT
DOCKED: BRANCH   1   3
DOCKED: ATOM      3  C   UNL     1      25.140 -16.462  -2.662 -0.48 -0.00    +0.000 C 
DOCKED: ATOM      4  C   UNL     1      24.922 -17.078  -1.481 -0.66 -0.00    +0.000 C 
DOCKED: ATOM      5  C   UNL     1      25.889 -16.949  -0.325 -0.51 -0.00    +0.000 C 
DOCKED: BRANCH   4   6
DOCKED: ATOM      6  C   UNL     1      23.727 -17.953  -1.365 -0.76 -0.00    +0.000 C 
DOCKED: ATOM      7  C   UNL     1      22.565 -17.541  -0.836 -0.73 -0.00    +0.000 C 
DOCKED: BRANCH   7   8
DOCKED: ATOM      8  C   UNL     1      21.372 -18.403  -0.717 -0.84 -0.00    +0.000 C 
DOCKED: ATOM      9  N   UNL     1      21.450 -19.763  -0.266 -0.66 -0.00    +0.000 N 
DOCKED: ATOM     10  O   UNL     1      20.246 -17.914  -1.001 -2.16 -0.00    +0.000 OA
DOCKED: ATOM     11  H   UNL     1      22.308 -20.125   0.055 -0.53 -0.00    +0.000 HD
DOCKED: BRANCH   9  12
DOCKED: ATOM     12  O   UNL     1      20.348 -20.549  -0.280 -0.81 -0.00    +0.000 OA
DOCKED: ATOM     13  H   UNL     1      19.695 -20.181  -0.896 -0.21 -0.00    +0.000 HD
DOCKED: ENDBRANCH   9  12
DOCKED: ENDBRANCH   7   8
DOCKED: ENDBRANCH   4   6
DOCKED: ENDBRANCH   1   3
DOCKED: BRANCH   1  14
DOCKED: ATOM     14  C   UNL     1      26.281 -15.076  -4.385 -0.57 -0.00    +0.000 C 
DOCKED: ATOM     15  O   UNL     1      26.148 -15.914  -5.321 -1.11 +0.00    +0.000 OA
DOCKED: BRANCH  14  19
DOCKED: ATOM     16  C   UNL     1      26.669 -10.886  -5.385 -0.17 -0.00    +0.000 A 
DOCKED: ATOM     17  C   UNL     1      27.709 -11.800  -5.646 -0.15 -0.00    +0.000 A 
DOCKED: ATOM     18  C   UNL     1      27.577 -13.152  -5.317 -0.23 -0.00    +0.000 A 
DOCKED: ATOM     19  C   UNL     1      26.400 -13.634  -4.722 -0.27 -0.00    +0.000 A 
DOCKED: ATOM     20  C   UNL     1      25.362 -12.725  -4.450 -0.29 -0.00    +0.000 A 
DOCKED: ATOM     21  C   UNL     1      25.494 -11.373  -4.779 -0.33 -0.00    +0.000 A 
DOCKED: BRANCH  16  23
DOCKED: ATOM     22  C   UNL     1      28.112  -8.927  -6.103 -0.04 -0.00    +0.000 C 
DOCKED: ATOM     23  N   UNL     1      26.805  -9.483  -5.729 -0.09 -0.00    +0.000 N 
DOCKED: ATOM     24  C   UNL     1      25.637  -8.594  -5.710 -0.15 -0.00    +0.000 C 
DOCKED: ENDBRANCH  16  23
DOCKED: ENDBRANCH  14  19
DOCKED: ENDBRANCH   1  14
DOCKED: TORSDOF 7
DOCKED: TER
DOCKED: ENDMDL
________________________________________________________________________________


	BEGINNING GENETIC ALGORITHM DOCKING 56 of 100
Run: 56 Seed: 999986813 2127390068 [ Run 56 of 100 GA/GALS ]
Beginning LAMARCKIAN GENETIC ALGORITHM (LGA), with a maximum of 2500000 energy evaluations.

Final-Value: -15.339


	FINAL GENETIC ALGORITHM DOCKED STATE
	_______________________________________________


Detailed state:  trans 25.438 -15.881 0.207 quatxyzw 0.334409 -0.914034 0.046698 0.224794 center 1.174 0.164 -0.352 ntor 7 -2.5473 174.0572 -17.2489 147.0074 176.8348 -61.9367 -27.0993
State:	 25.438 -15.881   0.207   0.343 -0.938  0.048 154.018     -2.55  174.06  -17.25  147.01  176.83  -61.94  -27.10

DOCKED: MODEL       56
DOCKED: USER    Run = 56
DOCKED: USER    DPF = ligand_dock.biased.dpf
DOCKED: USER  
DOCKED: USER    Estimated Free Energy of Binding    =  -11.59 kcal/mol  [=(1)+(2)+(3)-(4)]
DOCKED: USER    Estimated Inhibition Constant, Ki   =    3.18 nM (nanomolar)  [Temperature = 298.15 K]
DOCKED: USER    
DOCKED: USER    (1) Final Intermolecular Energy     =  -13.68 kcal/mol
DOCKED: USER        vdW + Hbond + desolv Energy     =  -13.68 kcal/mol
DOCKED: USER        Electrostatic Energy            =   +0.00 kcal/mol
DOCKED: USER    (2) Final Total Internal Energy     =   -1.66 kcal/mol
DOCKED: USER    (3) Torsional Free Energy           =   +2.09 kcal/mol
DOCKED: USER    (4) Unbound System's Energy  [=(2)] =   -1.66 kcal/mol
DOCKED: USER    
DOCKED: USER    
DOCKED: USER    NEWDPF move ligand.pdbqt
DOCKED: USER    NEWDPF about 1.174000 0.164000 -0.352000
DOCKED: USER    NEWDPF tran0 25.437635 -15.880998 0.206752
DOCKED: USER    NEWDPF quaternion0 0.334409 -0.914034 0.046698 0.224794
DOCKED: USER    NEWDPF axisangle0 0.343193 -0.938042 0.047924 154.018489
DOCKED: USER    NEWDPF quat0 0.343193 -0.938042 0.047924 154.018489
DOCKED: USER    NEWDPF dihe0 -2.55 174.06 -17.25 147.01 176.83 -61.94 -27.10 
DOCKED: USER  keepresnum = 1 
DOCKED: USER  
DOCKED: REMARK  Name = 
DOCKED: REMARK  11 active torsions:
DOCKED: REMARK  status: ('A' for Active; 'I' for Inactive)
DOCKED: REMARK    1  A    between atoms: C_1  and  N_2
DOCKED: REMARK    2  A    between atoms: N_2  and  C_3
DOCKED: REMARK    3  A    between atoms: N_2  and  C_22
DOCKED: REMARK    4  A    between atoms: C_6  and  C_9
DOCKED: REMARK    5  A    between atoms: C_9  and  C_10
DOCKED: REMARK    6  A    between atoms: C_10  and  C_11
DOCKED: REMARK    7  A    between atoms: C_10  and  C_20
DOCKED: REMARK    8  A    between atoms: C_12  and  C_13
DOCKED: REMARK    9  A    between atoms: C_12  and  C_19
DOCKED: REMARK   10  A    between atoms: C_14  and  C_15
DOCKED: REMARK   11  A    between atoms: N_16  and  O_17
DOCKED: REMARK                            x       y       z     vdW  Elec       q    Type
DOCKED: REMARK                         _______ _______ _______ _____ _____    ______ ____
DOCKED: USER                              x       y       z     vdW  Elec       q    Type
DOCKED: USER                           _______ _______ _______ _____ _____    ______ ____
DOCKED: ROOT
DOCKED: ATOM      1  C   UNL     1      26.748 -16.026  -1.197 -0.42 -0.00    +0.000 C 
DOCKED: ATOM      2  C   UNL     1      27.572 -16.124  -2.485 -0.33 -0.00    +0.000 C 
DOCKED: ENDROOT
DOCKED: BRANCH   1   3
DOCKED: ATOM      3  C   UNL     1      25.411 -16.717  -1.372 -0.60 -0.00    +0.000 C 
DOCKED: ATOM      4  C   UNL     1      25.147 -17.978  -0.968 -0.69 -0.00    +0.000 C 
DOCKED: ATOM      5  C   UNL     1      26.198 -18.839  -0.303 -0.44 -0.00    +0.000 C 
DOCKED: BRANCH   4   6
DOCKED: ATOM      6  C   UNL     1      23.798 -18.531  -1.258 -0.78 -0.00    +0.000 C 
DOCKED: ATOM      7  C   UNL     1      22.663 -17.942  -0.856 -0.80 -0.00    +0.000 C 
DOCKED: BRANCH   7   8
DOCKED: ATOM      8  C   UNL     1      21.318 -18.484  -1.139 -0.64 -0.00    +0.000 C 
DOCKED: ATOM      9  N   UNL     1      21.121 -19.707  -1.862 -0.58 -0.00    +0.000 N 
DOCKED: ATOM     10  O   UNL     1      20.314 -17.857  -0.708 -2.22 -0.00    +0.000 OA
DOCKED: ATOM     11  H   UNL     1      21.897 -20.258  -2.116 -0.50 -0.00    +0.000 HD
DOCKED: BRANCH   9  12
DOCKED: ATOM     12  O   UNL     1      19.871 -20.107  -2.196 -1.77 -0.00    +0.000 OA
DOCKED: ATOM     13  H   UNL     1      19.224 -19.478  -1.840 -0.44 -0.00    +0.000 HD
DOCKED: ENDBRANCH   9  12
DOCKED: ENDBRANCH   7   8
DOCKED: ENDBRANCH   4   6
DOCKED: ENDBRANCH   1   3
DOCKED: BRANCH   1  14
DOCKED: ATOM     14  C   UNL     1      26.548 -14.571  -0.833 -0.33 -0.00    +0.000 C 
DOCKED: ATOM     15  O   UNL     1      26.103 -13.779  -1.711 -0.25 -0.00    +0.000 OA
DOCKED: BRANCH  14  19
DOCKED: ATOM     16  C   UNL     1      27.531 -13.061   3.099 -0.32 -0.00    +0.000 A 
DOCKED: ATOM     17  C   UNL     1      28.078 -14.269   2.621 -0.28 -0.00    +0.000 A 
DOCKED: ATOM     18  C   UNL     1      27.752 -14.751   1.351 -0.21 -0.00    +0.000 A 
DOCKED: ATOM     19  C   UNL     1      26.876 -14.039   0.516 -0.25 -0.00    +0.000 A 
DOCKED: ATOM     20  C   UNL     1      26.319 -12.839   0.991 -0.31 -0.00    +0.000 A 
DOCKED: ATOM     21  C   UNL     1      26.643 -12.356   2.262 -0.29 +0.00    +0.000 A 
DOCKED: BRANCH  16  23
DOCKED: ATOM     22  C   UNL     1      28.281 -13.478   5.486 -0.48 -0.00    +0.000 C 
DOCKED: ATOM     23  N   UNL     1      27.870 -12.558   4.418 -0.36 -0.00    +0.000 N 
DOCKED: ATOM     24  C   UNL     1      27.809 -11.120   4.707 -0.37 +0.00    +0.000 C 
DOCKED: ENDBRANCH  16  23
DOCKED: ENDBRANCH  14  19
DOCKED: ENDBRANCH   1  14
DOCKED: TORSDOF 7
DOCKED: TER
DOCKED: ENDMDL
________________________________________________________________________________


	BEGINNING GENETIC ALGORITHM DOCKING 57 of 100
Run: 57 Seed: 368222834 2011591907 [ Run 57 of 100 GA/GALS ]
Beginning LAMARCKIAN GENETIC ALGORITHM (LGA), with a maximum of 2500000 energy evaluations.

Final-Value: -13.319


	FINAL GENETIC ALGORITHM DOCKED STATE
	_______________________________________________


Detailed state:  trans 26.139 -17.335 -1.109 quatxyzw -0.142728 0.874395 0.458450 -0.069895 center 1.174 0.164 -0.352 ntor 7 62.6924 -97.1390 106.9996 44.6991 -47.9312 28.2191 -3.8671
State:	 26.139 -17.335  -1.109  -0.143  0.877  0.460 -171.984     62.69  -97.14  107.00   44.70  -47.93   28.22   -3.87

DOCKED: MODEL       57
DOCKED: USER    Run = 57
DOCKED: USER    DPF = ligand_dock.biased.dpf
DOCKED: USER  
DOCKED: USER    Estimated Free Energy of Binding    =  -10.10 kcal/mol  [=(1)+(2)+(3)-(4)]
DOCKED: USER    Estimated Inhibition Constant, Ki   =   39.55 nM (nanomolar)  [Temperature = 298.15 K]
DOCKED: USER    
DOCKED: USER    (1) Final Intermolecular Energy     =  -12.19 kcal/mol
DOCKED: USER        vdW + Hbond + desolv Energy     =  -12.19 kcal/mol
DOCKED: USER        Electrostatic Energy            =   +0.00 kcal/mol
DOCKED: USER    (2) Final Total Internal Energy     =   -1.13 kcal/mol
DOCKED: USER    (3) Torsional Free Energy           =   +2.09 kcal/mol
DOCKED: USER    (4) Unbound System's Energy  [=(2)] =   -1.13 kcal/mol
DOCKED: USER    
DOCKED: USER    
DOCKED: USER    NEWDPF move ligand.pdbqt
DOCKED: USER    NEWDPF about 1.174000 0.164000 -0.352000
DOCKED: USER    NEWDPF tran0 26.138687 -17.334864 -1.108680
DOCKED: USER    NEWDPF quaternion0 -0.142728 0.874395 0.458450 -0.069895
DOCKED: USER    NEWDPF axisangle0 -0.143078 0.876539 0.459574 -171.984085
DOCKED: USER    NEWDPF quat0 -0.143078 0.876539 0.459574 -171.984085
DOCKED: USER    NEWDPF dihe0 62.69 -97.14 107.00 44.70 -47.93 28.22 -3.87 
DOCKED: USER  keepresnum = 1 
DOCKED: USER  
DOCKED: REMARK  Name = 
DOCKED: REMARK  11 active torsions:
DOCKED: REMARK  status: ('A' for Active; 'I' for Inactive)
DOCKED: REMARK    1  A    between atoms: C_1  and  N_2
DOCKED: REMARK    2  A    between atoms: N_2  and  C_3
DOCKED: REMARK    3  A    between atoms: N_2  and  C_22
DOCKED: REMARK    4  A    between atoms: C_6  and  C_9
DOCKED: REMARK    5  A    between atoms: C_9  and  C_10
DOCKED: REMARK    6  A    between atoms: C_10  and  C_11
DOCKED: REMARK    7  A    between atoms: C_10  and  C_20
DOCKED: REMARK    8  A    between atoms: C_12  and  C_13
DOCKED: REMARK    9  A    between atoms: C_12  and  C_19
DOCKED: REMARK   10  A    between atoms: C_14  and  C_15
DOCKED: REMARK   11  A    between atoms: N_16  and  O_17
DOCKED: REMARK                            x       y       z     vdW  Elec       q    Type
DOCKED: REMARK                         _______ _______ _______ _____ _____    ______ ____
DOCKED: USER                              x       y       z     vdW  Elec       q    Type
DOCKED: USER                           _______ _______ _______ _____ _____    ______ ____
DOCKED: ROOT
DOCKED: ATOM      1  C   UNL     1      26.544 -16.085  -2.517 -0.44 -0.00    +0.000 C 
DOCKED: ATOM      2  C   UNL     1      26.617 -14.983  -3.578 -0.46 -0.00    +0.000 C 
DOCKED: ENDROOT
DOCKED: BRANCH   1   3
DOCKED: ATOM      3  C   UNL     1      25.120 -16.581  -2.367 -0.56 -0.00    +0.000 C 
DOCKED: ATOM      4  C   UNL     1      24.709 -17.442  -1.414 -0.70 -0.00    +0.000 C 
DOCKED: ATOM      5  C   UNL     1      25.665 -18.016  -0.392 -0.68 -0.00    +0.000 C 
DOCKED: BRANCH   4   6
DOCKED: ATOM      6  C   UNL     1      23.286 -17.871  -1.433 -0.70 -0.00    +0.000 C 
DOCKED: ATOM      7  C   UNL     1      22.655 -18.364  -0.357 -0.83 -0.00    +0.000 C 
DOCKED: BRANCH   7   8
DOCKED: ATOM      8  C   UNL     1      21.241 -18.793  -0.367 -0.82 -0.00    +0.000 C 
DOCKED: ATOM      9  N   UNL     1      20.835 -20.106   0.044 -0.67 -0.00    +0.000 N 
DOCKED: ATOM     10  O   UNL     1      20.364 -17.964  -0.729 -2.23 -0.00    +0.000 OA
DOCKED: ATOM     11  H   UNL     1      21.497 -20.728   0.424 -0.60 -0.00    +0.000 HD
DOCKED: BRANCH   9  12
DOCKED: ATOM     12  O   UNL     1      19.544 -20.492  -0.089 -0.83 -0.00    +0.000 OA
DOCKED: ATOM     13  H   UNL     1      19.301 -20.493  -1.028 -0.54 -0.00    +0.000 HD
DOCKED: ENDBRANCH   9  12
DOCKED: ENDBRANCH   7   8
DOCKED: ENDBRANCH   4   6
DOCKED: ENDBRANCH   1   3
DOCKED: BRANCH   1  14
DOCKED: ATOM     14  C   UNL     1      27.061 -15.554  -1.197 -0.35 -0.00    +0.000 C 
DOCKED: ATOM     15  O   UNL     1      26.334 -14.763  -0.533 -0.37 -0.00    +0.000 OA
DOCKED: BRANCH  14  19
DOCKED: ATOM     16  C   UNL     1      30.962 -16.568   0.371 -0.11 -0.00    +0.000 A 
DOCKED: ATOM     17  C   UNL     1      30.311 -15.375   0.743 -0.08 -0.00    +0.000 A 
DOCKED: ATOM     18  C   UNL     1      29.053 -15.054   0.228 -0.16 -0.00    +0.000 A 
DOCKED: ATOM     19  C   UNL     1      28.402 -15.916  -0.668 -0.24 -0.00    +0.000 A 
DOCKED: ATOM     20  C   UNL     1      29.050 -17.103  -1.051 -0.26 -0.00    +0.000 A 
DOCKED: ATOM     21  C   UNL     1      30.309 -17.426  -0.538 -0.16 -0.00    +0.000 A 
DOCKED: BRANCH  16  23
DOCKED: ATOM     22  C   UNL     1      32.456 -17.113   2.347 -0.23 -0.00    +0.000 C 
DOCKED: ATOM     23  N   UNL     1      32.269 -16.904   0.906 -0.13 -0.00    +0.000 N 
DOCKED: ATOM     24  C   UNL     1      33.427 -17.044   0.014 -0.04 -0.00    +0.000 C 
DOCKED: ENDBRANCH  16  23
DOCKED: ENDBRANCH  14  19
DOCKED: ENDBRANCH   1  14
DOCKED: TORSDOF 7
DOCKED: TER
DOCKED: ENDMDL
________________________________________________________________________________


	BEGINNING GENETIC ALGORITHM DOCKING 58 of 100
Run: 58 Seed: 1956135859 1570877507 [ Run 58 of 100 GA/GALS ]
Beginning LAMARCKIAN GENETIC ALGORITHM (LGA), with a maximum of 2500000 energy evaluations.

Final-Value: -13.942


	FINAL GENETIC ALGORITHM DOCKED STATE
	_______________________________________________


Detailed state:  trans 25.439 -15.658 -3.138 quatxyzw -0.201863 0.147926 -0.948558 -0.193928 center 1.174 0.164 -0.352 ntor 7 53.7001 -180.0000 71.6888 114.6526 155.1261 149.7674 -28.6211
State:	 25.439 -15.658  -3.138  -0.206  0.151 -0.967 -157.636     53.70 -180.00   71.69  114.65  155.13  149.77  -28.62

DOCKED: MODEL       58
DOCKED: USER    Run = 58
DOCKED: USER    DPF = ligand_dock.biased.dpf
DOCKED: USER  
DOCKED: USER    Estimated Free Energy of Binding    =  -10.90 kcal/mol  [=(1)+(2)+(3)-(4)]
DOCKED: USER    Estimated Inhibition Constant, Ki   =   10.28 nM (nanomolar)  [Temperature = 298.15 K]
DOCKED: USER    
DOCKED: USER    (1) Final Intermolecular Energy     =  -12.99 kcal/mol
DOCKED: USER        vdW + Hbond + desolv Energy     =  -12.99 kcal/mol
DOCKED: USER        Electrostatic Energy            =   +0.00 kcal/mol
DOCKED: USER    (2) Final Total Internal Energy     =   -0.96 kcal/mol
DOCKED: USER    (3) Torsional Free Energy           =   +2.09 kcal/mol
DOCKED: USER    (4) Unbound System's Energy  [=(2)] =   -0.96 kcal/mol
DOCKED: USER    
DOCKED: USER    
DOCKED: USER    NEWDPF move ligand.pdbqt
DOCKED: USER    NEWDPF about 1.174000 0.164000 -0.352000
DOCKED: USER    NEWDPF tran0 25.438960 -15.658456 -3.137563
DOCKED: USER    NEWDPF quaternion0 -0.201863 0.147926 -0.948558 -0.193928
DOCKED: USER    NEWDPF axisangle0 -0.205769 0.150788 -0.966914 -157.635821
DOCKED: USER    NEWDPF quat0 -0.205769 0.150788 -0.966914 -157.635821
DOCKED: USER    NEWDPF dihe0 53.70 -180.00 71.69 114.65 155.13 149.77 -28.62 
DOCKED: USER  keepresnum = 1 
DOCKED: USER  
DOCKED: REMARK  Name = 
DOCKED: REMARK  11 active torsions:
DOCKED: REMARK  status: ('A' for Active; 'I' for Inactive)
DOCKED: REMARK    1  A    between atoms: C_1  and  N_2
DOCKED: REMARK    2  A    between atoms: N_2  and  C_3
DOCKED: REMARK    3  A    between atoms: N_2  and  C_22
DOCKED: REMARK    4  A    between atoms: C_6  and  C_9
DOCKED: REMARK    5  A    between atoms: C_9  and  C_10
DOCKED: REMARK    6  A    between atoms: C_10  and  C_11
DOCKED: REMARK    7  A    between atoms: C_10  and  C_20
DOCKED: REMARK    8  A    between atoms: C_12  and  C_13
DOCKED: REMARK    9  A    between atoms: C_12  and  C_19
DOCKED: REMARK   10  A    between atoms: C_14  and  C_15
DOCKED: REMARK   11  A    between atoms: N_16  and  O_17
DOCKED: REMARK                            x       y       z     vdW  Elec       q    Type
DOCKED: REMARK                         _______ _______ _______ _____ _____    ______ ____
DOCKED: USER                              x       y       z     vdW  Elec       q    Type
DOCKED: USER                           _______ _______ _______ _____ _____    ______ ____
DOCKED: ROOT
DOCKED: ATOM      1  C   UNL     1      26.292 -15.429  -1.426 -0.42 -0.00    +0.000 C 
DOCKED: ATOM      2  C   UNL     1      26.882 -15.503  -0.014 -0.33 -0.00    +0.000 C 
DOCKED: ENDROOT
DOCKED: BRANCH   1   3
DOCKED: ATOM      3  C   UNL     1      24.986 -16.194  -1.494 -0.54 -0.00    +0.000 C 
DOCKED: ATOM      4  C   UNL     1      24.823 -17.464  -1.068 -0.70 -0.00    +0.000 C 
DOCKED: ATOM      5  C   UNL     1      25.968 -18.261  -0.483 -0.64 -0.00    +0.000 C 
DOCKED: BRANCH   4   6
DOCKED: ATOM      6  C   UNL     1      23.488 -18.091  -1.251 -0.78 -0.00    +0.000 C 
DOCKED: ATOM      7  C   UNL     1      22.505 -18.001  -0.343 -0.82 -0.00    +0.000 C 
DOCKED: BRANCH   7   8
DOCKED: ATOM      8  C   UNL     1      21.176 -18.622  -0.517 -0.81 -0.00    +0.000 C 
DOCKED: ATOM      9  N   UNL     1      20.889 -19.956  -0.076 -0.69 -0.00    +0.000 N 
DOCKED: ATOM     10  O   UNL     1      20.260 -17.941  -1.051 -2.16 -0.00    +0.000 OA
DOCKED: ATOM     11  H   UNL     1      21.565 -20.461   0.432 -0.59 -0.00    +0.000 HD
DOCKED: BRANCH   9  12
DOCKED: ATOM     12  O   UNL     1      19.692 -20.524  -0.357 -0.83 -0.00    +0.000 OA
DOCKED: ATOM     13  H   UNL     1      19.528 -20.476  -1.312 -0.59 -0.00    +0.000 HD
DOCKED: ENDBRANCH   9  12
DOCKED: ENDBRANCH   7   8
DOCKED: ENDBRANCH   4   6
DOCKED: ENDBRANCH   1   3
DOCKED: BRANCH   1  14
DOCKED: ATOM     14  C   UNL     1      27.286 -15.986  -2.421 -0.36 -0.00    +0.000 C 
DOCKED: ATOM     15  O   UNL     1      27.810 -17.112  -2.191 -0.38 -0.00    +0.000 OA
DOCKED: BRANCH  14  19
DOCKED: ATOM     16  C   UNL     1      28.401 -13.797  -5.981 -0.28 -0.00    +0.000 A 
DOCKED: ATOM     17  C   UNL     1      27.447 -13.288  -5.077 -0.24 -0.00    +0.000 A 
DOCKED: ATOM     18  C   UNL     1      27.091 -14.004  -3.931 -0.29 -0.00    +0.000 A 
DOCKED: ATOM     19  C   UNL     1      27.679 -15.247  -3.649 -0.30 -0.00    +0.000 A 
DOCKED: ATOM     20  C   UNL     1      28.623 -15.765  -4.552 -0.28 -0.00    +0.000 A 
DOCKED: ATOM     21  C   UNL     1      28.981 -15.051  -5.698 -0.32 -0.00    +0.000 A 
DOCKED: BRANCH  16  23
DOCKED: ATOM     22  C   UNL     1      27.892 -12.010  -7.707 -0.20 -0.00    +0.000 C 
DOCKED: ATOM     23  N   UNL     1      28.774 -13.054  -7.170 -0.26 -0.00    +0.000 N 
DOCKED: ATOM     24  C   UNL     1      30.041 -13.333  -7.858 -0.18 -0.00    +0.000 C 
DOCKED: ENDBRANCH  16  23
DOCKED: ENDBRANCH  14  19
DOCKED: ENDBRANCH   1  14
DOCKED: TORSDOF 7
DOCKED: TER
DOCKED: ENDMDL
________________________________________________________________________________


	BEGINNING GENETIC ALGORITHM DOCKING 59 of 100
Run: 59 Seed: 2039479493 1231578296 [ Run 59 of 100 GA/GALS ]
Beginning LAMARCKIAN GENETIC ALGORITHM (LGA), with a maximum of 2500000 energy evaluations.

Final-Value: -14.063


	FINAL GENETIC ALGORITHM DOCKED STATE
	_______________________________________________


Detailed state:  trans 24.583 -14.972 -2.718 quatxyzw 0.466926 -0.593654 0.636172 0.157609 center 1.174 0.164 -0.352 ntor 7 3.5172 -150.8507 -3.8314 145.5810 -129.0472 -107.3542 -21.9000
State:	 24.583 -14.972  -2.718   0.473 -0.601  0.644 161.864      3.52 -150.85   -3.83  145.58 -129.05 -107.35  -21.90

DOCKED: MODEL       59
DOCKED: USER    Run = 59
DOCKED: USER    DPF = ligand_dock.biased.dpf
DOCKED: USER  
DOCKED: USER    Estimated Free Energy of Binding    =  -10.59 kcal/mol  [=(1)+(2)+(3)-(4)]
DOCKED: USER    Estimated Inhibition Constant, Ki   =   17.18 nM (nanomolar)  [Temperature = 298.15 K]
DOCKED: USER    
DOCKED: USER    (1) Final Intermolecular Energy     =  -12.68 kcal/mol
DOCKED: USER        vdW + Hbond + desolv Energy     =  -12.68 kcal/mol
DOCKED: USER        Electrostatic Energy            =   +0.00 kcal/mol
DOCKED: USER    (2) Final Total Internal Energy     =   -1.38 kcal/mol
DOCKED: USER    (3) Torsional Free Energy           =   +2.09 kcal/mol
DOCKED: USER    (4) Unbound System's Energy  [=(2)] =   -1.38 kcal/mol
DOCKED: USER    
DOCKED: USER    
DOCKED: USER    NEWDPF move ligand.pdbqt
DOCKED: USER    NEWDPF about 1.174000 0.164000 -0.352000
DOCKED: USER    NEWDPF tran0 24.583172 -14.972379 -2.717633
DOCKED: USER    NEWDPF quaternion0 0.466926 -0.593654 0.636172 0.157609
DOCKED: USER    NEWDPF axisangle0 0.472836 -0.601167 0.644224 161.863765
DOCKED: USER    NEWDPF quat0 0.472836 -0.601167 0.644224 161.863765
DOCKED: USER    NEWDPF dihe0 3.52 -150.85 -3.83 145.58 -129.05 -107.35 -21.90 
DOCKED: USER  keepresnum = 1 
DOCKED: USER  
DOCKED: REMARK  Name = 
DOCKED: REMARK  11 active torsions:
DOCKED: REMARK  status: ('A' for Active; 'I' for Inactive)
DOCKED: REMARK    1  A    between atoms: C_1  and  N_2
DOCKED: REMARK    2  A    between atoms: N_2  and  C_3
DOCKED: REMARK    3  A    between atoms: N_2  and  C_22
DOCKED: REMARK    4  A    between atoms: C_6  and  C_9
DOCKED: REMARK    5  A    between atoms: C_9  and  C_10
DOCKED: REMARK    6  A    between atoms: C_10  and  C_11
DOCKED: REMARK    7  A    between atoms: C_10  and  C_20
DOCKED: REMARK    8  A    between atoms: C_12  and  C_13
DOCKED: REMARK    9  A    between atoms: C_12  and  C_19
DOCKED: REMARK   10  A    between atoms: C_14  and  C_15
DOCKED: REMARK   11  A    between atoms: N_16  and  O_17
DOCKED: REMARK                            x       y       z     vdW  Elec       q    Type
DOCKED: REMARK                         _______ _______ _______ _____ _____    ______ ____
DOCKED: USER                              x       y       z     vdW  Elec       q    Type
DOCKED: USER                           _______ _______ _______ _____ _____    ______ ____
DOCKED: ROOT
DOCKED: ATOM      1  C   UNL     1      26.339 -15.751  -2.581 -0.47 -0.00    +0.000 C 
DOCKED: ATOM      2  C   UNL     1      27.614 -16.601  -2.562 -0.20 -0.00    +0.000 C 
DOCKED: ENDROOT
DOCKED: BRANCH   1   3
DOCKED: ATOM      3  C   UNL     1      25.137 -16.593  -2.208 -0.60 -0.00    +0.000 C 
DOCKED: ATOM      4  C   UNL     1      25.059 -17.364  -1.103 -0.68 -0.00    +0.000 C 
DOCKED: ATOM      5  C   UNL     1      26.206 -17.470  -0.122 -0.56 -0.00    +0.000 C 
DOCKED: BRANCH   4   6
DOCKED: ATOM      6  C   UNL     1      23.827 -18.171  -0.906 -0.80 -0.00    +0.000 C 
DOCKED: ATOM      7  C   UNL     1      22.600 -17.633  -0.844 -0.75 -0.00    +0.000 C 
DOCKED: BRANCH   7   8
DOCKED: ATOM      8  C   UNL     1      21.370 -18.427  -0.648 -0.83 -0.00    +0.000 C 
DOCKED: ATOM      9  N   UNL     1      21.400 -19.793  -0.213 -0.64 -0.00    +0.000 N 
DOCKED: ATOM     10  O   UNL     1      20.257 -17.871  -0.850 -2.19 -0.00    +0.000 OA
DOCKED: ATOM     11  H   UNL     1      22.256 -20.207   0.045 -0.55 -0.00    +0.000 HD
DOCKED: BRANCH   9  12
DOCKED: ATOM     12  O   UNL     1      20.256 -20.515  -0.156 -0.84 -0.00    +0.000 OA
DOCKED: ATOM     13  H   UNL     1      19.520 -19.982  -0.494 -0.08 -0.00    +0.000 HD
DOCKED: ENDBRANCH   9  12
DOCKED: ENDBRANCH   7   8
DOCKED: ENDBRANCH   4   6
DOCKED: ENDBRANCH   1   3
DOCKED: BRANCH   1  14
DOCKED: ATOM     14  C   UNL     1      26.156 -15.142  -3.954 -0.56 -0.00    +0.000 C 
DOCKED: ATOM     15  O   UNL     1      26.106 -15.909  -4.957 -1.00 +0.00    +0.000 OA
DOCKED: BRANCH  14  19
DOCKED: ATOM     16  C   UNL     1      25.902 -10.867  -4.558 -0.26 -0.00    +0.000 A 
DOCKED: ATOM     17  C   UNL     1      27.128 -11.492  -4.254 -0.15 -0.00    +0.000 A 
DOCKED: ATOM     18  C   UNL     1      27.200 -12.873  -4.058 -0.21 -0.00    +0.000 A 
DOCKED: ATOM     19  C   UNL     1      26.052 -13.674  -4.164 -0.39 -0.00    +0.000 A 
DOCKED: ATOM     20  C   UNL     1      24.824 -13.056  -4.456 -0.13 -0.00    +0.000 A 
DOCKED: ATOM     21  C   UNL     1      24.750 -11.675  -4.652 -0.23 -0.00    +0.000 A 
DOCKED: BRANCH  16  23
DOCKED: ATOM     22  C   UNL     1      27.048  -8.623  -4.849 -0.07 -0.00    +0.000 C 
DOCKED: ATOM     23  N   UNL     1      25.826  -9.432  -4.764 -0.18 -0.00    +0.000 N 
DOCKED: ATOM     24  C   UNL     1      24.524  -8.765  -4.894 -0.32 -0.00    +0.000 C 
DOCKED: ENDBRANCH  16  23
DOCKED: ENDBRANCH  14  19
DOCKED: ENDBRANCH   1  14
DOCKED: TORSDOF 7
DOCKED: TER
DOCKED: ENDMDL
________________________________________________________________________________


	BEGINNING GENETIC ALGORITHM DOCKING 60 of 100
Run: 60 Seed: 654097648 335381215 [ Run 60 of 100 GA/GALS ]
Beginning LAMARCKIAN GENETIC ALGORITHM (LGA), with a maximum of 2500000 energy evaluations.

Final-Value: -14.563


	FINAL GENETIC ALGORITHM DOCKED STATE
	_______________________________________________


Detailed state:  trans 25.763 -15.697 -0.784 quatxyzw -0.195402 0.974602 0.109234 -0.006094 center 1.174 0.164 -0.352 ntor 7 -4.1483 -108.9413 179.5638 -17.3486 -140.6081 -24.0174 -62.8345
State:	 25.763 -15.697  -0.784  -0.195  0.975  0.109 -179.302     -4.15 -108.94  179.56  -17.35 -140.61  -24.02  -62.83

DOCKED: MODEL       60
DOCKED: USER    Run = 60
DOCKED: USER    DPF = ligand_dock.biased.dpf
DOCKED: USER  
DOCKED: USER    Estimated Free Energy of Binding    =  -10.66 kcal/mol  [=(1)+(2)+(3)-(4)]
DOCKED: USER    Estimated Inhibition Constant, Ki   =   15.39 nM (nanomolar)  [Temperature = 298.15 K]
DOCKED: USER    
DOCKED: USER    (1) Final Intermolecular Energy     =  -12.75 kcal/mol
DOCKED: USER        vdW + Hbond + desolv Energy     =  -12.75 kcal/mol
DOCKED: USER        Electrostatic Energy            =   +0.00 kcal/mol
DOCKED: USER    (2) Final Total Internal Energy     =   -1.82 kcal/mol
DOCKED: USER    (3) Torsional Free Energy           =   +2.09 kcal/mol
DOCKED: USER    (4) Unbound System's Energy  [=(2)] =   -1.82 kcal/mol
DOCKED: USER    
DOCKED: USER    
DOCKED: USER    NEWDPF move ligand.pdbqt
DOCKED: USER    NEWDPF about 1.174000 0.164000 -0.352000
DOCKED: USER    NEWDPF tran0 25.762574 -15.696716 -0.784127
DOCKED: USER    NEWDPF quaternion0 -0.195402 0.974602 0.109234 -0.006094
DOCKED: USER    NEWDPF axisangle0 -0.195406 0.974620 0.109236 -179.301730
DOCKED: USER    NEWDPF quat0 -0.195406 0.974620 0.109236 -179.301730
DOCKED: USER    NEWDPF dihe0 -4.15 -108.94 179.56 -17.35 -140.61 -24.02 -62.83 
DOCKED: USER  keepresnum = 1 
DOCKED: USER  
DOCKED: REMARK  Name = 
DOCKED: REMARK  11 active torsions:
DOCKED: REMARK  status: ('A' for Active; 'I' for Inactive)
DOCKED: REMARK    1  A    between atoms: C_1  and  N_2
DOCKED: REMARK    2  A    between atoms: N_2  and  C_3
DOCKED: REMARK    3  A    between atoms: N_2  and  C_22
DOCKED: REMARK    4  A    between atoms: C_6  and  C_9
DOCKED: REMARK    5  A    between atoms: C_9  and  C_10
DOCKED: REMARK    6  A    between atoms: C_10  and  C_11
DOCKED: REMARK    7  A    between atoms: C_10  and  C_20
DOCKED: REMARK    8  A    between atoms: C_12  and  C_13
DOCKED: REMARK    9  A    between atoms: C_12  and  C_19
DOCKED: REMARK   10  A    between atoms: C_14  and  C_15
DOCKED: REMARK   11  A    between atoms: N_16  and  O_17
DOCKED: REMARK                            x       y       z     vdW  Elec       q    Type
DOCKED: REMARK                         _______ _______ _______ _____ _____    ______ ____
DOCKED: USER                              x       y       z     vdW  Elec       q    Type
DOCKED: USER                           _______ _______ _______ _____ _____    ______ ____
DOCKED: ROOT
DOCKED: ATOM      1  C   UNL     1      26.158 -15.703  -2.669 -0.49 -0.00    +0.000 C 
DOCKED: ATOM      2  C   UNL     1      26.216 -15.609  -4.197 -0.53 -0.00    +0.000 C 
DOCKED: ENDROOT
DOCKED: BRANCH   1   3
DOCKED: ATOM      3  C   UNL     1      24.761 -16.074  -2.215 -0.46 -0.00    +0.000 C 
DOCKED: ATOM      4  C   UNL     1      24.487 -16.999  -1.272 -0.67 -0.00    +0.000 C 
DOCKED: ATOM      5  C   UNL     1      25.581 -17.780  -0.578 -0.67 -0.00    +0.000 C 
DOCKED: BRANCH   4   6
DOCKED: ATOM      6  C   UNL     1      23.059 -17.284  -0.974 -0.68 -0.00    +0.000 C 
DOCKED: ATOM      7  C   UNL     1      22.588 -18.521  -0.758 -0.84 -0.00    +0.000 C 
DOCKED: BRANCH   7   8
DOCKED: ATOM      8  C   UNL     1      21.170 -18.814  -0.461 -0.83 -0.00    +0.000 C 
DOCKED: ATOM      9  N   UNL     1      20.749 -20.055   0.120 -0.68 -0.00    +0.000 N 
DOCKED: ATOM     10  O   UNL     1      20.309 -17.928  -0.710 -2.22 -0.00    +0.000 OA
DOCKED: ATOM     11  H   UNL     1      21.421 -20.714   0.412 -0.60 -0.00    +0.000 HD
DOCKED: BRANCH   9  12
DOCKED: ATOM     12  O   UNL     1      19.430 -20.324   0.270 -0.81 -0.00    +0.000 OA
DOCKED: ATOM     13  H   UNL     1      18.910 -19.553  -0.004 -0.05 -0.00    +0.000 HD
DOCKED: ENDBRANCH   9  12
DOCKED: ENDBRANCH   7   8
DOCKED: ENDBRANCH   4   6
DOCKED: ENDBRANCH   1   3
DOCKED: BRANCH   1  14
DOCKED: ATOM     14  C   UNL     1      26.580 -14.382  -2.063 -0.31 -0.00    +0.000 C 
DOCKED: ATOM     15  O   UNL     1      26.615 -13.358  -2.802 -0.26 -0.00    +0.000 OA
DOCKED: BRANCH  14  19
DOCKED: ATOM     16  C   UNL     1      27.759 -14.038   2.084 -0.28 -0.00    +0.000 A 
DOCKED: ATOM     17  C   UNL     1      28.481 -14.845   1.182 -0.13 -0.00    +0.000 A 
DOCKED: ATOM     18  C   UNL     1      28.091 -14.953  -0.155 -0.22 -0.00    +0.000 A 
DOCKED: ATOM     19  C   UNL     1      26.972 -14.254  -0.635 -0.25 -0.00    +0.000 A 
DOCKED: ATOM     20  C   UNL     1      26.242 -13.455   0.262 -0.27 -0.00    +0.000 A 
DOCKED: ATOM     21  C   UNL     1      26.630 -13.346   1.599 -0.26 -0.00    +0.000 A 
DOCKED: BRANCH  16  23
DOCKED: ATOM     22  C   UNL     1      29.554 -13.600   3.822 -0.28 -0.00    +0.000 C 
DOCKED: ATOM     23  N   UNL     1      28.165 -13.922   3.473 -0.37 -0.00    +0.000 N 
DOCKED: ATOM     24  C   UNL     1      27.192 -14.125   4.553 -0.57 -0.00    +0.000 C 
DOCKED: ENDBRANCH  16  23
DOCKED: ENDBRANCH  14  19
DOCKED: ENDBRANCH   1  14
DOCKED: TORSDOF 7
DOCKED: TER
DOCKED: ENDMDL
________________________________________________________________________________


	BEGINNING GENETIC ALGORITHM DOCKING 61 of 100
Run: 61 Seed: 1885570014 1950006211 [ Run 61 of 100 GA/GALS ]
Beginning LAMARCKIAN GENETIC ALGORITHM (LGA), with a maximum of 2500000 energy evaluations.

Final-Value: -13.897


	FINAL GENETIC ALGORITHM DOCKED STATE
	_______________________________________________


Detailed state:  trans 25.437 -15.558 -2.508 quatxyzw -0.271164 0.191716 -0.938651 -0.093001 center 1.174 0.164 -0.352 ntor 7 10.4894 35.4221 172.9737 -53.7428 -75.3370 148.8366 -21.9167
State:	 25.437 -15.558  -2.508  -0.272  0.193 -0.943 -169.327     10.49   35.42  172.97  -53.74  -75.34  148.84  -21.92

DOCKED: MODEL       61
DOCKED: USER    Run = 61
DOCKED: USER    DPF = ligand_dock.biased.dpf
DOCKED: USER  
DOCKED: USER    Estimated Free Energy of Binding    =  -10.55 kcal/mol  [=(1)+(2)+(3)-(4)]
DOCKED: USER    Estimated Inhibition Constant, Ki   =   18.37 nM (nanomolar)  [Temperature = 298.15 K]
DOCKED: USER    
DOCKED: USER    (1) Final Intermolecular Energy     =  -12.64 kcal/mol
DOCKED: USER        vdW + Hbond + desolv Energy     =  -12.64 kcal/mol
DOCKED: USER        Electrostatic Energy            =   +0.00 kcal/mol
DOCKED: USER    (2) Final Total Internal Energy     =   -1.25 kcal/mol
DOCKED: USER    (3) Torsional Free Energy           =   +2.09 kcal/mol
DOCKED: USER    (4) Unbound System's Energy  [=(2)] =   -1.25 kcal/mol
DOCKED: USER    
DOCKED: USER    
DOCKED: USER    NEWDPF move ligand.pdbqt
DOCKED: USER    NEWDPF about 1.174000 0.164000 -0.352000
DOCKED: USER    NEWDPF tran0 25.436891 -15.558422 -2.507585
DOCKED: USER    NEWDPF quaternion0 -0.271164 0.191716 -0.938651 -0.093001
DOCKED: USER    NEWDPF axisangle0 -0.272345 0.192551 -0.942737 -169.327422
DOCKED: USER    NEWDPF quat0 -0.272345 0.192551 -0.942737 -169.327422
DOCKED: USER    NEWDPF dihe0 10.49 35.42 172.97 -53.74 -75.34 148.84 -21.92 
DOCKED: USER  keepresnum = 1 
DOCKED: USER  
DOCKED: REMARK  Name = 
DOCKED: REMARK  11 active torsions:
DOCKED: REMARK  status: ('A' for Active; 'I' for Inactive)
DOCKED: REMARK    1  A    between atoms: C_1  and  N_2
DOCKED: REMARK    2  A    between atoms: N_2  and  C_3
DOCKED: REMARK    3  A    between atoms: N_2  and  C_22
DOCKED: REMARK    4  A    between atoms: C_6  and  C_9
DOCKED: REMARK    5  A    between atoms: C_9  and  C_10
DOCKED: REMARK    6  A    between atoms: C_10  and  C_11
DOCKED: REMARK    7  A    between atoms: C_10  and  C_20
DOCKED: REMARK    8  A    between atoms: C_12  and  C_13
DOCKED: REMARK    9  A    between atoms: C_12  and  C_19
DOCKED: REMARK   10  A    between atoms: C_14  and  C_15
DOCKED: REMARK   11  A    between atoms: N_16  and  O_17
DOCKED: REMARK                            x       y       z     vdW  Elec       q    Type
DOCKED: REMARK                         _______ _______ _______ _____ _____    ______ ____
DOCKED: USER                              x       y       z     vdW  Elec       q    Type
DOCKED: USER                           _______ _______ _______ _____ _____    ______ ____
DOCKED: ROOT
DOCKED: ATOM      1  C   UNL     1      26.610 -15.547  -0.980 -0.39 -0.00    +0.000 C 
DOCKED: ATOM      2  C   UNL     1      27.419 -15.778   0.300 -0.32 -0.00    +0.000 C 
DOCKED: ENDROOT
DOCKED: BRANCH   1   3
DOCKED: ATOM      3  C   UNL     1      25.194 -16.060  -0.810 -0.45 -0.00    +0.000 C 
DOCKED: ATOM      4  C   UNL     1      24.879 -17.299  -0.380 -0.58 -0.00    +0.000 C 
DOCKED: ATOM      5  C   UNL     1      25.942 -18.319  -0.036 -0.64 -0.00    +0.000 C 
DOCKED: BRANCH   4   6
DOCKED: ATOM      6  C   UNL     1      23.440 -17.666  -0.315 -0.73 -0.00    +0.000 C 
DOCKED: ATOM      7  C   UNL     1      22.840 -18.443  -1.228 -0.78 -0.00    +0.000 C 
DOCKED: BRANCH   7   8
DOCKED: ATOM      8  C   UNL     1      21.410 -18.813  -1.171 -0.74 -0.00    +0.000 C 
DOCKED: ATOM      9  N   UNL     1      20.845 -19.822  -2.019 -0.52 -0.00    +0.000 N 
DOCKED: ATOM     10  O   UNL     1      20.672 -18.233  -0.331 -2.00 -0.00    +0.000 OA
DOCKED: ATOM     11  H   UNL     1      21.429 -20.353  -2.608 -0.58 -0.00    +0.000 HD
DOCKED: BRANCH   9  12
DOCKED: ATOM     12  O   UNL     1      19.510 -20.048  -2.011 -1.42 -0.00    +0.000 OA
DOCKED: ATOM     13  H   UNL     1      19.065 -19.344  -1.513 -0.51 -0.00    +0.000 HD
DOCKED: ENDBRANCH   9  12
DOCKED: ENDBRANCH   7   8
DOCKED: ENDBRANCH   4   6
DOCKED: ENDBRANCH   1   3
DOCKED: BRANCH   1  14
DOCKED: ATOM     14  C   UNL     1      27.289 -16.241  -2.141 -0.37 -0.00    +0.000 C 
DOCKED: ATOM     15  O   UNL     1      27.513 -17.482  -2.061 -0.24 -0.00    +0.000 OA
DOCKED: BRANCH  14  19
DOCKED: ATOM     16  C   UNL     1      28.580 -14.132  -5.689 -0.28 -0.00    +0.000 A 
DOCKED: ATOM     17  C   UNL     1      29.464 -14.959  -4.967 -0.20 -0.00    +0.000 A 
DOCKED: ATOM     18  C   UNL     1      29.039 -15.634  -3.820 -0.22 -0.00    +0.000 A 
DOCKED: ATOM     19  C   UNL     1      27.718 -15.509  -3.361 -0.28 -0.00    +0.000 A 
DOCKED: ATOM     20  C   UNL     1      26.834 -14.678  -4.071 -0.39 -0.00    +0.000 A 
DOCKED: ATOM     21  C   UNL     1      27.258 -14.002  -5.218 -0.30 -0.00    +0.000 A 
DOCKED: BRANCH  16  23
DOCKED: ATOM     22  C   UNL     1      28.220 -12.334  -7.441 -0.23 -0.00    +0.000 C 
DOCKED: ATOM     23  N   UNL     1      29.019 -13.431  -6.882 -0.26 -0.00    +0.000 N 
DOCKED: ATOM     24  C   UNL     1      30.272 -13.807  -7.549 -0.21 -0.00    +0.000 C 
DOCKED: ENDBRANCH  16  23
DOCKED: ENDBRANCH  14  19
DOCKED: ENDBRANCH   1  14
DOCKED: TORSDOF 7
DOCKED: TER
DOCKED: ENDMDL
________________________________________________________________________________


	BEGINNING GENETIC ALGORITHM DOCKING 62 of 100
Run: 62 Seed: 1168250690 645660024 [ Run 62 of 100 GA/GALS ]
Beginning LAMARCKIAN GENETIC ALGORITHM (LGA), with a maximum of 2500000 energy evaluations.

Final-Value: -14.586


	FINAL GENETIC ALGORITHM DOCKED STATE
	_______________________________________________


Detailed state:  trans 26.045 -15.741 -0.004 quatxyzw 0.358594 -0.929850 -0.060946 0.055451 center 1.174 0.164 -0.352 ntor 7 1.5017 -7.1967 -12.9201 -174.2533 -179.2967 -44.8412 -53.6539
State:	 26.045 -15.741  -0.004   0.359 -0.931 -0.061 173.643      1.50   -7.20  -12.92 -174.25 -179.30  -44.84  -53.65

DOCKED: MODEL       62
DOCKED: USER    Run = 62
DOCKED: USER    DPF = ligand_dock.biased.dpf
DOCKED: USER  
DOCKED: USER    Estimated Free Energy of Binding    =  -10.71 kcal/mol  [=(1)+(2)+(3)-(4)]
DOCKED: USER    Estimated Inhibition Constant, Ki   =   14.23 nM (nanomolar)  [Temperature = 298.15 K]
DOCKED: USER    
DOCKED: USER    (1) Final Intermolecular Energy     =  -12.79 kcal/mol
DOCKED: USER        vdW + Hbond + desolv Energy     =  -12.79 kcal/mol
DOCKED: USER        Electrostatic Energy            =   +0.00 kcal/mol
DOCKED: USER    (2) Final Total Internal Energy     =   -1.79 kcal/mol
DOCKED: USER    (3) Torsional Free Energy           =   +2.09 kcal/mol
DOCKED: USER    (4) Unbound System's Energy  [=(2)] =   -1.79 kcal/mol
DOCKED: USER    
DOCKED: USER    
DOCKED: USER    NEWDPF move ligand.pdbqt
DOCKED: USER    NEWDPF about 1.174000 0.164000 -0.352000
DOCKED: USER    NEWDPF tran0 26.044836 -15.741323 -0.003893
DOCKED: USER    NEWDPF quaternion0 0.358594 -0.929850 -0.060946 0.055451
DOCKED: USER    NEWDPF axisangle0 0.359147 -0.931283 -0.061039 173.642556
DOCKED: USER    NEWDPF quat0 0.359147 -0.931283 -0.061039 173.642556
DOCKED: USER    NEWDPF dihe0 1.50 -7.20 -12.92 -174.25 -179.30 -44.84 -53.65 
DOCKED: USER  keepresnum = 1 
DOCKED: USER  
DOCKED: REMARK  Name = 
DOCKED: REMARK  11 active torsions:
DOCKED: REMARK  status: ('A' for Active; 'I' for Inactive)
DOCKED: REMARK    1  A    between atoms: C_1  and  N_2
DOCKED: REMARK    2  A    between atoms: N_2  and  C_3
DOCKED: REMARK    3  A    between atoms: N_2  and  C_22
DOCKED: REMARK    4  A    between atoms: C_6  and  C_9
DOCKED: REMARK    5  A    between atoms: C_9  and  C_10
DOCKED: REMARK    6  A    between atoms: C_10  and  C_11
DOCKED: REMARK    7  A    between atoms: C_10  and  C_20
DOCKED: REMARK    8  A    between atoms: C_12  and  C_13
DOCKED: REMARK    9  A    between atoms: C_12  and  C_19
DOCKED: REMARK   10  A    between atoms: C_14  and  C_15
DOCKED: REMARK   11  A    between atoms: N_16  and  O_17
DOCKED: REMARK                            x       y       z     vdW  Elec       q    Type
DOCKED: REMARK                         _______ _______ _______ _____ _____    ______ ____
DOCKED: USER                              x       y       z     vdW  Elec       q    Type
DOCKED: USER                           _______ _______ _______ _____ _____    ______ ____
DOCKED: ROOT
DOCKED: ATOM      1  C   UNL     1      26.718 -15.698  -1.808 -0.40 -0.00    +0.000 C 
DOCKED: ATOM      2  C   UNL     1      26.987 -15.653  -3.315 -0.39 -0.00    +0.000 C 
DOCKED: ENDROOT
DOCKED: BRANCH   1   3
DOCKED: ATOM      3  C   UNL     1      25.454 -16.481  -1.519 -0.58 -0.00    +0.000 C 
DOCKED: ATOM      4  C   UNL     1      25.420 -17.653  -0.850 -0.67 -0.00    +0.000 C 
DOCKED: ATOM      5  C   UNL     1      26.679 -18.311  -0.330 -0.57 -0.00    +0.000 C 
DOCKED: BRANCH   4   6
DOCKED: ATOM      6  C   UNL     1      24.104 -18.324  -0.692 -0.80 -0.00    +0.000 C 
DOCKED: ATOM      7  C   UNL     1      22.934 -17.691  -0.863 -0.77 -0.00    +0.000 C 
DOCKED: BRANCH   7   8
DOCKED: ATOM      8  C   UNL     1      21.620 -18.350  -0.708 -0.85 -0.00    +0.000 C 
DOCKED: ATOM      9  N   UNL     1      21.491 -19.705  -0.255 -0.67 -0.00    +0.000 N 
DOCKED: ATOM     10  O   UNL     1      20.581 -17.686  -0.963 -2.16 -0.00    +0.000 OA
DOCKED: ATOM     11  H   UNL     1      22.287 -20.201   0.044 -0.54 -0.00    +0.000 HD
DOCKED: BRANCH   9  12
DOCKED: ATOM     12  O   UNL     1      20.276 -20.303  -0.236 -0.88 -0.00    +0.000 OA
DOCKED: ATOM     13  H   UNL     1      19.608 -19.690  -0.581 -0.04 -0.00    +0.000 HD
DOCKED: ENDBRANCH   9  12
DOCKED: ENDBRANCH   7   8
DOCKED: ENDBRANCH   4   6
DOCKED: ENDBRANCH   1   3
DOCKED: BRANCH   1  14
DOCKED: ATOM     14  C   UNL     1      26.602 -14.287  -1.271 -0.30 -0.00    +0.000 C 
DOCKED: ATOM     15  O   UNL     1      26.257 -13.363  -2.061 -0.19 -0.00    +0.000 OA
DOCKED: BRANCH  14  19
DOCKED: ATOM     16  C   UNL     1      27.490 -13.347   2.855 -0.32 -0.00    +0.000 A 
DOCKED: ATOM     17  C   UNL     1      28.040 -14.482   2.229 -0.23 -0.00    +0.000 A 
DOCKED: ATOM     18  C   UNL     1      27.745 -14.780   0.896 -0.25 -0.00    +0.000 A 
DOCKED: ATOM     19  C   UNL     1      26.897 -13.951   0.146 -0.26 -0.00    +0.000 A 
DOCKED: ATOM     20  C   UNL     1      26.336 -12.822   0.768 -0.30 -0.00    +0.000 A 
DOCKED: ATOM     21  C   UNL     1      26.630 -12.523   2.101 -0.30 +0.00    +0.000 A 
DOCKED: BRANCH  16  23
DOCKED: ATOM     22  C   UNL     1      27.764 -11.646   4.717 -0.37 +0.00    +0.000 C 
DOCKED: ATOM     23  N   UNL     1      27.797 -13.034   4.239 -0.40 -0.00    +0.000 N 
DOCKED: ATOM     24  C   UNL     1      28.144 -14.101   5.186 -0.54 -0.00    +0.000 C 
DOCKED: ENDBRANCH  16  23
DOCKED: ENDBRANCH  14  19
DOCKED: ENDBRANCH   1  14
DOCKED: TORSDOF 7
DOCKED: TER
DOCKED: ENDMDL
________________________________________________________________________________


	BEGINNING GENETIC ALGORITHM DOCKING 63 of 100
Run: 63 Seed: 486869054 70763513 [ Run 63 of 100 GA/GALS ]
Beginning LAMARCKIAN GENETIC ALGORITHM (LGA), with a maximum of 2500000 energy evaluations.

Final-Value: -14.709


	FINAL GENETIC ALGORITHM DOCKED STATE
	_______________________________________________


Detailed state:  trans 25.814 -15.969 -0.617 quatxyzw 0.361474 -0.924842 -0.089335 0.077607 center 1.174 0.164 -0.352 ntor 7 59.4163 164.0855 21.3313 127.3223 -177.3081 -17.0725 -50.6540
State:	 25.814 -15.969  -0.617   0.363 -0.928 -0.090 171.098     59.42  164.09   21.33  127.32 -177.31  -17.07  -50.65

DOCKED: MODEL       63
DOCKED: USER    Run = 63
DOCKED: USER    DPF = ligand_dock.biased.dpf
DOCKED: USER  
DOCKED: USER    Estimated Free Energy of Binding    =  -11.19 kcal/mol  [=(1)+(2)+(3)-(4)]
DOCKED: USER    Estimated Inhibition Constant, Ki   =    6.25 nM (nanomolar)  [Temperature = 298.15 K]
DOCKED: USER    
DOCKED: USER    (1) Final Intermolecular Energy     =  -13.28 kcal/mol
DOCKED: USER        vdW + Hbond + desolv Energy     =  -13.28 kcal/mol
DOCKED: USER        Electrostatic Energy            =   +0.00 kcal/mol
DOCKED: USER    (2) Final Total Internal Energy     =   -1.43 kcal/mol
DOCKED: USER    (3) Torsional Free Energy           =   +2.09 kcal/mol
DOCKED: USER    (4) Unbound System's Energy  [=(2)] =   -1.43 kcal/mol
DOCKED: USER    
DOCKED: USER    
DOCKED: USER    NEWDPF move ligand.pdbqt
DOCKED: USER    NEWDPF about 1.174000 0.164000 -0.352000
DOCKED: USER    NEWDPF tran0 25.813560 -15.969332 -0.617019
DOCKED: USER    NEWDPF quaternion0 0.361474 -0.924842 -0.089335 0.077607
DOCKED: USER    NEWDPF axisangle0 0.362568 -0.927640 -0.089605 171.097947
DOCKED: USER    NEWDPF quat0 0.362568 -0.927640 -0.089605 171.097947
DOCKED: USER    NEWDPF dihe0 59.42 164.09 21.33 127.32 -177.31 -17.07 -50.65 
DOCKED: USER  keepresnum = 1 
DOCKED: USER  
DOCKED: REMARK  Name = 
DOCKED: REMARK  11 active torsions:
DOCKED: REMARK  status: ('A' for Active; 'I' for Inactive)
DOCKED: REMARK    1  A    between atoms: C_1  and  N_2
DOCKED: REMARK    2  A    between atoms: N_2  and  C_3
DOCKED: REMARK    3  A    between atoms: N_2  and  C_22
DOCKED: REMARK    4  A    between atoms: C_6  and  C_9
DOCKED: REMARK    5  A    between atoms: C_9  and  C_10
DOCKED: REMARK    6  A    between atoms: C_10  and  C_11
DOCKED: REMARK    7  A    between atoms: C_10  and  C_20
DOCKED: REMARK    8  A    between atoms: C_12  and  C_13
DOCKED: REMARK    9  A    between atoms: C_12  and  C_19
DOCKED: REMARK   10  A    between atoms: C_14  and  C_15
DOCKED: REMARK   11  A    between atoms: N_16  and  O_17
DOCKED: REMARK                            x       y       z     vdW  Elec       q    Type
DOCKED: REMARK                         _______ _______ _______ _____ _____    ______ ____
DOCKED: USER                              x       y       z     vdW  Elec       q    Type
DOCKED: USER                           _______ _______ _______ _____ _____    ______ ____
DOCKED: ROOT
DOCKED: ATOM      1  C   UNL     1      26.525 -15.795  -2.398 -0.44 -0.00    +0.000 C 
DOCKED: ATOM      2  C   UNL     1      26.825 -15.644  -3.893 -0.40 -0.00    +0.000 C 
DOCKED: ENDROOT
DOCKED: BRANCH   1   3
DOCKED: ATOM      3  C   UNL     1      25.263 -16.608  -2.192 -0.59 -0.00    +0.000 C 
DOCKED: ATOM      4  C   UNL     1      25.088 -17.505  -1.199 -0.68 -0.00    +0.000 C 
DOCKED: ATOM      5  C   UNL     1      26.174 -17.797  -0.187 -0.62 -0.00    +0.000 C 
DOCKED: BRANCH   4   6
DOCKED: ATOM      6  C   UNL     1      23.808 -18.260  -1.163 -0.79 -0.00    +0.000 C 
DOCKED: ATOM      7  C   UNL     1      22.653 -17.724  -0.743 -0.79 -0.00    +0.000 C 
DOCKED: BRANCH   7   8
DOCKED: ATOM      8  C   UNL     1      21.377 -18.467  -0.703 -0.85 -0.00    +0.000 C 
DOCKED: ATOM      9  N   UNL     1      21.301 -19.841  -0.302 -0.65 -0.00    +0.000 N 
DOCKED: ATOM     10  O   UNL     1      20.318 -17.858  -1.013 -2.19 -0.00    +0.000 OA
DOCKED: ATOM     11  H   UNL     1      22.104 -20.298   0.039 -0.55 -0.00    +0.000 HD
DOCKED: BRANCH   9  12
DOCKED: ATOM     12  O   UNL     1      20.128 -20.512  -0.389 -0.88 -0.00    +0.000 OA
DOCKED: ATOM     13  H   UNL     1      19.825 -20.516  -1.311 -0.54 -0.00    +0.000 HD
DOCKED: ENDBRANCH   9  12
DOCKED: ENDBRANCH   7   8
DOCKED: ENDBRANCH   4   6
DOCKED: ENDBRANCH   1   3
DOCKED: BRANCH   1  14
DOCKED: ATOM     14  C   UNL     1      26.383 -14.426  -1.769 -0.33 -0.00    +0.000 C 
DOCKED: ATOM     15  O   UNL     1      25.990 -13.465  -2.488 -0.13 -0.00    +0.000 OA
DOCKED: BRANCH  14  19
DOCKED: ATOM     16  C   UNL     1      27.357 -13.725   2.386 -0.30 -0.00    +0.000 A 
DOCKED: ATOM     17  C   UNL     1      27.954 -14.776   1.662 -0.11 -0.00    +0.000 A 
DOCKED: ATOM     18  C   UNL     1      27.630 -14.997   0.320 -0.26 -0.00    +0.000 A 
DOCKED: ATOM     19  C   UNL     1      26.707 -14.173  -0.341 -0.27 -0.00    +0.000 A 
DOCKED: ATOM     20  C   UNL     1      26.100 -13.128   0.379 -0.24 -0.00    +0.000 A 
DOCKED: ATOM     21  C   UNL     1      26.422 -12.906   1.720 -0.29 -0.00    +0.000 A 
DOCKED: BRANCH  16  23
DOCKED: ATOM     22  C   UNL     1      27.956 -14.618   4.683 -0.60 -0.00    +0.000 C 
DOCKED: ATOM     23  N   UNL     1      27.693 -13.492   3.779 -0.41 -0.00    +0.000 N 
DOCKED: ATOM     24  C   UNL     1      27.778 -12.125   4.308 -0.36 +0.00    +0.000 C 
DOCKED: ENDBRANCH  16  23
DOCKED: ENDBRANCH  14  19
DOCKED: ENDBRANCH   1  14
DOCKED: TORSDOF 7
DOCKED: TER
DOCKED: ENDMDL
________________________________________________________________________________


	BEGINNING GENETIC ALGORITHM DOCKING 64 of 100
Run: 64 Seed: 1941025851 1005770877 [ Run 64 of 100 GA/GALS ]
Beginning LAMARCKIAN GENETIC ALGORITHM (LGA), with a maximum of 2500000 energy evaluations.

Final-Value: -13.738


	FINAL GENETIC ALGORITHM DOCKED STATE
	_______________________________________________


Detailed state:  trans 25.148 -14.268 -2.326 quatxyzw 0.391694 -0.680317 0.616908 0.056290 center 1.174 0.164 -0.352 ntor 7 34.7581 17.3881 154.1711 -68.4147 -146.0486 -114.4218 -45.5708
State:	 25.148 -14.268  -2.326   0.392 -0.681  0.618 173.546     34.76   17.39  154.17  -68.41 -146.05 -114.42  -45.57

DOCKED: MODEL       64
DOCKED: USER    Run = 64
DOCKED: USER    DPF = ligand_dock.biased.dpf
DOCKED: USER  
DOCKED: USER    Estimated Free Energy of Binding    =  -10.63 kcal/mol  [=(1)+(2)+(3)-(4)]
DOCKED: USER    Estimated Inhibition Constant, Ki   =   16.04 nM (nanomolar)  [Temperature = 298.15 K]
DOCKED: USER    
DOCKED: USER    (1) Final Intermolecular Energy     =  -12.72 kcal/mol
DOCKED: USER        vdW + Hbond + desolv Energy     =  -12.72 kcal/mol
DOCKED: USER        Electrostatic Energy            =   +0.00 kcal/mol
DOCKED: USER    (2) Final Total Internal Energy     =   -1.02 kcal/mol
DOCKED: USER    (3) Torsional Free Energy           =   +2.09 kcal/mol
DOCKED: USER    (4) Unbound System's Energy  [=(2)] =   -1.02 kcal/mol
DOCKED: USER    
DOCKED: USER    
DOCKED: USER    NEWDPF move ligand.pdbqt
DOCKED: USER    NEWDPF about 1.174000 0.164000 -0.352000
DOCKED: USER    NEWDPF tran0 25.148477 -14.268277 -2.325630
DOCKED: USER    NEWDPF quaternion0 0.391694 -0.680317 0.616908 0.056290
DOCKED: USER    NEWDPF axisangle0 0.392316 -0.681398 0.617888 173.546188
DOCKED: USER    NEWDPF quat0 0.392316 -0.681398 0.617888 173.546188
DOCKED: USER    NEWDPF dihe0 34.76 17.39 154.17 -68.41 -146.05 -114.42 -45.57 
DOCKED: USER  keepresnum = 1 
DOCKED: USER  
DOCKED: REMARK  Name = 
DOCKED: REMARK  11 active torsions:
DOCKED: REMARK  status: ('A' for Active; 'I' for Inactive)
DOCKED: REMARK    1  A    between atoms: C_1  and  N_2
DOCKED: REMARK    2  A    between atoms: N_2  and  C_3
DOCKED: REMARK    3  A    between atoms: N_2  and  C_22
DOCKED: REMARK    4  A    between atoms: C_6  and  C_9
DOCKED: REMARK    5  A    between atoms: C_9  and  C_10
DOCKED: REMARK    6  A    between atoms: C_10  and  C_11
DOCKED: REMARK    7  A    between atoms: C_10  and  C_20
DOCKED: REMARK    8  A    between atoms: C_12  and  C_13
DOCKED: REMARK    9  A    between atoms: C_12  and  C_19
DOCKED: REMARK   10  A    between atoms: C_14  and  C_15
DOCKED: REMARK   11  A    between atoms: N_16  and  O_17
DOCKED: REMARK                            x       y       z     vdW  Elec       q    Type
DOCKED: REMARK                         _______ _______ _______ _____ _____    ______ ____
DOCKED: USER                              x       y       z     vdW  Elec       q    Type
DOCKED: USER                           _______ _______ _______ _____ _____    ______ ____
DOCKED: ROOT
DOCKED: ATOM      1  C   UNL     1      26.606 -15.526  -2.366 -0.41 -0.00    +0.000 C 
DOCKED: ATOM      2  C   UNL     1      27.576 -16.706  -2.491 -0.18 -0.00    +0.000 C 
DOCKED: ENDROOT
DOCKED: BRANCH   1   3
DOCKED: ATOM      3  C   UNL     1      25.235 -16.012  -1.945 -0.55 -0.00    +0.000 C 
DOCKED: ATOM      4  C   UNL     1      25.013 -16.912  -0.964 -0.63 -0.00    +0.000 C 
DOCKED: ATOM      5  C   UNL     1      26.149 -17.544  -0.190 -0.59 -0.00    +0.000 C 
DOCKED: BRANCH   4   6
DOCKED: ATOM      6  C   UNL     1      23.609 -17.323  -0.704 -0.73 -0.00    +0.000 C 
DOCKED: ATOM      7  C   UNL     1      23.012 -18.339  -1.344 -0.75 -0.00    +0.000 C 
DOCKED: BRANCH   7   8
DOCKED: ATOM      8  C   UNL     1      21.617 -18.755  -1.091 -0.81 -0.00    +0.000 C 
DOCKED: ATOM      9  N   UNL     1      20.950 -19.734  -1.900 -0.65 -0.00    +0.000 N 
DOCKED: ATOM     10  O   UNL     1      21.004 -18.243  -0.116 -1.66 -0.00    +0.000 OA
DOCKED: ATOM     11  H   UNL     1      21.449 -20.215  -2.600 -0.59 -0.00    +0.000 HD
DOCKED: BRANCH   9  12
DOCKED: ATOM     12  O   UNL     1      19.638 -20.001  -1.702 -1.54 -0.00    +0.000 OA
DOCKED: ATOM     13  H   UNL     1      19.177 -19.187  -1.446 -0.48 -0.00    +0.000 HD
DOCKED: ENDBRANCH   9  12
DOCKED: ENDBRANCH   7   8
DOCKED: ENDBRANCH   4   6
DOCKED: ENDBRANCH   1   3
DOCKED: BRANCH   1  14
DOCKED: ATOM     14  C   UNL     1      26.526 -14.794  -3.688 -0.46 -0.00    +0.000 C 
DOCKED: ATOM     15  O   UNL     1      26.647 -15.455  -4.758 -0.84 -0.00    +0.000 OA
DOCKED: BRANCH  14  19
DOCKED: ATOM     16  C   UNL     1      25.995 -10.507  -3.898 -0.17 -0.00    +0.000 A 
DOCKED: ATOM     17  C   UNL     1      27.075 -11.077  -3.195 -0.12 -0.00    +0.000 A 
DOCKED: ATOM     18  C   UNL     1      27.237 -12.463  -3.129 -0.15 -0.00    +0.000 A 
DOCKED: ATOM     19  C   UNL     1      26.330 -13.323  -3.769 -0.31 -0.00    +0.000 A 
DOCKED: ATOM     20  C   UNL     1      25.245 -12.760  -4.464 -0.27 -0.00    +0.000 A 
DOCKED: ATOM     21  C   UNL     1      25.081 -11.374  -4.530 -0.26 -0.00    +0.000 A 
DOCKED: BRANCH  16  23
DOCKED: ATOM     22  C   UNL     1      24.738  -8.480  -4.760 -0.27 -0.00    +0.000 C 
DOCKED: ATOM     23  N   UNL     1      25.827  -9.067  -3.969 -0.18 -0.00    +0.000 N 
DOCKED: ATOM     24  C   UNL     1      26.741  -8.172  -3.249 -0.10 -0.00    +0.000 C 
DOCKED: ENDBRANCH  16  23
DOCKED: ENDBRANCH  14  19
DOCKED: ENDBRANCH   1  14
DOCKED: TORSDOF 7
DOCKED: TER
DOCKED: ENDMDL
________________________________________________________________________________


	BEGINNING GENETIC ALGORITHM DOCKING 65 of 100
Run: 65 Seed: 1464729979 1511167025 [ Run 65 of 100 GA/GALS ]
Beginning LAMARCKIAN GENETIC ALGORITHM (LGA), with a maximum of 2500000 energy evaluations.

Final-Value: -14.512


	FINAL GENETIC ALGORITHM DOCKED STATE
	_______________________________________________


Detailed state:  trans 26.192 -15.611 -0.258 quatxyzw 0.292136 -0.951945 -0.089791 -0.019879 center 1.174 0.164 -0.352 ntor 7 18.2753 -170.5570 -159.0429 -97.8815 -4.5547 -42.8955 -67.5549
State:	 26.192 -15.611  -0.258   0.292 -0.952 -0.090 -177.722     18.28 -170.56 -159.04  -97.88   -4.55  -42.90  -67.55

DOCKED: MODEL       65
DOCKED: USER    Run = 65
DOCKED: USER    DPF = ligand_dock.biased.dpf
DOCKED: USER  
DOCKED: USER    Estimated Free Energy of Binding    =  -10.72 kcal/mol  [=(1)+(2)+(3)-(4)]
DOCKED: USER    Estimated Inhibition Constant, Ki   =   13.91 nM (nanomolar)  [Temperature = 298.15 K]
DOCKED: USER    
DOCKED: USER    (1) Final Intermolecular Energy     =  -12.81 kcal/mol
DOCKED: USER        vdW + Hbond + desolv Energy     =  -12.81 kcal/mol
DOCKED: USER        Electrostatic Energy            =   +0.00 kcal/mol
DOCKED: USER    (2) Final Total Internal Energy     =   -1.71 kcal/mol
DOCKED: USER    (3) Torsional Free Energy           =   +2.09 kcal/mol
DOCKED: USER    (4) Unbound System's Energy  [=(2)] =   -1.71 kcal/mol
DOCKED: USER    
DOCKED: USER    
DOCKED: USER    NEWDPF move ligand.pdbqt
DOCKED: USER    NEWDPF about 1.174000 0.164000 -0.352000
DOCKED: USER    NEWDPF tran0 26.191640 -15.610670 -0.257537
DOCKED: USER    NEWDPF quaternion0 0.292136 -0.951945 -0.089791 -0.019879
DOCKED: USER    NEWDPF axisangle0 0.292194 -0.952133 -0.089809 -177.721852
DOCKED: USER    NEWDPF quat0 0.292194 -0.952133 -0.089809 -177.721852
DOCKED: USER    NEWDPF dihe0 18.28 -170.56 -159.04 -97.88 -4.55 -42.90 -67.55 
DOCKED: USER  keepresnum = 1 
DOCKED: USER  
DOCKED: REMARK  Name = 
DOCKED: REMARK  11 active torsions:
DOCKED: REMARK  status: ('A' for Active; 'I' for Inactive)
DOCKED: REMARK    1  A    between atoms: C_1  and  N_2
DOCKED: REMARK    2  A    between atoms: N_2  and  C_3
DOCKED: REMARK    3  A    between atoms: N_2  and  C_22
DOCKED: REMARK    4  A    between atoms: C_6  and  C_9
DOCKED: REMARK    5  A    between atoms: C_9  and  C_10
DOCKED: REMARK    6  A    between atoms: C_10  and  C_11
DOCKED: REMARK    7  A    between atoms: C_10  and  C_20
DOCKED: REMARK    8  A    between atoms: C_12  and  C_13
DOCKED: REMARK    9  A    between atoms: C_12  and  C_19
DOCKED: REMARK   10  A    between atoms: C_14  and  C_15
DOCKED: REMARK   11  A    between atoms: N_16  and  O_17
DOCKED: REMARK                            x       y       z     vdW  Elec       q    Type
DOCKED: REMARK                         _______ _______ _______ _____ _____    ______ ____
DOCKED: USER                              x       y       z     vdW  Elec       q    Type
DOCKED: USER                           _______ _______ _______ _____ _____    ______ ____
DOCKED: ROOT
DOCKED: ATOM      1  C   UNL     1      26.548 -15.625  -2.150 -0.42 -0.00    +0.000 C 
DOCKED: ATOM      2  C   UNL     1      26.560 -15.591  -3.682 -0.48 -0.00    +0.000 C 
DOCKED: ENDROOT
DOCKED: BRANCH   1   3
DOCKED: ATOM      3  C   UNL     1      25.263 -16.247  -1.645 -0.57 -0.00    +0.000 C 
DOCKED: ATOM      4  C   UNL     1      25.199 -17.396  -0.939 -0.67 -0.00    +0.000 C 
DOCKED: ATOM      5  C   UNL     1      26.439 -18.192  -0.597 -0.58 -0.00    +0.000 C 
DOCKED: BRANCH   4   6
DOCKED: ATOM      6  C   UNL     1      23.854 -17.902  -0.559 -0.78 -0.00    +0.000 C 
DOCKED: ATOM      7  C   UNL     1      22.901 -18.196  -1.455 -0.67 -0.00    +0.000 C 
DOCKED: BRANCH   7   8
DOCKED: ATOM      8  C   UNL     1      21.562 -18.700  -1.086 -0.81 -0.00    +0.000 C 
DOCKED: ATOM      9  N   UNL     1      20.887 -19.712  -1.846 -0.70 -0.00    +0.000 N 
DOCKED: ATOM     10  O   UNL     1      21.009 -18.235  -0.054 -1.60 -0.00    +0.000 OA
DOCKED: ATOM     11  H   UNL     1      21.350 -20.155  -2.594 -0.58 -0.00    +0.000 HD
DOCKED: BRANCH   9  12
DOCKED: ATOM     12  O   UNL     1      19.617 -20.062  -1.536 -1.45 -0.00    +0.000 OA
DOCKED: ATOM     13  H   UNL     1      19.212 -19.366  -0.996 -0.24 -0.00    +0.000 HD
DOCKED: ENDBRANCH   9  12
DOCKED: ENDBRANCH   7   8
DOCKED: ENDBRANCH   4   6
DOCKED: ENDBRANCH   1   3
DOCKED: BRANCH   1  14
DOCKED: ATOM     14  C   UNL     1      26.704 -14.219  -1.611 -0.29 -0.00    +0.000 C 
DOCKED: ATOM     15  O   UNL     1      26.608 -13.247  -2.412 -0.24 -0.00    +0.000 OA
DOCKED: BRANCH  14  19
DOCKED: ATOM     16  C   UNL     1      27.507 -13.379   2.555 -0.30 -0.00    +0.000 A 
DOCKED: ATOM     17  C   UNL     1      26.995 -12.388   1.694 -0.27 -0.00    +0.000 A 
DOCKED: ATOM     18  C   UNL     1      26.742 -12.668   0.348 -0.24 -0.00    +0.000 A 
DOCKED: ATOM     19  C   UNL     1      26.986 -13.946  -0.177 -0.25 -0.00    +0.000 A 
DOCKED: ATOM     20  C   UNL     1      27.507 -14.936   0.674 -0.25 -0.00    +0.000 A 
DOCKED: ATOM     21  C   UNL     1      27.761 -14.658   2.019 -0.12 -0.00    +0.000 A 
DOCKED: BRANCH  16  23
DOCKED: ATOM     22  C   UNL     1      27.737 -11.710   4.451 -0.35 +0.00    +0.000 C 
DOCKED: ATOM     23  N   UNL     1      27.769 -13.091   3.953 -0.38 -0.00    +0.000 N 
DOCKED: ATOM     24  C   UNL     1      28.067 -14.177   4.896 -0.58 -0.00    +0.000 C 
DOCKED: ENDBRANCH  16  23
DOCKED: ENDBRANCH  14  19
DOCKED: ENDBRANCH   1  14
DOCKED: TORSDOF 7
DOCKED: TER
DOCKED: ENDMDL
________________________________________________________________________________


	BEGINNING GENETIC ALGORITHM DOCKING 66 of 100
Run: 66 Seed: 1007864701 1654630552 [ Run 66 of 100 GA/GALS ]
Beginning LAMARCKIAN GENETIC ALGORITHM (LGA), with a maximum of 2500000 energy evaluations.

Final-Value: -13.922


	FINAL GENETIC ALGORITHM DOCKED STATE
	_______________________________________________


Detailed state:  trans 26.068 -14.724 0.254 quatxyzw -0.221957 0.935552 -0.235607 -0.141304 center 1.174 0.164 -0.352 ntor 7 0.1720 -110.6947 154.7381 -2.1902 -149.2313 -96.1888 146.2550
State:	 26.068 -14.724   0.254  -0.224  0.945 -0.238 -163.753      0.17 -110.69  154.74   -2.19 -149.23  -96.19  146.26

DOCKED: MODEL       66
DOCKED: USER    Run = 66
DOCKED: USER    DPF = ligand_dock.biased.dpf
DOCKED: USER  
DOCKED: USER    Estimated Free Energy of Binding    =  -10.29 kcal/mol  [=(1)+(2)+(3)-(4)]
DOCKED: USER    Estimated Inhibition Constant, Ki   =   28.80 nM (nanomolar)  [Temperature = 298.15 K]
DOCKED: USER    
DOCKED: USER    (1) Final Intermolecular Energy     =  -12.38 kcal/mol
DOCKED: USER        vdW + Hbond + desolv Energy     =  -12.38 kcal/mol
DOCKED: USER        Electrostatic Energy            =   +0.00 kcal/mol
DOCKED: USER    (2) Final Total Internal Energy     =   -1.55 kcal/mol
DOCKED: USER    (3) Torsional Free Energy           =   +2.09 kcal/mol
DOCKED: USER    (4) Unbound System's Energy  [=(2)] =   -1.55 kcal/mol
DOCKED: USER    
DOCKED: USER    
DOCKED: USER    NEWDPF move ligand.pdbqt
DOCKED: USER    NEWDPF about 1.174000 0.164000 -0.352000
DOCKED: USER    NEWDPF tran0 26.067577 -14.724336 0.254420
DOCKED: USER    NEWDPF quaternion0 -0.221957 0.935552 -0.235607 -0.141304
DOCKED: USER    NEWDPF axisangle0 -0.224207 0.945034 -0.237995 -163.753402
DOCKED: USER    NEWDPF quat0 -0.224207 0.945034 -0.237995 -163.753402
DOCKED: USER    NEWDPF dihe0 0.17 -110.69 154.74 -2.19 -149.23 -96.19 146.26 
DOCKED: USER  keepresnum = 1 
DOCKED: USER  
DOCKED: REMARK  Name = 
DOCKED: REMARK  11 active torsions:
DOCKED: REMARK  status: ('A' for Active; 'I' for Inactive)
DOCKED: REMARK    1  A    between atoms: C_1  and  N_2
DOCKED: REMARK    2  A    between atoms: N_2  and  C_3
DOCKED: REMARK    3  A    between atoms: N_2  and  C_22
DOCKED: REMARK    4  A    between atoms: C_6  and  C_9
DOCKED: REMARK    5  A    between atoms: C_9  and  C_10
DOCKED: REMARK    6  A    between atoms: C_10  and  C_11
DOCKED: REMARK    7  A    between atoms: C_10  and  C_20
DOCKED: REMARK    8  A    between atoms: C_12  and  C_13
DOCKED: REMARK    9  A    between atoms: C_12  and  C_19
DOCKED: REMARK   10  A    between atoms: C_14  and  C_15
DOCKED: REMARK   11  A    between atoms: N_16  and  O_17
DOCKED: REMARK                            x       y       z     vdW  Elec       q    Type
DOCKED: REMARK                         _______ _______ _______ _____ _____    ______ ____
DOCKED: USER                              x       y       z     vdW  Elec       q    Type
DOCKED: USER                           _______ _______ _______ _____ _____    ______ ____
DOCKED: ROOT
DOCKED: ATOM      1  C   UNL     1      27.159 -15.727  -0.975 -0.36 -0.00    +0.000 C 
DOCKED: ATOM      2  C   UNL     1      27.811 -16.500  -2.126 -0.33 -0.00    +0.000 C 
DOCKED: ENDROOT
DOCKED: BRANCH   1   3
DOCKED: ATOM      3  C   UNL     1      25.667 -15.989  -0.942 -0.49 -0.00    +0.000 C 
DOCKED: ATOM      4  C   UNL     1      25.110 -17.199  -0.719 -0.65 -0.00    +0.000 C 
DOCKED: ATOM      5  C   UNL     1      25.953 -18.435  -0.493 -0.61 -0.00    +0.000 C 
DOCKED: BRANCH   4   6
DOCKED: ATOM      6  C   UNL     1      23.628 -17.300  -0.767 -0.73 -0.00    +0.000 C 
DOCKED: ATOM      7  C   UNL     1      22.980 -18.437  -1.059 -0.82 -0.00    +0.000 C 
DOCKED: BRANCH   7   8
DOCKED: ATOM      8  C   UNL     1      21.508 -18.547  -1.109 -0.74 -0.00    +0.000 C 
DOCKED: ATOM      9  N   UNL     1      20.843 -19.731  -1.570 -0.77 -0.00    +0.000 N 
DOCKED: ATOM     10  O   UNL     1      20.818 -17.570  -0.711 -2.12 -0.00    +0.000 OA
DOCKED: ATOM     11  H   UNL     1      21.367 -20.535  -1.788 -0.35 -0.00    +0.000 HD
DOCKED: BRANCH   9  12
DOCKED: ATOM     12  O   UNL     1      19.495 -19.746  -1.705 -1.61 -0.00    +0.000 OA
DOCKED: ATOM     13  H   UNL     1      19.135 -18.881  -1.455 -0.56 -0.00    +0.000 HD
DOCKED: ENDBRANCH   9  12
DOCKED: ENDBRANCH   7   8
DOCKED: ENDBRANCH   4   6
DOCKED: ENDBRANCH   1   3
DOCKED: BRANCH   1  14
DOCKED: ATOM     14  C   UNL     1      27.434 -14.248  -1.138 -0.23 -0.00    +0.000 C 
DOCKED: ATOM     15  O   UNL     1      27.789 -13.582  -0.125 -0.18 -0.00    +0.000 OA
DOCKED: BRANCH  14  19
DOCKED: ATOM     16  C   UNL     1      26.945 -12.236  -4.935 -0.21 -0.00    +0.000 A 
DOCKED: ATOM     17  C   UNL     1      25.902 -12.997  -4.370 -0.34 -0.00    +0.000 A 
DOCKED: ATOM     18  C   UNL     1      26.070 -13.646  -3.144 -0.22 -0.00    +0.000 A 
DOCKED: ATOM     19  C   UNL     1      27.282 -13.551  -2.442 -0.18 -0.00    +0.000 A 
DOCKED: ATOM     20  C   UNL     1      28.330 -12.803  -3.005 -0.09 -0.00    +0.000 A 
DOCKED: ATOM     21  C   UNL     1      28.163 -12.153  -4.230 -0.11 -0.00    +0.000 A 
DOCKED: BRANCH  16  23
DOCKED: ATOM     22  C   UNL     1      25.587 -10.729  -6.456 -0.29 -0.00    +0.000 C 
DOCKED: ATOM     23  N   UNL     1      26.772 -11.560  -6.207 -0.20 -0.00    +0.000 N 
DOCKED: ATOM     24  C   UNL     1      27.780 -11.692  -7.266 -0.20 -0.00    +0.000 C 
DOCKED: ENDBRANCH  16  23
DOCKED: ENDBRANCH  14  19
DOCKED: ENDBRANCH   1  14
DOCKED: TORSDOF 7
DOCKED: TER
DOCKED: ENDMDL
________________________________________________________________________________


	BEGINNING GENETIC ALGORITHM DOCKING 67 of 100
Run: 67 Seed: 972094301 1539189463 [ Run 67 of 100 GA/GALS ]
Beginning LAMARCKIAN GENETIC ALGORITHM (LGA), with a maximum of 2500000 energy evaluations.

Final-Value: -14.814


	FINAL GENETIC ALGORITHM DOCKED STATE
	_______________________________________________


Detailed state:  trans 26.042 -15.644 -0.673 quatxyzw -0.199672 0.969230 0.136220 0.046556 center 1.174 0.164 -0.352 ntor 7 3.3839 -21.3135 -143.4912 -48.1042 -147.1618 -28.1600 -77.9427
State:	 26.042 -15.644  -0.673  -0.200  0.970  0.136 174.663      3.38  -21.31 -143.49  -48.10 -147.16  -28.16  -77.94

DOCKED: MODEL       67
DOCKED: USER    Run = 67
DOCKED: USER    DPF = ligand_dock.biased.dpf
DOCKED: USER  
DOCKED: USER    Estimated Free Energy of Binding    =  -10.88 kcal/mol  [=(1)+(2)+(3)-(4)]
DOCKED: USER    Estimated Inhibition Constant, Ki   =   10.57 nM (nanomolar)  [Temperature = 298.15 K]
DOCKED: USER    
DOCKED: USER    (1) Final Intermolecular Energy     =  -12.97 kcal/mol
DOCKED: USER        vdW + Hbond + desolv Energy     =  -12.97 kcal/mol
DOCKED: USER        Electrostatic Energy            =   +0.00 kcal/mol
DOCKED: USER    (2) Final Total Internal Energy     =   -1.85 kcal/mol
DOCKED: USER    (3) Torsional Free Energy           =   +2.09 kcal/mol
DOCKED: USER    (4) Unbound System's Energy  [=(2)] =   -1.85 kcal/mol
DOCKED: USER    
DOCKED: USER    
DOCKED: USER    NEWDPF move ligand.pdbqt
DOCKED: USER    NEWDPF about 1.174000 0.164000 -0.352000
DOCKED: USER    NEWDPF tran0 26.042240 -15.643802 -0.673000
DOCKED: USER    NEWDPF quaternion0 -0.199672 0.969230 0.136220 0.046556
DOCKED: USER    NEWDPF axisangle0 -0.199889 0.970283 0.136368 174.663196
DOCKED: USER    NEWDPF quat0 -0.199889 0.970283 0.136368 174.663196
DOCKED: USER    NEWDPF dihe0 3.38 -21.31 -143.49 -48.10 -147.16 -28.16 -77.94 
DOCKED: USER  keepresnum = 1 
DOCKED: USER  
DOCKED: REMARK  Name = 
DOCKED: REMARK  11 active torsions:
DOCKED: REMARK  status: ('A' for Active; 'I' for Inactive)
DOCKED: REMARK    1  A    between atoms: C_1  and  N_2
DOCKED: REMARK    2  A    between atoms: N_2  and  C_3
DOCKED: REMARK    3  A    between atoms: N_2  and  C_22
DOCKED: REMARK    4  A    between atoms: C_6  and  C_9
DOCKED: REMARK    5  A    between atoms: C_9  and  C_10
DOCKED: REMARK    6  A    between atoms: C_10  and  C_11
DOCKED: REMARK    7  A    between atoms: C_10  and  C_20
DOCKED: REMARK    8  A    between atoms: C_12  and  C_13
DOCKED: REMARK    9  A    between atoms: C_12  and  C_19
DOCKED: REMARK   10  A    between atoms: C_14  and  C_15
DOCKED: REMARK   11  A    between atoms: N_16  and  O_17
DOCKED: REMARK                            x       y       z     vdW  Elec       q    Type
DOCKED: REMARK                         _______ _______ _______ _____ _____    ______ ____
DOCKED: USER                              x       y       z     vdW  Elec       q    Type
DOCKED: USER                           _______ _______ _______ _____ _____    ______ ____
DOCKED: ROOT
DOCKED: ATOM      1  C   UNL     1      26.224 -15.581  -2.589 -0.48 -0.00    +0.000 C 
DOCKED: ATOM      2  C   UNL     1      26.108 -15.437  -4.110 -0.57 -0.00    +0.000 C 
DOCKED: ENDROOT
DOCKED: BRANCH   1   3
DOCKED: ATOM      3  C   UNL     1      24.894 -15.999  -1.995 -0.49 -0.00    +0.000 C 
DOCKED: ATOM      4  C   UNL     1      24.737 -17.014  -1.119 -0.67 -0.00    +0.000 C 
DOCKED: ATOM      5  C   UNL     1      25.905 -17.855  -0.654 -0.65 -0.00    +0.000 C 
DOCKED: BRANCH   4   6
DOCKED: ATOM      6  C   UNL     1      23.357 -17.332  -0.667 -0.73 -0.00    +0.000 C 
DOCKED: ATOM      7  C   UNL     1      22.696 -18.434  -1.049 -0.82 -0.00    +0.000 C 
DOCKED: BRANCH   7   8
DOCKED: ATOM      8  C   UNL     1      21.325 -18.758  -0.605 -0.86 -0.00    +0.000 C 
DOCKED: ATOM      9  N   UNL     1      20.996 -20.006   0.021 -0.66 -0.00    +0.000 N 
DOCKED: ATOM     10  O   UNL     1      20.422 -17.894  -0.763 -2.25 -0.00    +0.000 OA
DOCKED: ATOM     11  H   UNL     1      21.710 -20.648   0.241 -0.58 -0.00    +0.000 HD
DOCKED: BRANCH   9  12
DOCKED: ATOM     12  O   UNL     1      19.708 -20.305   0.309 -0.81 -0.00    +0.000 OA
DOCKED: ATOM     13  H   UNL     1      19.130 -19.598  -0.019 -0.03 -0.00    +0.000 HD
DOCKED: ENDBRANCH   9  12
DOCKED: ENDBRANCH   7   8
DOCKED: ENDBRANCH   4   6
DOCKED: ENDBRANCH   1   3
DOCKED: BRANCH   1  14
DOCKED: ATOM     14  C   UNL     1      26.684 -14.270  -1.989 -0.30 -0.00    +0.000 C 
DOCKED: ATOM     15  O   UNL     1      26.890 -13.289  -2.758 -0.23 -0.00    +0.000 OA
DOCKED: BRANCH  14  19
DOCKED: ATOM     16  C   UNL     1      27.400 -13.824   2.253 -0.28 -0.00    +0.000 A 
DOCKED: ATOM     17  C   UNL     1      28.053 -14.822   1.501 -0.13 -0.00    +0.000 A 
DOCKED: ATOM     18  C   UNL     1      27.813 -14.961   0.131 -0.24 -0.00    +0.000 A 
DOCKED: ATOM     19  C   UNL     1      26.919 -14.104  -0.531 -0.25 -0.00    +0.000 A 
DOCKED: ATOM     20  C   UNL     1      26.257 -13.114   0.215 -0.24 -0.00    +0.000 A 
DOCKED: ATOM     21  C   UNL     1      26.496 -12.974   1.585 -0.30 -0.00    +0.000 A 
DOCKED: BRANCH  16  23
DOCKED: ATOM     22  C   UNL     1      27.802 -12.345   4.273 -0.37 +0.00    +0.000 C 
DOCKED: ATOM     23  N   UNL     1      27.650 -13.677   3.675 -0.43 -0.00    +0.000 N 
DOCKED: ATOM     24  C   UNL     1      27.754 -14.858   4.541 -0.62 -0.00    +0.000 C 
DOCKED: ENDBRANCH  16  23
DOCKED: ENDBRANCH  14  19
DOCKED: ENDBRANCH   1  14
DOCKED: TORSDOF 7
DOCKED: TER
DOCKED: ENDMDL
________________________________________________________________________________


	BEGINNING GENETIC ALGORITHM DOCKING 68 of 100
Run: 68 Seed: 416190694 1107409441 [ Run 68 of 100 GA/GALS ]
Beginning LAMARCKIAN GENETIC ALGORITHM (LGA), with a maximum of 2500000 energy evaluations.

Final-Value: -13.592


	FINAL GENETIC ALGORITHM DOCKED STATE
	_______________________________________________


Detailed state:  trans 25.366 -15.255 0.099 quatxyzw -0.355061 0.875653 -0.260621 -0.198089 center 1.174 0.164 -0.352 ntor 7 3.2879 -100.0814 14.6577 169.1813 67.0731 -93.0640 -24.6165
State:	 25.366 -15.255   0.099  -0.362  0.893 -0.266 -157.150      3.29 -100.08   14.66  169.18   67.07  -93.06  -24.62

DOCKED: MODEL       68
DOCKED: USER    Run = 68
DOCKED: USER    DPF = ligand_dock.biased.dpf
DOCKED: USER  
DOCKED: USER    Estimated Free Energy of Binding    =   -9.95 kcal/mol  [=(1)+(2)+(3)-(4)]
DOCKED: USER    Estimated Inhibition Constant, Ki   =   51.26 nM (nanomolar)  [Temperature = 298.15 K]
DOCKED: USER    
DOCKED: USER    (1) Final Intermolecular Energy     =  -12.03 kcal/mol
DOCKED: USER        vdW + Hbond + desolv Energy     =  -12.03 kcal/mol
DOCKED: USER        Electrostatic Energy            =   +0.00 kcal/mol
DOCKED: USER    (2) Final Total Internal Energy     =   -1.56 kcal/mol
DOCKED: USER    (3) Torsional Free Energy           =   +2.09 kcal/mol
DOCKED: USER    (4) Unbound System's Energy  [=(2)] =   -1.56 kcal/mol
DOCKED: USER    
DOCKED: USER    
DOCKED: USER    NEWDPF move ligand.pdbqt
DOCKED: USER    NEWDPF about 1.174000 0.164000 -0.352000
DOCKED: USER    NEWDPF tran0 25.365745 -15.255230 0.099287
DOCKED: USER    NEWDPF quaternion0 -0.355061 0.875653 -0.260621 -0.198089
DOCKED: USER    NEWDPF axisangle0 -0.362239 0.893356 -0.265890 -157.149525
DOCKED: USER    NEWDPF quat0 -0.362239 0.893356 -0.265890 -157.149525
DOCKED: USER    NEWDPF dihe0 3.29 -100.08 14.66 169.18 67.07 -93.06 -24.62 
DOCKED: USER  keepresnum = 1 
DOCKED: USER  
DOCKED: REMARK  Name = 
DOCKED: REMARK  11 active torsions:
DOCKED: REMARK  status: ('A' for Active; 'I' for Inactive)
DOCKED: REMARK    1  A    between atoms: C_1  and  N_2
DOCKED: REMARK    2  A    between atoms: N_2  and  C_3
DOCKED: REMARK    3  A    between atoms: N_2  and  C_22
DOCKED: REMARK    4  A    between atoms: C_6  and  C_9
DOCKED: REMARK    5  A    between atoms: C_9  and  C_10
DOCKED: REMARK    6  A    between atoms: C_10  and  C_11
DOCKED: REMARK    7  A    between atoms: C_10  and  C_20
DOCKED: REMARK    8  A    between atoms: C_12  and  C_13
DOCKED: REMARK    9  A    between atoms: C_12  and  C_19
DOCKED: REMARK   10  A    between atoms: C_14  and  C_15
DOCKED: REMARK   11  A    between atoms: N_16  and  O_17
DOCKED: REMARK                            x       y       z     vdW  Elec       q    Type
DOCKED: REMARK                         _______ _______ _______ _____ _____    ______ ____
DOCKED: USER                              x       y       z     vdW  Elec       q    Type
DOCKED: USER                           _______ _______ _______ _____ _____    ______ ____
DOCKED: ROOT
DOCKED: ATOM      1  C   UNL     1      26.798 -15.982  -0.962 -0.42 -0.00    +0.000 C 
DOCKED: ATOM      2  C   UNL     1      27.740 -16.613  -1.993 -0.35 -0.00    +0.000 C 
DOCKED: ENDROOT
DOCKED: BRANCH   1   3
DOCKED: ATOM      3  C   UNL     1      25.448 -16.669  -0.990 -0.58 -0.00    +0.000 C 
DOCKED: ATOM      4  C   UNL     1      25.238 -17.952  -0.626 -0.70 -0.00    +0.000 C 
DOCKED: ATOM      5  C   UNL     1      26.368 -18.844  -0.161 -0.43 -0.00    +0.000 C 
DOCKED: BRANCH   4   6
DOCKED: ATOM      6  C   UNL     1      23.860 -18.493  -0.757 -0.81 -0.00    +0.000 C 
DOCKED: ATOM      7  C   UNL     1      22.760 -17.753  -0.561 -0.80 -0.00    +0.000 C 
DOCKED: BRANCH   7   8
DOCKED: ATOM      8  C   UNL     1      21.387 -18.283  -0.690 -0.82 -0.00    +0.000 C 
DOCKED: ATOM      9  N   UNL     1      21.054 -19.639  -0.361 -0.74 -0.00    +0.000 N 
DOCKED: ATOM     10  O   UNL     1      20.476 -17.505  -1.082 -2.08 -0.00    +0.000 OA
DOCKED: ATOM     11  H   UNL     1      21.734 -20.227   0.041 -0.50 -0.00    +0.000 HD
DOCKED: BRANCH   9  12
DOCKED: ATOM     12  O   UNL     1      19.808 -20.111  -0.601 -1.07 -0.00    +0.000 OA
DOCKED: ATOM     13  H   UNL     1      19.282 -19.427  -1.044 -0.22 -0.00    +0.000 HD
DOCKED: ENDBRANCH   9  12
DOCKED: ENDBRANCH   7   8
DOCKED: ENDBRANCH   4   6
DOCKED: ENDBRANCH   1   3
DOCKED: BRANCH   1  14
DOCKED: ATOM     14  C   UNL     1      26.648 -14.504  -1.251 -0.31 -0.00    +0.000 C 
DOCKED: ATOM     15  O   UNL     1      26.292 -14.145  -2.409 -0.33 -0.00    +0.000 OA
DOCKED: BRANCH  14  19
DOCKED: ATOM     16  C   UNL     1      27.399 -11.480   1.748 -0.21 +0.00    +0.000 A 
DOCKED: ATOM     17  C   UNL     1      26.121 -12.052   1.589 -0.31 +0.00    +0.000 A 
DOCKED: ATOM     18  C   UNL     1      25.886 -13.027   0.615 -0.25 -0.00    +0.000 A 
DOCKED: ATOM     19  C   UNL     1      26.922 -13.464  -0.226 -0.23 -0.00    +0.000 A 
DOCKED: ATOM     20  C   UNL     1      28.197 -12.890  -0.080 -0.11 -0.00    +0.000 A 
DOCKED: ATOM     21  C   UNL     1      28.432 -11.915   0.893 -0.09 -0.00    +0.000 A 
DOCKED: BRANCH  16  23
DOCKED: ATOM     22  C   UNL     1      27.417 -10.764   4.181 -0.31 +0.00    +0.000 C 
DOCKED: ATOM     23  N   UNL     1      27.645 -10.470   2.760 -0.22 +0.00    +0.000 N 
DOCKED: ATOM     24  C   UNL     1      28.128  -9.136   2.382 -0.13 +0.00    +0.000 C 
DOCKED: ENDBRANCH  16  23
DOCKED: ENDBRANCH  14  19
DOCKED: ENDBRANCH   1  14
DOCKED: TORSDOF 7
DOCKED: TER
DOCKED: ENDMDL
________________________________________________________________________________


	BEGINNING GENETIC ALGORITHM DOCKING 69 of 100
Run: 69 Seed: 1511953694 1918983095 [ Run 69 of 100 GA/GALS ]
Beginning LAMARCKIAN GENETIC ALGORITHM (LGA), with a maximum of 2500000 energy evaluations.

Final-Value: -14.803


	FINAL GENETIC ALGORITHM DOCKED STATE
	_______________________________________________


Detailed state:  trans 25.825 -15.868 -0.449 quatxyzw 0.350248 -0.927620 -0.039532 0.123628 center 1.174 0.164 -0.352 ntor 7 71.4474 156.8603 31.2928 118.5752 -172.5802 -23.2972 -46.4493
State:	 25.825 -15.868  -0.449   0.353 -0.935 -0.040 165.797     71.45  156.86   31.29  118.58 -172.58  -23.30  -46.45

DOCKED: MODEL       69
DOCKED: USER    Run = 69
DOCKED: USER    DPF = ligand_dock.biased.dpf
DOCKED: USER  
DOCKED: USER    Estimated Free Energy of Binding    =  -11.34 kcal/mol  [=(1)+(2)+(3)-(4)]
DOCKED: USER    Estimated Inhibition Constant, Ki   =    4.88 nM (nanomolar)  [Temperature = 298.15 K]
DOCKED: USER    
DOCKED: USER    (1) Final Intermolecular Energy     =  -13.43 kcal/mol
DOCKED: USER        vdW + Hbond + desolv Energy     =  -13.43 kcal/mol
DOCKED: USER        Electrostatic Energy            =   +0.00 kcal/mol
DOCKED: USER    (2) Final Total Internal Energy     =   -1.38 kcal/mol
DOCKED: USER    (3) Torsional Free Energy           =   +2.09 kcal/mol
DOCKED: USER    (4) Unbound System's Energy  [=(2)] =   -1.38 kcal/mol
DOCKED: USER    
DOCKED: USER    
DOCKED: USER    NEWDPF move ligand.pdbqt
DOCKED: USER    NEWDPF about 1.174000 0.164000 -0.352000
DOCKED: USER    NEWDPF tran0 25.824909 -15.868175 -0.448945
DOCKED: USER    NEWDPF quaternion0 0.350248 -0.927620 -0.039532 0.123628
DOCKED: USER    NEWDPF axisangle0 0.352956 -0.934792 -0.039837 165.796887
DOCKED: USER    NEWDPF quat0 0.352956 -0.934792 -0.039837 165.796887
DOCKED: USER    NEWDPF dihe0 71.45 156.86 31.29 118.58 -172.58 -23.30 -46.45 
DOCKED: USER  keepresnum = 1 
DOCKED: USER  
DOCKED: REMARK  Name = 
DOCKED: REMARK  11 active torsions:
DOCKED: REMARK  status: ('A' for Active; 'I' for Inactive)
DOCKED: REMARK    1  A    between atoms: C_1  and  N_2
DOCKED: REMARK    2  A    between atoms: N_2  and  C_3
DOCKED: REMARK    3  A    between atoms: N_2  and  C_22
DOCKED: REMARK    4  A    between atoms: C_6  and  C_9
DOCKED: REMARK    5  A    between atoms: C_9  and  C_10
DOCKED: REMARK    6  A    between atoms: C_10  and  C_11
DOCKED: REMARK    7  A    between atoms: C_10  and  C_20
DOCKED: REMARK    8  A    between atoms: C_12  and  C_13
DOCKED: REMARK    9  A    between atoms: C_12  and  C_19
DOCKED: REMARK   10  A    between atoms: C_14  and  C_15
DOCKED: REMARK   11  A    between atoms: N_16  and  O_17
DOCKED: REMARK                            x       y       z     vdW  Elec       q    Type
DOCKED: REMARK                         _______ _______ _______ _____ _____    ______ ____
DOCKED: USER                              x       y       z     vdW  Elec       q    Type
DOCKED: USER                           _______ _______ _______ _____ _____    ______ ____
DOCKED: ROOT
DOCKED: ATOM      1  C   UNL     1      26.747 -15.826  -2.139 -0.40 -0.00    +0.000 C 
DOCKED: ATOM      2  C   UNL     1      27.227 -15.775  -3.593 -0.29 -0.00    +0.000 C 
DOCKED: ENDROOT
DOCKED: BRANCH   1   3
DOCKED: ATOM      3  C   UNL     1      25.437 -16.580  -2.041 -0.59 -0.00    +0.000 C 
DOCKED: ATOM      4  C   UNL     1      25.156 -17.500  -1.094 -0.68 -0.00    +0.000 C 
DOCKED: ATOM      5  C   UNL     1      26.160 -17.879  -0.028 -0.63 -0.00    +0.000 C 
DOCKED: BRANCH   4   6
DOCKED: ATOM      6  C   UNL     1      23.841 -18.189  -1.164 -0.79 -0.00    +0.000 C 
DOCKED: ATOM      7  C   UNL     1      22.717 -17.678  -0.642 -0.79 -0.00    +0.000 C 
DOCKED: BRANCH   7   8
DOCKED: ATOM      8  C   UNL     1      21.406 -18.356  -0.707 -0.84 -0.00    +0.000 C 
DOCKED: ATOM      9  N   UNL     1      21.234 -19.731  -0.336 -0.72 -0.00    +0.000 N 
DOCKED: ATOM     10  O   UNL     1      20.403 -17.691  -1.081 -2.13 -0.00    +0.000 OA
DOCKED: ATOM     11  H   UNL     1      21.987 -20.232   0.053 -0.54 -0.00    +0.000 HD
DOCKED: BRANCH   9  12
DOCKED: ATOM     12  O   UNL     1      20.039 -20.341  -0.519 -0.96 -0.00    +0.000 OA
DOCKED: ATOM     13  H   UNL     1      19.892 -20.487  -1.466 -0.58 -0.00    +0.000 HD
DOCKED: ENDBRANCH   9  12
DOCKED: ENDBRANCH   7   8
DOCKED: ENDBRANCH   4   6
DOCKED: ENDBRANCH   1   3
DOCKED: BRANCH   1  14
DOCKED: ATOM     14  C   UNL     1      26.590 -14.418  -1.608 -0.31 -0.00    +0.000 C 
DOCKED: ATOM     15  O   UNL     1      26.246 -13.502  -2.407 -0.25 -0.00    +0.000 OA
DOCKED: BRANCH  14  19
DOCKED: ATOM     16  C   UNL     1      27.362 -13.453   2.537 -0.31 -0.00    +0.000 A 
DOCKED: ATOM     17  C   UNL     1      28.055 -14.493   1.886 -0.23 -0.00    +0.000 A 
DOCKED: ATOM     18  C   UNL     1      27.796 -14.801   0.548 -0.25 -0.00    +0.000 A 
DOCKED: ATOM     19  C   UNL     1      26.843 -14.074  -0.184 -0.26 -0.00    +0.000 A 
DOCKED: ATOM     20  C   UNL     1      26.142 -13.042   0.462 -0.26 -0.00    +0.000 A 
DOCKED: ATOM     21  C   UNL     1      26.399 -12.734   1.800 -0.29 -0.00    +0.000 A 
DOCKED: BRANCH  16  23
DOCKED: ATOM     22  C   UNL     1      27.780 -14.197   4.925 -0.59 -0.00    +0.000 C 
DOCKED: ATOM     23  N   UNL     1      27.631 -13.131   3.926 -0.39 -0.00    +0.000 N 
DOCKED: ATOM     24  C   UNL     1      27.760 -11.734   4.357 -0.35 +0.00    +0.000 C 
DOCKED: ENDBRANCH  16  23
DOCKED: ENDBRANCH  14  19
DOCKED: ENDBRANCH   1  14
DOCKED: TORSDOF 7
DOCKED: TER
DOCKED: ENDMDL
________________________________________________________________________________


	BEGINNING GENETIC ALGORITHM DOCKING 70 of 100
Run: 70 Seed: 145339429 159941253 [ Run 70 of 100 GA/GALS ]
Beginning LAMARCKIAN GENETIC ALGORITHM (LGA), with a maximum of 2500000 energy evaluations.

Final-Value: -14.553


	FINAL GENETIC ALGORITHM DOCKED STATE
	_______________________________________________


Detailed state:  trans 26.143 -15.819 -0.290 quatxyzw 0.369662 -0.924536 -0.080032 0.046665 center 1.174 0.164 -0.352 ntor 7 17.6097 -15.1068 -92.1452 -178.2660 2.8905 -32.3360 -55.3545
State:	 26.143 -15.819  -0.290   0.370 -0.926 -0.080 174.651     17.61  -15.11  -92.15 -178.27    2.89  -32.34  -55.35

DOCKED: MODEL       70
DOCKED: USER    Run = 70
DOCKED: USER    DPF = ligand_dock.biased.dpf
DOCKED: USER  
DOCKED: USER    Estimated Free Energy of Binding    =  -10.71 kcal/mol  [=(1)+(2)+(3)-(4)]
DOCKED: USER    Estimated Inhibition Constant, Ki   =   14.10 nM (nanomolar)  [Temperature = 298.15 K]
DOCKED: USER    
DOCKED: USER    (1) Final Intermolecular Energy     =  -12.80 kcal/mol
DOCKED: USER        vdW + Hbond + desolv Energy     =  -12.80 kcal/mol
DOCKED: USER        Electrostatic Energy            =   +0.00 kcal/mol
DOCKED: USER    (2) Final Total Internal Energy     =   -1.75 kcal/mol
DOCKED: USER    (3) Torsional Free Energy           =   +2.09 kcal/mol
DOCKED: USER    (4) Unbound System's Energy  [=(2)] =   -1.75 kcal/mol
DOCKED: USER    
DOCKED: USER    
DOCKED: USER    NEWDPF move ligand.pdbqt
DOCKED: USER    NEWDPF about 1.174000 0.164000 -0.352000
DOCKED: USER    NEWDPF tran0 26.142735 -15.819423 -0.290093
DOCKED: USER    NEWDPF quaternion0 0.369662 -0.924536 -0.080032 0.046665
DOCKED: USER    NEWDPF axisangle0 0.370065 -0.925544 -0.080120 174.650616
DOCKED: USER    NEWDPF quat0 0.370065 -0.925544 -0.080120 174.650616
DOCKED: USER    NEWDPF dihe0 17.61 -15.11 -92.15 -178.27 2.89 -32.34 -55.35 
DOCKED: USER  keepresnum = 1 
DOCKED: USER  
DOCKED: REMARK  Name = 
DOCKED: REMARK  11 active torsions:
DOCKED: REMARK  status: ('A' for Active; 'I' for Inactive)
DOCKED: REMARK    1  A    between atoms: C_1  and  N_2
DOCKED: REMARK    2  A    between atoms: N_2  and  C_3
DOCKED: REMARK    3  A    between atoms: N_2  and  C_22
DOCKED: REMARK    4  A    between atoms: C_6  and  C_9
DOCKED: REMARK    5  A    between atoms: C_9  and  C_10
DOCKED: REMARK    6  A    between atoms: C_10  and  C_11
DOCKED: REMARK    7  A    between atoms: C_10  and  C_20
DOCKED: REMARK    8  A    between atoms: C_12  and  C_13
DOCKED: REMARK    9  A    between atoms: C_12  and  C_19
DOCKED: REMARK   10  A    between atoms: C_14  and  C_15
DOCKED: REMARK   11  A    between atoms: N_16  and  O_17
DOCKED: REMARK                            x       y       z     vdW  Elec       q    Type
DOCKED: REMARK                         _______ _______ _______ _____ _____    ______ ____
DOCKED: USER                              x       y       z     vdW  Elec       q    Type
DOCKED: USER                           _______ _______ _______ _____ _____    ______ ____
DOCKED: ROOT
DOCKED: ATOM      1  C   UNL     1      26.763 -15.706  -2.110 -0.39 -0.00    +0.000 C 
DOCKED: ATOM      2  C   UNL     1      26.987 -15.611  -3.622 -0.41 -0.00    +0.000 C 
DOCKED: ENDROOT
DOCKED: BRANCH   1   3
DOCKED: ATOM      3  C   UNL     1      25.530 -16.533  -1.809 -0.58 -0.00    +0.000 C 
DOCKED: ATOM      4  C   UNL     1      25.507 -17.592  -0.973 -0.65 -0.00    +0.000 C 
DOCKED: ATOM      5  C   UNL     1      26.752 -18.068  -0.256 -0.55 -0.00    +0.000 C 
DOCKED: BRANCH   4   6
DOCKED: ATOM      6  C   UNL     1      24.227 -18.331  -0.823 -0.78 -0.00    +0.000 C 
DOCKED: ATOM      7  C   UNL     1      23.032 -17.793  -1.111 -0.75 -0.00    +0.000 C 
DOCKED: BRANCH   7   8
DOCKED: ATOM      8  C   UNL     1      21.754 -18.520  -0.965 -0.81 -0.00    +0.000 C 
DOCKED: ATOM      9  N   UNL     1      21.348 -19.548  -1.879 -0.47 -0.00    +0.000 N 
DOCKED: ATOM     10  O   UNL     1      21.011 -18.238   0.012 -1.53 -0.00    +0.000 OA
DOCKED: ATOM     11  H   UNL     1      21.964 -19.848  -2.586 -0.55 -0.00    +0.000 HD
DOCKED: BRANCH   9  12
DOCKED: ATOM     12  O   UNL     1      20.120 -20.108  -1.771 -1.74 -0.00    +0.000 OA
DOCKED: ATOM     13  H   UNL     1      19.549 -19.536  -1.235 -0.13 -0.00    +0.000 HD
DOCKED: ENDBRANCH   9  12
DOCKED: ENDBRANCH   7   8
DOCKED: ENDBRANCH   4   6
DOCKED: ENDBRANCH   1   3
DOCKED: BRANCH   1  14
DOCKED: ATOM     14  C   UNL     1      26.624 -14.315  -1.530 -0.30 -0.00    +0.000 C 
DOCKED: ATOM     15  O   UNL     1      26.263 -13.373  -2.290 -0.22 -0.00    +0.000 OA
DOCKED: BRANCH  14  19
DOCKED: ATOM     16  C   UNL     1      27.438 -13.413   2.621 -0.31 -0.00    +0.000 A 
DOCKED: ATOM     17  C   UNL     1      26.543 -12.632   1.864 -0.31 -0.00    +0.000 A 
DOCKED: ATOM     18  C   UNL     1      26.288 -12.928   0.522 -0.28 -0.00    +0.000 A 
DOCKED: ATOM     19  C   UNL     1      26.914 -14.018  -0.103 -0.26 -0.00    +0.000 A 
DOCKED: ATOM     20  C   UNL     1      27.816 -14.796   0.644 -0.25 -0.00    +0.000 A 
DOCKED: ATOM     21  C   UNL     1      28.072 -14.500   1.985 -0.22 -0.00    +0.000 A 
DOCKED: BRANCH  16  23
DOCKED: ATOM     22  C   UNL     1      27.933 -14.185   4.985 -0.56 -0.00    +0.000 C 
DOCKED: ATOM     23  N   UNL     1      27.702 -13.108   4.015 -0.39 -0.00    +0.000 N 
DOCKED: ATOM     24  C   UNL     1      27.745 -11.716   4.479 -0.35 +0.00    +0.000 C 
DOCKED: ENDBRANCH  16  23
DOCKED: ENDBRANCH  14  19
DOCKED: ENDBRANCH   1  14
DOCKED: TORSDOF 7
DOCKED: TER
DOCKED: ENDMDL
________________________________________________________________________________


	BEGINNING GENETIC ALGORITHM DOCKING 71 of 100
Run: 71 Seed: 579227261 1807252437 [ Run 71 of 100 GA/GALS ]
Beginning LAMARCKIAN GENETIC ALGORITHM (LGA), with a maximum of 2500000 energy evaluations.

Final-Value: -14.957


	FINAL GENETIC ALGORITHM DOCKED STATE
	_______________________________________________


Detailed state:  trans 26.383 -15.582 -0.508 quatxyzw -0.199313 0.975411 0.084953 -0.040375 center 1.174 0.164 -0.352 ntor 7 15.6961 131.9944 151.0127 -52.5531 -127.4042 -26.3892 -69.7051
State:	 26.383 -15.582  -0.508  -0.199  0.976  0.085 -175.372     15.70  131.99  151.01  -52.55 -127.40  -26.39  -69.71

DOCKED: MODEL       71
DOCKED: USER    Run = 71
DOCKED: USER    DPF = ligand_dock.biased.dpf
DOCKED: USER  
DOCKED: USER    Estimated Free Energy of Binding    =  -11.09 kcal/mol  [=(1)+(2)+(3)-(4)]
DOCKED: USER    Estimated Inhibition Constant, Ki   =    7.43 nM (nanomolar)  [Temperature = 298.15 K]
DOCKED: USER    
DOCKED: USER    (1) Final Intermolecular Energy     =  -13.18 kcal/mol
DOCKED: USER        vdW + Hbond + desolv Energy     =  -13.18 kcal/mol
DOCKED: USER        Electrostatic Energy            =   +0.00 kcal/mol
DOCKED: USER    (2) Final Total Internal Energy     =   -1.78 kcal/mol
DOCKED: USER    (3) Torsional Free Energy           =   +2.09 kcal/mol
DOCKED: USER    (4) Unbound System's Energy  [=(2)] =   -1.78 kcal/mol
DOCKED: USER    
DOCKED: USER    
DOCKED: USER    NEWDPF move ligand.pdbqt
DOCKED: USER    NEWDPF about 1.174000 0.164000 -0.352000
DOCKED: USER    NEWDPF tran0 26.383037 -15.582372 -0.508495
DOCKED: USER    NEWDPF quaternion0 -0.199313 0.975411 0.084953 -0.040375
DOCKED: USER    NEWDPF axisangle0 -0.199476 0.976207 0.085023 -175.372137
DOCKED: USER    NEWDPF quat0 -0.199476 0.976207 0.085023 -175.372137
DOCKED: USER    NEWDPF dihe0 15.70 131.99 151.01 -52.55 -127.40 -26.39 -69.71 
DOCKED: USER  keepresnum = 1 
DOCKED: USER  
DOCKED: REMARK  Name = 
DOCKED: REMARK  11 active torsions:
DOCKED: REMARK  status: ('A' for Active; 'I' for Inactive)
DOCKED: REMARK    1  A    between atoms: C_1  and  N_2
DOCKED: REMARK    2  A    between atoms: N_2  and  C_3
DOCKED: REMARK    3  A    between atoms: N_2  and  C_22
DOCKED: REMARK    4  A    between atoms: C_6  and  C_9
DOCKED: REMARK    5  A    between atoms: C_9  and  C_10
DOCKED: REMARK    6  A    between atoms: C_10  and  C_11
DOCKED: REMARK    7  A    between atoms: C_10  and  C_20
DOCKED: REMARK    8  A    between atoms: C_12  and  C_13
DOCKED: REMARK    9  A    between atoms: C_12  and  C_19
DOCKED: REMARK   10  A    between atoms: C_14  and  C_15
DOCKED: REMARK   11  A    between atoms: N_16  and  O_17
DOCKED: REMARK                            x       y       z     vdW  Elec       q    Type
DOCKED: REMARK                         _______ _______ _______ _____ _____    ______ ____
DOCKED: USER                              x       y       z     vdW  Elec       q    Type
DOCKED: USER                           _______ _______ _______ _____ _____    ______ ____
DOCKED: ROOT
DOCKED: ATOM      1  C   UNL     1      26.923 -15.653  -2.356 -0.38 -0.00    +0.000 C 
DOCKED: ATOM      2  C   UNL     1      27.099 -15.611  -3.877 -0.40 -0.00    +0.000 C 
DOCKED: ENDROOT
DOCKED: BRANCH   1   3
DOCKED: ATOM      3  C   UNL     1      25.494 -16.009  -1.998 -0.55 -0.00    +0.000 C 
DOCKED: ATOM      4  C   UNL     1      25.147 -16.935  -1.080 -0.64 -0.00    +0.000 C 
DOCKED: ATOM      5  C   UNL     1      26.183 -17.731  -0.319 -0.63 -0.00    +0.000 C 
DOCKED: BRANCH   4   6
DOCKED: ATOM      6  C   UNL     1      23.699 -17.205  -0.880 -0.71 -0.00    +0.000 C 
DOCKED: ATOM      7  C   UNL     1      23.084 -18.297  -1.357 -0.75 -0.00    +0.000 C 
DOCKED: BRANCH   7   8
DOCKED: ATOM      8  C   UNL     1      21.645 -18.573  -1.163 -0.69 -0.00    +0.000 C 
DOCKED: ATOM      9  N   UNL     1      20.963 -19.619  -1.869 -0.65 -0.00    +0.000 N 
DOCKED: ATOM     10  O   UNL     1      21.006 -17.875  -0.331 -1.93 +0.00    +0.000 OA
DOCKED: ATOM     11  H   UNL     1      21.471 -20.235  -2.445 -0.57 -0.00    +0.000 HD
DOCKED: BRANCH   9  12
DOCKED: ATOM     12  O   UNL     1      19.623 -19.762  -1.744 -1.69 -0.00    +0.000 OA
DOCKED: ATOM     13  H   UNL     1      19.245 -18.955  -1.359 -0.43 -0.00    +0.000 HD
DOCKED: ENDBRANCH   9  12
DOCKED: ENDBRANCH   7   8
DOCKED: ENDBRANCH   4   6
DOCKED: ENDBRANCH   1   3
DOCKED: BRANCH   1  14
DOCKED: ATOM     14  C   UNL     1      27.299 -14.312  -1.765 -0.24 -0.00    +0.000 C 
DOCKED: ATOM     15  O   UNL     1      27.521 -13.344  -2.546 -0.18 -0.00    +0.000 OA
DOCKED: BRANCH  14  19
DOCKED: ATOM     16  C   UNL     1      27.736 -13.719   2.497 -0.30 -0.00    +0.000 A 
DOCKED: ATOM     17  C   UNL     1      28.719 -14.395   1.747 -0.17 -0.00    +0.000 A 
DOCKED: ATOM     18  C   UNL     1      28.568 -14.585   0.371 -0.18 -0.00    +0.000 A 
DOCKED: ATOM     19  C   UNL     1      27.434 -14.100  -0.300 -0.21 -0.00    +0.000 A 
DOCKED: ATOM     20  C   UNL     1      26.445 -13.435   0.444 -0.28 -0.00    +0.000 A 
DOCKED: ATOM     21  C   UNL     1      26.594 -13.245   1.820 -0.25 -0.00    +0.000 A 
DOCKED: BRANCH  16  23
DOCKED: ATOM     22  C   UNL     1      27.833 -14.658   4.851 -0.58 -0.00    +0.000 C 
DOCKED: ATOM     23  N   UNL     1      27.892 -13.519   3.926 -0.41 -0.00    +0.000 N 
DOCKED: ATOM     24  C   UNL     1      28.115 -12.174   4.472 -0.36 +0.00    +0.000 C 
DOCKED: ENDBRANCH  16  23
DOCKED: ENDBRANCH  14  19
DOCKED: ENDBRANCH   1  14
DOCKED: TORSDOF 7
DOCKED: TER
DOCKED: ENDMDL
________________________________________________________________________________


	BEGINNING GENETIC ALGORITHM DOCKING 72 of 100
Run: 72 Seed: 1432923925 156283570 [ Run 72 of 100 GA/GALS ]
Beginning LAMARCKIAN GENETIC ALGORITHM (LGA), with a maximum of 2500000 energy evaluations.

Final-Value: -14.209


	FINAL GENETIC ALGORITHM DOCKED STATE
	_______________________________________________


Detailed state:  trans 26.101 -17.910 -1.016 quatxyzw 0.025582 0.845275 0.533575 -0.012406 center 1.174 0.164 -0.352 ntor 7 4.5068 170.6160 -131.4030 -61.0884 173.7224 33.9037 154.8883
State:	 26.101 -17.910  -1.016   0.026  0.845  0.534 -178.578      4.51  170.62 -131.40  -61.09  173.72   33.90  154.89

DOCKED: MODEL       72
DOCKED: USER    Run = 72
DOCKED: USER    DPF = ligand_dock.biased.dpf
DOCKED: USER  
DOCKED: USER    Estimated Free Energy of Binding    =  -10.77 kcal/mol  [=(1)+(2)+(3)-(4)]
DOCKED: USER    Estimated Inhibition Constant, Ki   =   12.76 nM (nanomolar)  [Temperature = 298.15 K]
DOCKED: USER    
DOCKED: USER    (1) Final Intermolecular Energy     =  -12.86 kcal/mol
DOCKED: USER        vdW + Hbond + desolv Energy     =  -12.86 kcal/mol
DOCKED: USER        Electrostatic Energy            =   +0.00 kcal/mol
DOCKED: USER    (2) Final Total Internal Energy     =   -1.35 kcal/mol
DOCKED: USER    (3) Torsional Free Energy           =   +2.09 kcal/mol
DOCKED: USER    (4) Unbound System's Energy  [=(2)] =   -1.35 kcal/mol
DOCKED: USER    
DOCKED: USER    
DOCKED: USER    NEWDPF move ligand.pdbqt
DOCKED: USER    NEWDPF about 1.174000 0.164000 -0.352000
DOCKED: USER    NEWDPF tran0 26.101131 -17.910114 -1.015611
DOCKED: USER    NEWDPF quaternion0 0.025582 0.845275 0.533575 -0.012406
DOCKED: USER    NEWDPF axisangle0 0.025584 0.845340 0.533616 -178.578335
DOCKED: USER    NEWDPF quat0 0.025584 0.845340 0.533616 -178.578335
DOCKED: USER    NEWDPF dihe0 4.51 170.62 -131.40 -61.09 173.72 33.90 154.89 
DOCKED: USER  keepresnum = 1 
DOCKED: USER  
DOCKED: REMARK  Name = 
DOCKED: REMARK  11 active torsions:
DOCKED: REMARK  status: ('A' for Active; 'I' for Inactive)
DOCKED: REMARK    1  A    between atoms: C_1  and  N_2
DOCKED: REMARK    2  A    between atoms: N_2  and  C_3
DOCKED: REMARK    3  A    between atoms: N_2  and  C_22
DOCKED: REMARK    4  A    between atoms: C_6  and  C_9
DOCKED: REMARK    5  A    between atoms: C_9  and  C_10
DOCKED: REMARK    6  A    between atoms: C_10  and  C_11
DOCKED: REMARK    7  A    between atoms: C_10  and  C_20
DOCKED: REMARK    8  A    between atoms: C_12  and  C_13
DOCKED: REMARK    9  A    between atoms: C_12  and  C_19
DOCKED: REMARK   10  A    between atoms: C_14  and  C_15
DOCKED: REMARK   11  A    between atoms: N_16  and  O_17
DOCKED: REMARK                            x       y       z     vdW  Elec       q    Type
DOCKED: REMARK                         _______ _______ _______ _____ _____    ______ ____
DOCKED: USER                              x       y       z     vdW  Elec       q    Type
DOCKED: USER                           _______ _______ _______ _____ _____    ______ ____
DOCKED: ROOT
DOCKED: ATOM      1  C   UNL     1      26.432 -16.517  -2.303 -0.42 -0.00    +0.000 C 
DOCKED: ATOM      2  C   UNL     1      26.503 -15.267  -3.187 -0.46 -0.00    +0.000 C 
DOCKED: ENDROOT
DOCKED: BRANCH   1   3
DOCKED: ATOM      3  C   UNL     1      25.014 -16.743  -1.820 -0.63 -0.00    +0.000 C 
DOCKED: ATOM      4  C   UNL     1      24.672 -17.597  -0.833 -0.72 -0.00    +0.000 C 
DOCKED: ATOM      5  C   UNL     1      25.703 -18.438  -0.114 -0.61 -0.00    +0.000 C 
DOCKED: BRANCH   4   6
DOCKED: ATOM      6  C   UNL     1      23.229 -17.742  -0.510 -0.78 -0.00    +0.000 C 
DOCKED: ATOM      7  C   UNL     1      22.458 -18.714  -1.020 -0.83 -0.00    +0.000 C 
DOCKED: BRANCH   7   8
DOCKED: ATOM      8  C   UNL     1      21.023 -18.866  -0.704 -0.88 -0.00    +0.000 C 
DOCKED: ATOM      9  N   UNL     1      20.514 -19.986   0.033 -0.72 -0.00    +0.000 N 
DOCKED: ATOM     10  O   UNL     1      20.226 -17.965  -1.080 -2.12 -0.00    +0.000 OA
DOCKED: ATOM     11  H   UNL     1      21.137 -20.644   0.419 -0.50 -0.00    +0.000 HD
DOCKED: BRANCH   9  12
DOCKED: ATOM     12  O   UNL     1      19.179 -20.141   0.201 -0.83 -0.00    +0.000 OA
DOCKED: ATOM     13  H   UNL     1      18.708 -19.455  -0.297 -0.15 -0.00    +0.000 HD
DOCKED: ENDBRANCH   9  12
DOCKED: ENDBRANCH   7   8
DOCKED: ENDBRANCH   4   6
DOCKED: ENDBRANCH   1   3
DOCKED: BRANCH   1  14
DOCKED: ATOM     14  C   UNL     1      27.374 -16.361  -1.129 -0.40 -0.00    +0.000 C 
DOCKED: ATOM     15  O   UNL     1      28.226 -17.268  -0.909 -0.41 -0.00    +0.000 OA
DOCKED: BRANCH  14  19
DOCKED: ATOM     16  C   UNL     1      27.164 -12.942   1.511 -0.26 -0.00    +0.000 A 
DOCKED: ATOM     17  C   UNL     1      26.098 -13.268   0.650 -0.26 -0.00    +0.000 A 
DOCKED: ATOM     18  C   UNL     1      26.176 -14.373  -0.203 -0.25 -0.00    +0.000 A 
DOCKED: ATOM     19  C   UNL     1      27.317 -15.190  -0.216 -0.28 -0.00    +0.000 A 
DOCKED: ATOM     20  C   UNL     1      28.389 -14.864   0.634 -0.20 -0.00    +0.000 A 
DOCKED: ATOM     21  C   UNL     1      28.313 -13.760   1.486 -0.20 -0.00    +0.000 A 
DOCKED: BRANCH  16  23
DOCKED: ATOM     22  C   UNL     1      26.291 -10.618   2.028 -0.34 +0.00    +0.000 C 
DOCKED: ATOM     23  N   UNL     1      27.085 -11.796   2.398 -0.29 +0.00    +0.000 N 
DOCKED: ATOM     24  C   UNL     1      27.795 -11.796   3.683 -0.31 +0.00    +0.000 C 
DOCKED: ENDBRANCH  16  23
DOCKED: ENDBRANCH  14  19
DOCKED: ENDBRANCH   1  14
DOCKED: TORSDOF 7
DOCKED: TER
DOCKED: ENDMDL
________________________________________________________________________________


	BEGINNING GENETIC ALGORITHM DOCKING 73 of 100
Run: 73 Seed: 857659076 1815334401 [ Run 73 of 100 GA/GALS ]
Beginning LAMARCKIAN GENETIC ALGORITHM (LGA), with a maximum of 2500000 energy evaluations.

Final-Value: -14.551


	FINAL GENETIC ALGORITHM DOCKED STATE
	_______________________________________________


Detailed state:  trans 25.611 -15.833 0.487 quatxyzw 0.358609 -0.924287 0.023334 0.128641 center 1.174 0.164 -0.352 ntor 7 69.7820 180.0000 -5.4261 -170.2578 177.7890 -65.1752 -36.6574
State:	 25.611 -15.833   0.487   0.362 -0.932  0.024 165.218     69.78  180.00   -5.43 -170.26  177.79  -65.18  -36.66

DOCKED: MODEL       73
DOCKED: USER    Run = 73
DOCKED: USER    DPF = ligand_dock.biased.dpf
DOCKED: USER  
DOCKED: USER    Estimated Free Energy of Binding    =  -11.21 kcal/mol  [=(1)+(2)+(3)-(4)]
DOCKED: USER    Estimated Inhibition Constant, Ki   =    6.02 nM (nanomolar)  [Temperature = 298.15 K]
DOCKED: USER    
DOCKED: USER    (1) Final Intermolecular Energy     =  -13.30 kcal/mol
DOCKED: USER        vdW + Hbond + desolv Energy     =  -13.30 kcal/mol
DOCKED: USER        Electrostatic Energy            =   +0.00 kcal/mol
DOCKED: USER    (2) Final Total Internal Energy     =   -1.25 kcal/mol
DOCKED: USER    (3) Torsional Free Energy           =   +2.09 kcal/mol
DOCKED: USER    (4) Unbound System's Energy  [=(2)] =   -1.25 kcal/mol
DOCKED: USER    
DOCKED: USER    
DOCKED: USER    NEWDPF move ligand.pdbqt
DOCKED: USER    NEWDPF about 1.174000 0.164000 -0.352000
DOCKED: USER    NEWDPF tran0 25.610845 -15.833066 0.486738
DOCKED: USER    NEWDPF quaternion0 0.358609 -0.924287 0.023334 0.128641
DOCKED: USER    NEWDPF axisangle0 0.361614 -0.932031 0.023529 165.217865
DOCKED: USER    NEWDPF quat0 0.361614 -0.932031 0.023529 165.217865
DOCKED: USER    NEWDPF dihe0 69.78 180.00 -5.43 -170.26 177.79 -65.18 -36.66 
DOCKED: USER  keepresnum = 1 
DOCKED: USER  
DOCKED: REMARK  Name = 
DOCKED: REMARK  11 active torsions:
DOCKED: REMARK  status: ('A' for Active; 'I' for Inactive)
DOCKED: REMARK    1  A    between atoms: C_1  and  N_2
DOCKED: REMARK    2  A    between atoms: N_2  and  C_3
DOCKED: REMARK    3  A    between atoms: N_2  and  C_22
DOCKED: REMARK    4  A    between atoms: C_6  and  C_9
DOCKED: REMARK    5  A    between atoms: C_9  and  C_10
DOCKED: REMARK    6  A    between atoms: C_10  and  C_11
DOCKED: REMARK    7  A    between atoms: C_10  and  C_20
DOCKED: REMARK    8  A    between atoms: C_12  and  C_13
DOCKED: REMARK    9  A    between atoms: C_12  and  C_19
DOCKED: REMARK   10  A    between atoms: C_14  and  C_15
DOCKED: REMARK   11  A    between atoms: N_16  and  O_17
DOCKED: REMARK                            x       y       z     vdW  Elec       q    Type
DOCKED: REMARK                         _______ _______ _______ _____ _____    ______ ____
DOCKED: USER                              x       y       z     vdW  Elec       q    Type
DOCKED: USER                           _______ _______ _______ _____ _____    ______ ____
DOCKED: ROOT
DOCKED: ATOM      1  C   UNL     1      26.624 -15.980  -1.144 -0.43 -0.00    +0.000 C 
DOCKED: ATOM      2  C   UNL     1      27.183 -16.094  -2.566 -0.35 -0.00    +0.000 C 
DOCKED: ENDROOT
DOCKED: BRANCH   1   3
DOCKED: ATOM      3  C   UNL     1      25.310 -16.725  -1.032 -0.60 -0.00    +0.000 C 
DOCKED: ATOM      4  C   UNL     1      25.190 -18.001  -0.608 -0.71 -0.00    +0.000 C 
DOCKED: ATOM      5  C   UNL     1      26.395 -18.826  -0.214 -0.44 -0.00    +0.000 C 
DOCKED: BRANCH   4   6
DOCKED: ATOM      6  C   UNL     1      23.833 -18.606  -0.602 -0.80 -0.00    +0.000 C 
DOCKED: ATOM      7  C   UNL     1      22.709 -17.886  -0.736 -0.81 -0.00    +0.000 C 
DOCKED: BRANCH   7   8
DOCKED: ATOM      8  C   UNL     1      21.356 -18.479  -0.731 -0.84 -0.00    +0.000 C 
DOCKED: ATOM      9  N   UNL     1      21.112 -19.832  -0.322 -0.69 -0.00    +0.000 N 
DOCKED: ATOM     10  O   UNL     1      20.382 -17.758  -1.079 -2.15 -0.00    +0.000 OA
DOCKED: ATOM     11  H   UNL     1      21.848 -20.373   0.047 -0.56 -0.00    +0.000 HD
DOCKED: BRANCH   9  12
DOCKED: ATOM     12  O   UNL     1      19.874 -20.366  -0.441 -0.93 -0.00    +0.000 OA
DOCKED: ATOM     13  H   UNL     1      19.667 -20.497  -1.379 -0.59 -0.00    +0.000 HD
DOCKED: ENDBRANCH   9  12
DOCKED: ENDBRANCH   7   8
DOCKED: ENDBRANCH   4   6
DOCKED: ENDBRANCH   1   3
DOCKED: BRANCH   1  14
DOCKED: ATOM     14  C   UNL     1      26.440 -14.521  -0.787 -0.34 -0.00    +0.000 C 
DOCKED: ATOM     15  O   UNL     1      25.962 -13.739  -1.656 -0.20 -0.00    +0.000 OA
DOCKED: BRANCH  14  19
DOCKED: ATOM     16  C   UNL     1      27.573 -12.972   3.088 -0.31 -0.00    +0.000 A 
DOCKED: ATOM     17  C   UNL     1      28.115 -14.175   2.594 -0.29 -0.00    +0.000 A 
DOCKED: ATOM     18  C   UNL     1      27.741 -14.670   1.342 -0.22 -0.00    +0.000 A 
DOCKED: ATOM     19  C   UNL     1      26.818 -13.976   0.542 -0.25 -0.00    +0.000 A 
DOCKED: ATOM     20  C   UNL     1      26.266 -12.781   1.034 -0.32 -0.00    +0.000 A 
DOCKED: ATOM     21  C   UNL     1      26.639 -12.285   2.286 -0.28 +0.00    +0.000 A 
DOCKED: BRANCH  16  23
DOCKED: ATOM     22  C   UNL     1      28.555 -13.341   5.397 -0.47 -0.00    +0.000 C 
DOCKED: ATOM     23  N   UNL     1      27.962 -12.455   4.387 -0.34 -0.00    +0.000 N 
DOCKED: ATOM     24  C   UNL     1      27.772 -11.037   4.714 -0.38 +0.00    +0.000 C 
DOCKED: ENDBRANCH  16  23
DOCKED: ENDBRANCH  14  19
DOCKED: ENDBRANCH   1  14
DOCKED: TORSDOF 7
DOCKED: TER
DOCKED: ENDMDL
________________________________________________________________________________


	BEGINNING GENETIC ALGORITHM DOCKING 74 of 100
Run: 74 Seed: 131550582 2084323025 [ Run 74 of 100 GA/GALS ]
Beginning LAMARCKIAN GENETIC ALGORITHM (LGA), with a maximum of 2500000 energy evaluations.

Final-Value: -14.658


	FINAL GENETIC ALGORITHM DOCKED STATE
	_______________________________________________


Detailed state:  trans 25.818 -15.317 0.044 quatxyzw 0.223315 -0.970360 -0.027925 0.088050 center 1.174 0.164 -0.352 ntor 7 3.0242 -180.0000 174.6093 10.4973 -166.2277 -54.3954 -55.8838
State:	 25.818 -15.317   0.044   0.224 -0.974 -0.028 169.897      3.02 -180.00  174.61   10.50 -166.23  -54.40  -55.88

DOCKED: MODEL       74
DOCKED: USER    Run = 74
DOCKED: USER    DPF = ligand_dock.biased.dpf
DOCKED: USER  
DOCKED: USER    Estimated Free Energy of Binding    =  -10.90 kcal/mol  [=(1)+(2)+(3)-(4)]
DOCKED: USER    Estimated Inhibition Constant, Ki   =   10.16 nM (nanomolar)  [Temperature = 298.15 K]
DOCKED: USER    
DOCKED: USER    (1) Final Intermolecular Energy     =  -12.99 kcal/mol
DOCKED: USER        vdW + Hbond + desolv Energy     =  -12.99 kcal/mol
DOCKED: USER        Electrostatic Energy            =   +0.00 kcal/mol
DOCKED: USER    (2) Final Total Internal Energy     =   -1.67 kcal/mol
DOCKED: USER    (3) Torsional Free Energy           =   +2.09 kcal/mol
DOCKED: USER    (4) Unbound System's Energy  [=(2)] =   -1.67 kcal/mol
DOCKED: USER    
DOCKED: USER    
DOCKED: USER    NEWDPF move ligand.pdbqt
DOCKED: USER    NEWDPF about 1.174000 0.164000 -0.352000
DOCKED: USER    NEWDPF tran0 25.818024 -15.317207 0.044127
DOCKED: USER    NEWDPF quaternion0 0.223315 -0.970360 -0.027925 0.088050
DOCKED: USER    NEWDPF axisangle0 0.224186 -0.974143 -0.028034 169.897127
DOCKED: USER    NEWDPF quat0 0.224186 -0.974143 -0.028034 169.897127
DOCKED: USER    NEWDPF dihe0 3.02 -180.00 174.61 10.50 -166.23 -54.40 -55.88 
DOCKED: USER  keepresnum = 1 
DOCKED: USER  
DOCKED: REMARK  Name = 
DOCKED: REMARK  11 active torsions:
DOCKED: REMARK  status: ('A' for Active; 'I' for Inactive)
DOCKED: REMARK    1  A    between atoms: C_1  and  N_2
DOCKED: REMARK    2  A    between atoms: N_2  and  C_3
DOCKED: REMARK    3  A    between atoms: N_2  and  C_22
DOCKED: REMARK    4  A    between atoms: C_6  and  C_9
DOCKED: REMARK    5  A    between atoms: C_9  and  C_10
DOCKED: REMARK    6  A    between atoms: C_10  and  C_11
DOCKED: REMARK    7  A    between atoms: C_10  and  C_20
DOCKED: REMARK    8  A    between atoms: C_12  and  C_13
DOCKED: REMARK    9  A    between atoms: C_12  and  C_19
DOCKED: REMARK   10  A    between atoms: C_14  and  C_15
DOCKED: REMARK   11  A    between atoms: N_16  and  O_17
DOCKED: REMARK                            x       y       z     vdW  Elec       q    Type
DOCKED: REMARK                         _______ _______ _______ _____ _____    ______ ____
DOCKED: USER                              x       y       z     vdW  Elec       q    Type
DOCKED: USER                           _______ _______ _______ _____ _____    ______ ____
DOCKED: ROOT
DOCKED: ATOM      1  C   UNL     1      26.580 -15.533  -1.711 -0.40 -0.00    +0.000 C 
DOCKED: ATOM      2  C   UNL     1      26.938 -15.622  -3.198 -0.41 -0.00    +0.000 C 
DOCKED: ENDROOT
DOCKED: BRANCH   1   3
DOCKED: ATOM      3  C   UNL     1      25.130 -15.914  -1.493 -0.50 -0.00    +0.000 C 
DOCKED: ATOM      4  C   UNL     1      24.722 -17.089  -0.970 -0.67 -0.00    +0.000 C 
DOCKED: ATOM      5  C   UNL     1      25.704 -18.164  -0.560 -0.67 -0.00    +0.000 C 
DOCKED: BRANCH   4   6
DOCKED: ATOM      6  C   UNL     1      23.259 -17.332  -0.866 -0.73 -0.00    +0.000 C 
DOCKED: ATOM      7  C   UNL     1      22.733 -18.537  -0.604 -0.84 -0.00    +0.000 C 
DOCKED: BRANCH   7   8
DOCKED: ATOM      8  C   UNL     1      21.280 -18.787  -0.500 -0.84 -0.00    +0.000 C 
DOCKED: ATOM      9  N   UNL     1      20.749 -20.006   0.036 -0.70 -0.00    +0.000 N 
DOCKED: ATOM     10  O   UNL     1      20.486 -17.884  -0.876 -2.25 -0.00    +0.000 OA
DOCKED: ATOM     11  H   UNL     1      21.355 -20.677   0.425 -0.59 -0.00    +0.000 HD
DOCKED: BRANCH   9  12
DOCKED: ATOM     12  O   UNL     1      19.415 -20.238   0.008 -0.85 -0.00    +0.000 OA
DOCKED: ATOM     13  H   UNL     1      18.969 -19.507  -0.449 -0.13 -0.00    +0.000 HD
DOCKED: ENDBRANCH   9  12
DOCKED: ENDBRANCH   7   8
DOCKED: ENDBRANCH   4   6
DOCKED: ENDBRANCH   1   3
DOCKED: BRANCH   1  14
DOCKED: ATOM     14  C   UNL     1      26.841 -14.129  -1.210 -0.28 -0.00    +0.000 C 
DOCKED: ATOM     15  O   UNL     1      26.864 -13.181  -2.044 -0.22 -0.00    +0.000 OA
DOCKED: BRANCH  14  19
DOCKED: ATOM     16  C   UNL     1      27.587 -13.306   2.970 -0.32 -0.00    +0.000 A 
DOCKED: ATOM     17  C   UNL     1      28.073 -14.478   2.356 -0.23 -0.00    +0.000 A 
DOCKED: ATOM     18  C   UNL     1      27.824 -14.737   1.006 -0.24 -0.00    +0.000 A 
DOCKED: ATOM     19  C   UNL     1      27.088 -13.832   0.225 -0.25 -0.00    +0.000 A 
DOCKED: ATOM     20  C   UNL     1      26.592 -12.666   0.834 -0.29 -0.00    +0.000 A 
DOCKED: ATOM     21  C   UNL     1      26.839 -12.406   2.184 -0.29 +0.00    +0.000 A 
DOCKED: BRANCH  16  23
DOCKED: ATOM     22  C   UNL     1      28.211 -14.122   5.289 -0.52 -0.00    +0.000 C 
DOCKED: ATOM     23  N   UNL     1      27.846 -13.034   4.372 -0.40 -0.00    +0.000 N 
DOCKED: ATOM     24  C   UNL     1      27.751 -11.667   4.897 -0.38 +0.00    +0.000 C 
DOCKED: ENDBRANCH  16  23
DOCKED: ENDBRANCH  14  19
DOCKED: ENDBRANCH   1  14
DOCKED: TORSDOF 7
DOCKED: TER
DOCKED: ENDMDL
________________________________________________________________________________


	BEGINNING GENETIC ALGORITHM DOCKING 75 of 100
Run: 75 Seed: 60185065 586124774 [ Run 75 of 100 GA/GALS ]
Beginning LAMARCKIAN GENETIC ALGORITHM (LGA), with a maximum of 2500000 energy evaluations.

Final-Value: -13.037


	FINAL GENETIC ALGORITHM DOCKED STATE
	_______________________________________________


Detailed state:  trans 26.738 -16.332 1.546 quatxyzw 0.318342 -0.938353 0.045520 0.126802 center 1.174 0.164 -0.352 ntor 7 10.0184 24.7829 -130.7271 34.2304 48.7406 153.0483 -28.2391
State:	 26.738 -16.332   1.546   0.321 -0.946  0.046 165.430     10.02   24.78 -130.73   34.23   48.74  153.05  -28.24

DOCKED: MODEL       75
DOCKED: USER    Run = 75
DOCKED: USER    DPF = ligand_dock.biased.dpf
DOCKED: USER  
DOCKED: USER    Estimated Free Energy of Binding    =   -9.69 kcal/mol  [=(1)+(2)+(3)-(4)]
DOCKED: USER    Estimated Inhibition Constant, Ki   =   78.44 nM (nanomolar)  [Temperature = 298.15 K]
DOCKED: USER    
DOCKED: USER    (1) Final Intermolecular Energy     =  -11.78 kcal/mol
DOCKED: USER        vdW + Hbond + desolv Energy     =  -11.78 kcal/mol
DOCKED: USER        Electrostatic Energy            =   +0.00 kcal/mol
DOCKED: USER    (2) Final Total Internal Energy     =   -1.26 kcal/mol
DOCKED: USER    (3) Torsional Free Energy           =   +2.09 kcal/mol
DOCKED: USER    (4) Unbound System's Energy  [=(2)] =   -1.26 kcal/mol
DOCKED: USER    
DOCKED: USER    
DOCKED: USER    NEWDPF move ligand.pdbqt
DOCKED: USER    NEWDPF about 1.174000 0.164000 -0.352000
DOCKED: USER    NEWDPF tran0 26.737764 -16.331930 1.545508
DOCKED: USER    NEWDPF quaternion0 0.318342 -0.938353 0.045520 0.126802
DOCKED: USER    NEWDPF axisangle0 0.320933 -0.945989 0.045891 165.430329
DOCKED: USER    NEWDPF quat0 0.320933 -0.945989 0.045891 165.430329
DOCKED: USER    NEWDPF dihe0 10.02 24.78 -130.73 34.23 48.74 153.05 -28.24 
DOCKED: USER  keepresnum = 1 
DOCKED: USER  
DOCKED: REMARK  Name = 
DOCKED: REMARK  11 active torsions:
DOCKED: REMARK  status: ('A' for Active; 'I' for Inactive)
DOCKED: REMARK    1  A    between atoms: C_1  and  N_2
DOCKED: REMARK    2  A    between atoms: N_2  and  C_3
DOCKED: REMARK    3  A    between atoms: N_2  and  C_22
DOCKED: REMARK    4  A    between atoms: C_6  and  C_9
DOCKED: REMARK    5  A    between atoms: C_9  and  C_10
DOCKED: REMARK    6  A    between atoms: C_10  and  C_11
DOCKED: REMARK    7  A    between atoms: C_10  and  C_20
DOCKED: REMARK    8  A    between atoms: C_12  and  C_13
DOCKED: REMARK    9  A    between atoms: C_12  and  C_19
DOCKED: REMARK   10  A    between atoms: C_14  and  C_15
DOCKED: REMARK   11  A    between atoms: N_16  and  O_17
DOCKED: REMARK                            x       y       z     vdW  Elec       q    Type
DOCKED: REMARK                         _______ _______ _______ _____ _____    ______ ____
DOCKED: USER                              x       y       z     vdW  Elec       q    Type
DOCKED: USER                           _______ _______ _______ _____ _____    ______ ____
DOCKED: ROOT
DOCKED: ATOM      1  C   UNL     1      27.749 -16.622  -0.068 -0.33 -0.00    +0.000 C 
DOCKED: ATOM      2  C   UNL     1      28.308 -16.830  -1.479 -0.34 -0.00    +0.000 C 
DOCKED: ENDROOT
DOCKED: BRANCH   1   3
DOCKED: ATOM      3  C   UNL     1      26.371 -17.241   0.052 -0.46 -0.00    +0.000 C 
DOCKED: ATOM      4  C   UNL     1      25.377 -17.066  -0.844 -0.62 -0.00    +0.000 C 
DOCKED: ATOM      5  C   UNL     1      25.552 -16.199  -2.071 -0.56 -0.00    +0.000 C 
DOCKED: BRANCH   4   6
DOCKED: ATOM      6  C   UNL     1      24.065 -17.702  -0.556 -0.74 -0.00    +0.000 C 
DOCKED: ATOM      7  C   UNL     1      23.075 -17.779  -1.457 -0.57 -0.00    +0.000 C 
DOCKED: BRANCH   7   8
DOCKED: ATOM      8  C   UNL     1      21.767 -18.410  -1.180 -0.61 -0.00    +0.000 C 
DOCKED: ATOM      9  N   UNL     1      21.347 -19.620  -1.825 -0.52 -0.00    +0.000 N 
DOCKED: ATOM     10  O   UNL     1      21.009 -17.872  -0.329 -1.93 +0.00    +0.000 OA
DOCKED: ATOM     11  H   UNL     1      21.970 -20.103  -2.415 -0.60 -0.00    +0.000 HD
DOCKED: BRANCH   9  12
DOCKED: ATOM     12  O   UNL     1      20.097 -20.099  -1.625 -1.68 -0.00    +0.000 OA
DOCKED: ATOM     13  H   UNL     1      19.567 -19.436  -1.157 -0.12 -0.00    +0.000 HD
DOCKED: ENDBRANCH   9  12
DOCKED: ENDBRANCH   7   8
DOCKED: ENDBRANCH   4   6
DOCKED: ENDBRANCH   1   3
DOCKED: BRANCH   1  14
DOCKED: ATOM     14  C   UNL     1      27.694 -15.141   0.242 -0.30 -0.00    +0.000 C 
DOCKED: ATOM     15  O   UNL     1      27.149 -14.366  -0.593 -0.27 -0.00    +0.000 OA
DOCKED: BRANCH  14  19
DOCKED: ATOM     16  C   UNL     1      29.341 -13.468   3.874 -0.25 -0.00    +0.000 A 
DOCKED: ATOM     17  C   UNL     1      27.949 -13.564   3.678 -0.38 -0.00    +0.000 A 
DOCKED: ATOM     18  C   UNL     1      27.425 -14.103   2.500 -0.25 -0.00    +0.000 A 
DOCKED: ATOM     19  C   UNL     1      28.275 -14.568   1.484 -0.18 -0.00    +0.000 A 
DOCKED: ATOM     20  C   UNL     1      29.665 -14.466   1.669 -0.13 -0.00    +0.000 A 
DOCKED: ATOM     21  C   UNL     1      30.189 -13.927   2.846 -0.17 -0.00    +0.000 A 
DOCKED: BRANCH  16  23
DOCKED: ATOM     22  C   UNL     1      31.334 -12.728   5.256 -0.17 -0.00    +0.000 C 
DOCKED: ATOM     23  N   UNL     1      29.886 -12.910   5.098 -0.22 -0.00    +0.000 N 
DOCKED: ATOM     24  C   UNL     1      28.999 -12.517   6.199 -0.38 -0.00    +0.000 C 
DOCKED: ENDBRANCH  16  23
DOCKED: ENDBRANCH  14  19
DOCKED: ENDBRANCH   1  14
DOCKED: TORSDOF 7
DOCKED: TER
DOCKED: ENDMDL
________________________________________________________________________________


	BEGINNING GENETIC ALGORITHM DOCKING 76 of 100
Run: 76 Seed: 1612739898 1888879036 [ Run 76 of 100 GA/GALS ]
Beginning LAMARCKIAN GENETIC ALGORITHM (LGA), with a maximum of 2500000 energy evaluations.

Final-Value: -14.651


	FINAL GENETIC ALGORITHM DOCKED STATE
	_______________________________________________


Detailed state:  trans 25.702 -15.487 -0.361 quatxyzw -0.248555 0.960666 0.042230 -0.116434 center 1.174 0.164 -0.352 ntor 7 68.1549 165.1798 143.6958 10.2617 -157.0635 -24.1671 -50.4854
State:	 25.702 -15.487  -0.361  -0.250  0.967  0.043 -166.627     68.15  165.18  143.70   10.26 -157.06  -24.17  -50.49

DOCKED: MODEL       76
DOCKED: USER    Run = 76
DOCKED: USER    DPF = ligand_dock.biased.dpf
DOCKED: USER  
DOCKED: USER    Estimated Free Energy of Binding    =  -11.22 kcal/mol  [=(1)+(2)+(3)-(4)]
DOCKED: USER    Estimated Inhibition Constant, Ki   =    5.92 nM (nanomolar)  [Temperature = 298.15 K]
DOCKED: USER    
DOCKED: USER    (1) Final Intermolecular Energy     =  -13.31 kcal/mol
DOCKED: USER        vdW + Hbond + desolv Energy     =  -13.31 kcal/mol
DOCKED: USER        Electrostatic Energy            =   +0.00 kcal/mol
DOCKED: USER    (2) Final Total Internal Energy     =   -1.34 kcal/mol
DOCKED: USER    (3) Torsional Free Energy           =   +2.09 kcal/mol
DOCKED: USER    (4) Unbound System's Energy  [=(2)] =   -1.34 kcal/mol
DOCKED: USER    
DOCKED: USER    
DOCKED: USER    NEWDPF move ligand.pdbqt
DOCKED: USER    NEWDPF about 1.174000 0.164000 -0.352000
DOCKED: USER    NEWDPF tran0 25.702267 -15.487173 -0.361411
DOCKED: USER    NEWDPF quaternion0 -0.248555 0.960666 0.042230 -0.116434
DOCKED: USER    NEWDPF axisangle0 -0.250258 0.967245 0.042519 -166.627352
DOCKED: USER    NEWDPF quat0 -0.250258 0.967245 0.042519 -166.627352
DOCKED: USER    NEWDPF dihe0 68.15 165.18 143.70 10.26 -157.06 -24.17 -50.49 
DOCKED: USER  keepresnum = 1 
DOCKED: USER  
DOCKED: REMARK  Name = 
DOCKED: REMARK  11 active torsions:
DOCKED: REMARK  status: ('A' for Active; 'I' for Inactive)
DOCKED: REMARK    1  A    between atoms: C_1  and  N_2
DOCKED: REMARK    2  A    between atoms: N_2  and  C_3
DOCKED: REMARK    3  A    between atoms: N_2  and  C_22
DOCKED: REMARK    4  A    between atoms: C_6  and  C_9
DOCKED: REMARK    5  A    between atoms: C_9  and  C_10
DOCKED: REMARK    6  A    between atoms: C_10  and  C_11
DOCKED: REMARK    7  A    between atoms: C_10  and  C_20
DOCKED: REMARK    8  A    between atoms: C_12  and  C_13
DOCKED: REMARK    9  A    between atoms: C_12  and  C_19
DOCKED: REMARK   10  A    between atoms: C_14  and  C_15
DOCKED: REMARK   11  A    between atoms: N_16  and  O_17
DOCKED: REMARK                            x       y       z     vdW  Elec       q    Type
DOCKED: REMARK                         _______ _______ _______ _____ _____    ______ ____
DOCKED: USER                              x       y       z     vdW  Elec       q    Type
DOCKED: USER                           _______ _______ _______ _____ _____    ______ ____
DOCKED: ROOT
DOCKED: ATOM      1  C   UNL     1      26.563 -15.595  -2.081 -0.41 -0.00    +0.000 C 
DOCKED: ATOM      2  C   UNL     1      27.001 -15.609  -3.549 -0.41 -0.00    +0.000 C 
DOCKED: ENDROOT
DOCKED: BRANCH   1   3
DOCKED: ATOM      3  C   UNL     1      25.128 -16.061  -1.953 -0.56 -0.00    +0.000 C 
DOCKED: ATOM      4  C   UNL     1      24.691 -16.939  -1.025 -0.65 -0.00    +0.000 C 
DOCKED: ATOM      5  C   UNL     1      25.628 -17.563  -0.014 -0.51 -0.00    +0.000 C 
DOCKED: BRANCH   4   6
DOCKED: ATOM      6  C   UNL     1      23.259 -17.334  -1.063 -0.71 -0.00    +0.000 C 
DOCKED: ATOM      7  C   UNL     1      22.766 -18.372  -0.373 -0.83 -0.00    +0.000 C 
DOCKED: BRANCH   7   8
DOCKED: ATOM      8  C   UNL     1      21.344 -18.772  -0.405 -0.84 -0.00    +0.000 C 
DOCKED: ATOM      9  N   UNL     1      20.903 -20.072   0.011 -0.66 -0.00    +0.000 N 
DOCKED: ATOM     10  O   UNL     1      20.491 -17.929  -0.791 -2.26 -0.00    +0.000 OA
DOCKED: ATOM     11  H   UNL     1      21.545 -20.704   0.409 -0.60 -0.00    +0.000 HD
DOCKED: BRANCH   9  12
DOCKED: ATOM     12  O   UNL     1      19.607 -20.432  -0.141 -0.85 -0.00    +0.000 OA
DOCKED: ATOM     13  H   UNL     1      19.405 -20.522  -1.086 -0.57 -0.00    +0.000 HD
DOCKED: ENDBRANCH   9  12
DOCKED: ENDBRANCH   7   8
DOCKED: ENDBRANCH   4   6
DOCKED: ENDBRANCH   1   3
DOCKED: BRANCH   1  14
DOCKED: ATOM     14  C   UNL     1      26.720 -14.199  -1.518 -0.28 -0.00    +0.000 C 
DOCKED: ATOM     15  O   UNL     1      26.630 -13.214  -2.302 -0.24 -0.00    +0.000 OA
DOCKED: BRANCH  14  19
DOCKED: ATOM     16  C   UNL     1      27.555 -13.510   2.670 -0.31 -0.00    +0.000 A 
DOCKED: ATOM     17  C   UNL     1      28.258 -14.485   1.934 -0.21 -0.00    +0.000 A 
DOCKED: ATOM     18  C   UNL     1      27.980 -14.703   0.582 -0.23 -0.00    +0.000 A 
DOCKED: ATOM     19  C   UNL     1      26.995 -13.951  -0.078 -0.25 -0.00    +0.000 A 
DOCKED: ATOM     20  C   UNL     1      26.282 -12.985   0.653 -0.30 -0.00    +0.000 A 
DOCKED: ATOM     21  C   UNL     1      26.559 -12.766   2.005 -0.29 -0.00    +0.000 A 
DOCKED: BRANCH  16  23
DOCKED: ATOM     22  C   UNL     1      28.218 -14.397   4.952 -0.57 -0.00    +0.000 C 
DOCKED: ATOM     23  N   UNL     1      27.844 -13.281   4.073 -0.40 -0.00    +0.000 N 
DOCKED: ATOM     24  C   UNL     1      27.770 -11.928   4.640 -0.37 +0.00    +0.000 C 
DOCKED: ENDBRANCH  16  23
DOCKED: ENDBRANCH  14  19
DOCKED: ENDBRANCH   1  14
DOCKED: TORSDOF 7
DOCKED: TER
DOCKED: ENDMDL
________________________________________________________________________________


	BEGINNING GENETIC ALGORITHM DOCKING 77 of 100
Run: 77 Seed: 296576916 2041431116 [ Run 77 of 100 GA/GALS ]
Beginning LAMARCKIAN GENETIC ALGORITHM (LGA), with a maximum of 2500000 energy evaluations.

Final-Value: -14.519


	FINAL GENETIC ALGORITHM DOCKED STATE
	_______________________________________________


Detailed state:  trans 25.652 -14.604 -3.124 quatxyzw 0.317822 -0.628828 0.682844 0.193100 center 1.174 0.164 -0.352 ntor 7 1.7143 -75.0045 40.7100 55.5107 115.9555 -101.1044 -66.8402
State:	 25.652 -14.604  -3.124   0.324 -0.641  0.696 157.732      1.71  -75.00   40.71   55.51  115.96 -101.10  -66.84

DOCKED: MODEL       77
DOCKED: USER    Run = 77
DOCKED: USER    DPF = ligand_dock.biased.dpf
DOCKED: USER  
DOCKED: USER    Estimated Free Energy of Binding    =  -11.00 kcal/mol  [=(1)+(2)+(3)-(4)]
DOCKED: USER    Estimated Inhibition Constant, Ki   =    8.60 nM (nanomolar)  [Temperature = 298.15 K]
DOCKED: USER    
DOCKED: USER    (1) Final Intermolecular Energy     =  -13.09 kcal/mol
DOCKED: USER        vdW + Hbond + desolv Energy     =  -13.09 kcal/mol
DOCKED: USER        Electrostatic Energy            =   +0.00 kcal/mol
DOCKED: USER    (2) Final Total Internal Energy     =   -1.43 kcal/mol
DOCKED: USER    (3) Torsional Free Energy           =   +2.09 kcal/mol
DOCKED: USER    (4) Unbound System's Energy  [=(2)] =   -1.43 kcal/mol
DOCKED: USER    
DOCKED: USER    
DOCKED: USER    NEWDPF move ligand.pdbqt
DOCKED: USER    NEWDPF about 1.174000 0.164000 -0.352000
DOCKED: USER    NEWDPF tran0 25.651720 -14.604430 -3.124147
DOCKED: USER    NEWDPF quaternion0 0.317822 -0.628828 0.682844 0.193100
DOCKED: USER    NEWDPF axisangle0 0.323918 -0.640891 0.695943 157.732467
DOCKED: USER    NEWDPF quat0 0.323918 -0.640891 0.695943 157.732467
DOCKED: USER    NEWDPF dihe0 1.71 -75.00 40.71 55.51 115.96 -101.10 -66.84 
DOCKED: USER  keepresnum = 1 
DOCKED: USER  
DOCKED: REMARK  Name = 
DOCKED: REMARK  11 active torsions:
DOCKED: REMARK  status: ('A' for Active; 'I' for Inactive)
DOCKED: REMARK    1  A    between atoms: C_1  and  N_2
DOCKED: REMARK    2  A    between atoms: N_2  and  C_3
DOCKED: REMARK    3  A    between atoms: N_2  and  C_22
DOCKED: REMARK    4  A    between atoms: C_6  and  C_9
DOCKED: REMARK    5  A    between atoms: C_9  and  C_10
DOCKED: REMARK    6  A    between atoms: C_10  and  C_11
DOCKED: REMARK    7  A    between atoms: C_10  and  C_20
DOCKED: REMARK    8  A    between atoms: C_12  and  C_13
DOCKED: REMARK    9  A    between atoms: C_12  and  C_19
DOCKED: REMARK   10  A    between atoms: C_14  and  C_15
DOCKED: REMARK   11  A    between atoms: N_16  and  O_17
DOCKED: REMARK                            x       y       z     vdW  Elec       q    Type
DOCKED: REMARK                         _______ _______ _______ _____ _____    ______ ____
DOCKED: USER                              x       y       z     vdW  Elec       q    Type
DOCKED: USER                           _______ _______ _______ _____ _____    ______ ____
DOCKED: ROOT
DOCKED: ATOM      1  C   UNL     1      27.151 -15.701  -2.617 -0.36 -0.00    +0.000 C 
DOCKED: ATOM      2  C   UNL     1      28.213 -16.774  -2.353 -0.26 -0.00    +0.000 C 
DOCKED: ENDROOT
DOCKED: BRANCH   1   3
DOCKED: ATOM      3  C   UNL     1      25.769 -16.321  -2.642 -0.52 -0.00    +0.000 C 
DOCKED: ATOM      4  C   UNL     1      25.225 -17.012  -1.619 -0.63 -0.00    +0.000 C 
DOCKED: ATOM      5  C   UNL     1      25.977 -17.250  -0.328 -0.58 -0.00    +0.000 C 
DOCKED: BRANCH   4   6
DOCKED: ATOM      6  C   UNL     1      23.875 -17.601  -1.820 -0.54 -0.00    +0.000 C 
DOCKED: ATOM      7  C   UNL     1      22.982 -17.742  -0.829 -0.78 -0.00    +0.000 C 
DOCKED: BRANCH   7   8
DOCKED: ATOM      8  C   UNL     1      21.639 -18.326  -1.019 -0.75 -0.00    +0.000 C 
DOCKED: ATOM      9  N   UNL     1      21.444 -19.656  -1.520 -0.58 -0.00    +0.000 N 
DOCKED: ATOM     10  O   UNL     1      20.633 -17.635  -0.706 -2.19 +0.00    +0.000 OA
DOCKED: ATOM     11  H   UNL     1      22.221 -20.242  -1.672 -0.39 -0.00    +0.000 HD
DOCKED: BRANCH   9  12
DOCKED: ATOM     12  O   UNL     1      20.196 -20.108  -1.784 -1.76 -0.00    +0.000 OA
DOCKED: ATOM     13  H   UNL     1      19.552 -19.404  -1.608 -0.22 -0.00    +0.000 HD
DOCKED: ENDBRANCH   9  12
DOCKED: ENDBRANCH   7   8
DOCKED: ENDBRANCH   4   6
DOCKED: ENDBRANCH   1   3
DOCKED: BRANCH   1  14
DOCKED: ATOM     14  C   UNL     1      27.446 -15.008  -3.930 -0.37 -0.00    +0.000 C 
DOCKED: ATOM     15  O   UNL     1      28.312 -15.509  -4.700 -0.42 -0.00    +0.000 OA
DOCKED: BRANCH  14  19
DOCKED: ATOM     16  C   UNL     1      25.423 -11.364  -5.084 -0.33 -0.00    +0.000 A 
DOCKED: ATOM     17  C   UNL     1      24.731 -12.418  -4.456 -0.14 -0.00    +0.000 A 
DOCKED: ATOM     18  C   UNL     1      25.391 -13.594  -4.090 -0.41 -0.00    +0.000 A 
DOCKED: ATOM     19  C   UNL     1      26.765 -13.750  -4.333 -0.33 -0.00    +0.000 A 
DOCKED: ATOM     20  C   UNL     1      27.460 -12.706  -4.967 -0.20 -0.00    +0.000 A 
DOCKED: ATOM     21  C   UNL     1      26.801 -11.530  -5.335 -0.19 -0.00    +0.000 A 
DOCKED: BRANCH  16  23
DOCKED: ATOM     22  C   UNL     1      24.546  -9.060  -4.489 -0.33 -0.00    +0.000 C 
DOCKED: ATOM     23  N   UNL     1      24.739 -10.141  -5.463 -0.36 -0.00    +0.000 N 
DOCKED: ATOM     24  C   UNL     1      24.229  -9.964  -6.828 -0.44 -0.00    +0.000 C 
DOCKED: ENDBRANCH  16  23
DOCKED: ENDBRANCH  14  19
DOCKED: ENDBRANCH   1  14
DOCKED: TORSDOF 7
DOCKED: TER
DOCKED: ENDMDL
________________________________________________________________________________


	BEGINNING GENETIC ALGORITHM DOCKING 78 of 100
Run: 78 Seed: 1151552653 465242646 [ Run 78 of 100 GA/GALS ]
Beginning LAMARCKIAN GENETIC ALGORITHM (LGA), with a maximum of 2500000 energy evaluations.

Final-Value: -14.685


	FINAL GENETIC ALGORITHM DOCKED STATE
	_______________________________________________


Detailed state:  trans 25.982 -15.819 -0.601 quatxyzw 0.233467 -0.960305 -0.133825 -0.073472 center 1.174 0.164 -0.352 ntor 7 -3.3073 128.8930 -106.4475 -95.9142 -147.2929 -19.9724 -70.7932
State:	 25.982 -15.819  -0.601   0.234 -0.963 -0.134 -171.573     -3.31  128.89 -106.45  -95.91 -147.29  -19.97  -70.79

DOCKED: MODEL       78
DOCKED: USER    Run = 78
DOCKED: USER    DPF = ligand_dock.biased.dpf
DOCKED: USER  
DOCKED: USER    Estimated Free Energy of Binding    =  -10.72 kcal/mol  [=(1)+(2)+(3)-(4)]
DOCKED: USER    Estimated Inhibition Constant, Ki   =   13.94 nM (nanomolar)  [Temperature = 298.15 K]
DOCKED: USER    
DOCKED: USER    (1) Final Intermolecular Energy     =  -12.81 kcal/mol
DOCKED: USER        vdW + Hbond + desolv Energy     =  -12.81 kcal/mol
DOCKED: USER        Electrostatic Energy            =   +0.00 kcal/mol
DOCKED: USER    (2) Final Total Internal Energy     =   -1.88 kcal/mol
DOCKED: USER    (3) Torsional Free Energy           =   +2.09 kcal/mol
DOCKED: USER    (4) Unbound System's Energy  [=(2)] =   -1.88 kcal/mol
DOCKED: USER    
DOCKED: USER    
DOCKED: USER    NEWDPF move ligand.pdbqt
DOCKED: USER    NEWDPF about 1.174000 0.164000 -0.352000
DOCKED: USER    NEWDPF tran0 25.982318 -15.818590 -0.601265
DOCKED: USER    NEWDPF quaternion0 0.233467 -0.960305 -0.133825 -0.073472
DOCKED: USER    NEWDPF axisangle0 0.234099 -0.962908 -0.134188 -171.573159
DOCKED: USER    NEWDPF quat0 0.234099 -0.962908 -0.134188 -171.573159
DOCKED: USER    NEWDPF dihe0 -3.31 128.89 -106.45 -95.91 -147.29 -19.97 -70.79 
DOCKED: USER  keepresnum = 1 
DOCKED: USER  
DOCKED: REMARK  Name = 
DOCKED: REMARK  11 active torsions:
DOCKED: REMARK  status: ('A' for Active; 'I' for Inactive)
DOCKED: REMARK    1  A    between atoms: C_1  and  N_2
DOCKED: REMARK    2  A    between atoms: N_2  and  C_3
DOCKED: REMARK    3  A    between atoms: N_2  and  C_22
DOCKED: REMARK    4  A    between atoms: C_6  and  C_9
DOCKED: REMARK    5  A    between atoms: C_9  and  C_10
DOCKED: REMARK    6  A    between atoms: C_10  and  C_11
DOCKED: REMARK    7  A    between atoms: C_10  and  C_20
DOCKED: REMARK    8  A    between atoms: C_12  and  C_13
DOCKED: REMARK    9  A    between atoms: C_12  and  C_19
DOCKED: REMARK   10  A    between atoms: C_14  and  C_15
DOCKED: REMARK   11  A    between atoms: N_16  and  O_17
DOCKED: REMARK                            x       y       z     vdW  Elec       q    Type
DOCKED: REMARK                         _______ _______ _______ _____ _____    ______ ____
DOCKED: USER                              x       y       z     vdW  Elec       q    Type
DOCKED: USER                           _______ _______ _______ _____ _____    ______ ____
DOCKED: ROOT
DOCKED: ATOM      1  C   UNL     1      26.077 -15.764  -2.524 -0.50 -0.00    +0.000 C 
DOCKED: ATOM      2  C   UNL     1      25.886 -15.646  -4.040 -0.57 -0.00    +0.000 C 
DOCKED: ENDROOT
DOCKED: BRANCH   1   3
DOCKED: ATOM      3  C   UNL     1      24.810 -16.276  -1.870 -0.55 -0.00    +0.000 C 
DOCKED: ATOM      4  C   UNL     1      24.781 -17.178  -0.866 -0.67 -0.00    +0.000 C 
DOCKED: ATOM      5  C   UNL     1      26.048 -17.786  -0.304 -0.64 -0.00    +0.000 C 
DOCKED: BRANCH   4   6
DOCKED: ATOM      6  C   UNL     1      23.453 -17.617  -0.365 -0.73 -0.00    +0.000 C 
DOCKED: ATOM      7  C   UNL     1      22.545 -18.231  -1.138 -0.76 -0.00    +0.000 C 
DOCKED: BRANCH   7   8
DOCKED: ATOM      8  C   UNL     1      21.222 -18.670  -0.648 -0.85 -0.00    +0.000 C 
DOCKED: ATOM      9  N   UNL     1      21.012 -19.962  -0.060 -0.67 -0.00    +0.000 N 
DOCKED: ATOM     10  O   UNL     1      20.253 -17.869  -0.733 -2.20 -0.00    +0.000 OA
DOCKED: ATOM     11  H   UNL     1      21.779 -20.557   0.104 -0.58 -0.00    +0.000 HD
DOCKED: BRANCH   9  12
DOCKED: ATOM     12  O   UNL     1      19.762 -20.364   0.271 -0.81 -0.00    +0.000 OA
DOCKED: ATOM     13  H   UNL     1      19.133 -19.646   0.094 -0.03 -0.00    +0.000 HD
DOCKED: ENDBRANCH   9  12
DOCKED: ENDBRANCH   7   8
DOCKED: ENDBRANCH   4   6
DOCKED: ENDBRANCH   1   3
DOCKED: BRANCH   1  14
DOCKED: ATOM     14  C   UNL     1      26.460 -14.415  -1.955 -0.32 -0.00    +0.000 C 
DOCKED: ATOM     15  O   UNL     1      26.425 -13.404  -2.712 -0.27 -0.00    +0.000 OA
DOCKED: BRANCH  14  19
DOCKED: ATOM     16  C   UNL     1      27.758 -13.948   2.144 -0.28 -0.00    +0.000 A 
DOCKED: ATOM     17  C   UNL     1      28.403 -14.846   1.270 -0.11 -0.00    +0.000 A 
DOCKED: ATOM     18  C   UNL     1      27.974 -14.993  -0.052 -0.23 -0.00    +0.000 A 
DOCKED: ATOM     19  C   UNL     1      26.894 -14.244  -0.544 -0.25 -0.00    +0.000 A 
DOCKED: ATOM     20  C   UNL     1      26.240 -13.354   0.326 -0.28 -0.00    +0.000 A 
DOCKED: ATOM     21  C   UNL     1      26.667 -13.206   1.648 -0.28 -0.00    +0.000 A 
DOCKED: BRANCH  16  23
DOCKED: ATOM     22  C   UNL     1      27.968 -14.855   4.503 -0.61 -0.00    +0.000 C 
DOCKED: ATOM     23  N   UNL     1      28.203 -13.793   3.517 -0.36 -0.00    +0.000 N 
DOCKED: ATOM     24  C   UNL     1      28.898 -12.572   3.943 -0.24 -0.00    +0.000 C 
DOCKED: ENDBRANCH  16  23
DOCKED: ENDBRANCH  14  19
DOCKED: ENDBRANCH   1  14
DOCKED: TORSDOF 7
DOCKED: TER
DOCKED: ENDMDL
________________________________________________________________________________


	BEGINNING GENETIC ALGORITHM DOCKING 79 of 100
Run: 79 Seed: 2059322348 1818464805 [ Run 79 of 100 GA/GALS ]
Beginning LAMARCKIAN GENETIC ALGORITHM (LGA), with a maximum of 2500000 energy evaluations.

Final-Value: -14.703


	FINAL GENETIC ALGORITHM DOCKED STATE
	_______________________________________________


Detailed state:  trans 25.829 -15.537 -0.721 quatxyzw -0.216867 0.970777 0.099458 -0.025866 center 1.174 0.164 -0.352 ntor 7 -5.9608 168.2798 169.3483 -5.7426 -162.4257 -28.1748 -66.3321
State:	 25.829 -15.537  -0.721  -0.217  0.971  0.099 -177.036     -5.96  168.28  169.35   -5.74 -162.43  -28.17  -66.33

DOCKED: MODEL       79
DOCKED: USER    Run = 79
DOCKED: USER    DPF = ligand_dock.biased.dpf
DOCKED: USER  
DOCKED: USER    Estimated Free Energy of Binding    =  -10.82 kcal/mol  [=(1)+(2)+(3)-(4)]
DOCKED: USER    Estimated Inhibition Constant, Ki   =   11.76 nM (nanomolar)  [Temperature = 298.15 K]
DOCKED: USER    
DOCKED: USER    (1) Final Intermolecular Energy     =  -12.91 kcal/mol
DOCKED: USER        vdW + Hbond + desolv Energy     =  -12.91 kcal/mol
DOCKED: USER        Electrostatic Energy            =   +0.00 kcal/mol
DOCKED: USER    (2) Final Total Internal Energy     =   -1.80 kcal/mol
DOCKED: USER    (3) Torsional Free Energy           =   +2.09 kcal/mol
DOCKED: USER    (4) Unbound System's Energy  [=(2)] =   -1.80 kcal/mol
DOCKED: USER    
DOCKED: USER    
DOCKED: USER    NEWDPF move ligand.pdbqt
DOCKED: USER    NEWDPF about 1.174000 0.164000 -0.352000
DOCKED: USER    NEWDPF tran0 25.829355 -15.537056 -0.721262
DOCKED: USER    NEWDPF quaternion0 -0.216867 0.970777 0.099458 -0.025866
DOCKED: USER    NEWDPF axisangle0 -0.216940 0.971102 0.099491 -177.035672
DOCKED: USER    NEWDPF quat0 -0.216940 0.971102 0.099491 -177.035672
DOCKED: USER    NEWDPF dihe0 -5.96 168.28 169.35 -5.74 -162.43 -28.17 -66.33 
DOCKED: USER  keepresnum = 1 
DOCKED: USER  
DOCKED: REMARK  Name = 
DOCKED: REMARK  11 active torsions:
DOCKED: REMARK  status: ('A' for Active; 'I' for Inactive)
DOCKED: REMARK    1  A    between atoms: C_1  and  N_2
DOCKED: REMARK    2  A    between atoms: N_2  and  C_3
DOCKED: REMARK    3  A    between atoms: N_2  and  C_22
DOCKED: REMARK    4  A    between atoms: C_6  and  C_9
DOCKED: REMARK    5  A    between atoms: C_9  and  C_10
DOCKED: REMARK    6  A    between atoms: C_10  and  C_11
DOCKED: REMARK    7  A    between atoms: C_10  and  C_20
DOCKED: REMARK    8  A    between atoms: C_12  and  C_13
DOCKED: REMARK    9  A    between atoms: C_12  and  C_19
DOCKED: REMARK   10  A    between atoms: C_14  and  C_15
DOCKED: REMARK   11  A    between atoms: N_16  and  O_17
DOCKED: REMARK                            x       y       z     vdW  Elec       q    Type
DOCKED: REMARK                         _______ _______ _______ _____ _____    ______ ____
DOCKED: USER                              x       y       z     vdW  Elec       q    Type
DOCKED: USER                           _______ _______ _______ _____ _____    ______ ____
DOCKED: ROOT
DOCKED: ATOM      1  C   UNL     1      26.314 -15.547  -2.585 -0.46 -0.00    +0.000 C 
DOCKED: ATOM      2  C   UNL     1      26.440 -15.465  -4.110 -0.51 -0.00    +0.000 C 
DOCKED: ENDROOT
DOCKED: BRANCH   1   3
DOCKED: ATOM      3  C   UNL     1      24.912 -15.967  -2.193 -0.49 -0.00    +0.000 C 
DOCKED: ATOM      4  C   UNL     1      24.630 -16.949  -1.311 -0.66 -0.00    +0.000 C 
DOCKED: ATOM      5  C   UNL     1      25.720 -17.748  -0.632 -0.66 -0.00    +0.000 C 
DOCKED: BRANCH   4   6
DOCKED: ATOM      6  C   UNL     1      23.200 -17.276  -1.071 -0.69 -0.00    +0.000 C 
DOCKED: ATOM      7  C   UNL     1      22.777 -18.498  -0.716 -0.84 -0.00    +0.000 C 
DOCKED: BRANCH   7   8
DOCKED: ATOM      8  C   UNL     1      21.358 -18.832  -0.475 -0.85 -0.00    +0.000 C 
DOCKED: ATOM      9  N   UNL     1      20.948 -20.101   0.053 -0.65 -0.00    +0.000 N 
DOCKED: ATOM     10  O   UNL     1      20.485 -17.958  -0.722 -2.27 -0.00    +0.000 OA
DOCKED: ATOM     11  H   UNL     1      21.625 -20.754   0.344 -0.59 -0.00    +0.000 HD
DOCKED: BRANCH   9  12
DOCKED: ATOM     12  O   UNL     1      19.632 -20.404   0.151 -0.82 -0.00    +0.000 OA
DOCKED: ATOM     13  H   UNL     1      19.102 -19.627  -0.088 -0.04 -0.00    +0.000 HD
DOCKED: ENDBRANCH   9  12
DOCKED: ENDBRANCH   7   8
DOCKED: ENDBRANCH   4   6
DOCKED: ENDBRANCH   1   3
DOCKED: BRANCH   1  14
DOCKED: ATOM     14  C   UNL     1      26.655 -14.204  -1.976 -0.29 -0.00    +0.000 C 
DOCKED: ATOM     15  O   UNL     1      26.751 -13.199  -2.734 -0.24 -0.00    +0.000 OA
DOCKED: BRANCH  14  19
DOCKED: ATOM     16  C   UNL     1      27.392 -13.748   2.261 -0.29 -0.00    +0.000 A 
DOCKED: ATOM     17  C   UNL     1      27.881 -14.862   1.549 -0.13 -0.00    +0.000 A 
DOCKED: ATOM     18  C   UNL     1      27.635 -15.003   0.181 -0.25 -0.00    +0.000 A 
DOCKED: ATOM     19  C   UNL     1      26.899 -14.033  -0.520 -0.24 -0.00    +0.000 A 
DOCKED: ATOM     20  C   UNL     1      26.401 -12.925   0.187 -0.22 -0.00    +0.000 A 
DOCKED: ATOM     21  C   UNL     1      26.645 -12.784   1.555 -0.31 -0.00    +0.000 A 
DOCKED: BRANCH  16  23
DOCKED: ATOM     22  C   UNL     1      27.759 -14.779   4.550 -0.62 -0.00    +0.000 C 
DOCKED: ATOM     23  N   UNL     1      27.649 -13.599   3.682 -0.42 -0.00    +0.000 N 
DOCKED: ATOM     24  C   UNL     1      27.804 -12.266   4.277 -0.36 +0.00    +0.000 C 
DOCKED: ENDBRANCH  16  23
DOCKED: ENDBRANCH  14  19
DOCKED: ENDBRANCH   1  14
DOCKED: TORSDOF 7
DOCKED: TER
DOCKED: ENDMDL
________________________________________________________________________________


	BEGINNING GENETIC ALGORITHM DOCKING 80 of 100
Run: 80 Seed: 862390117 564874250 [ Run 80 of 100 GA/GALS ]
Beginning LAMARCKIAN GENETIC ALGORITHM (LGA), with a maximum of 2500000 energy evaluations.

Final-Value: -14.743


	FINAL GENETIC ALGORITHM DOCKED STATE
	_______________________________________________


Detailed state:  trans 25.667 -15.691 -0.462 quatxyzw 0.323008 -0.930981 -0.029067 0.167619 center 1.174 0.164 -0.352 ntor 7 65.1711 -180.0000 74.8307 78.7508 175.4646 -27.6007 -39.3695
State:	 25.667 -15.691  -0.462   0.328 -0.944 -0.029 160.701     65.17 -180.00   74.83   78.75  175.46  -27.60  -39.37

DOCKED: MODEL       80
DOCKED: USER    Run = 80
DOCKED: USER    DPF = ligand_dock.biased.dpf
DOCKED: USER  
DOCKED: USER    Estimated Free Energy of Binding    =  -11.33 kcal/mol  [=(1)+(2)+(3)-(4)]
DOCKED: USER    Estimated Inhibition Constant, Ki   =    4.97 nM (nanomolar)  [Temperature = 298.15 K]
DOCKED: USER    
DOCKED: USER    (1) Final Intermolecular Energy     =  -13.42 kcal/mol
DOCKED: USER        vdW + Hbond + desolv Energy     =  -13.42 kcal/mol
DOCKED: USER        Electrostatic Energy            =   +0.00 kcal/mol
DOCKED: USER    (2) Final Total Internal Energy     =   -1.33 kcal/mol
DOCKED: USER    (3) Torsional Free Energy           =   +2.09 kcal/mol
DOCKED: USER    (4) Unbound System's Energy  [=(2)] =   -1.33 kcal/mol
DOCKED: USER    
DOCKED: USER    
DOCKED: USER    NEWDPF move ligand.pdbqt
DOCKED: USER    NEWDPF about 1.174000 0.164000 -0.352000
DOCKED: USER    NEWDPF tran0 25.667082 -15.691462 -0.462379
DOCKED: USER    NEWDPF quaternion0 0.323008 -0.930981 -0.029067 0.167619
DOCKED: USER    NEWDPF axisangle0 0.327643 -0.944341 -0.029485 160.701167
DOCKED: USER    NEWDPF quat0 0.327643 -0.944341 -0.029485 160.701167
DOCKED: USER    NEWDPF dihe0 65.17 -180.00 74.83 78.75 175.46 -27.60 -39.37 
DOCKED: USER  keepresnum = 1 
DOCKED: USER  
DOCKED: REMARK  Name = 
DOCKED: REMARK  11 active torsions:
DOCKED: REMARK  status: ('A' for Active; 'I' for Inactive)
DOCKED: REMARK    1  A    between atoms: C_1  and  N_2
DOCKED: REMARK    2  A    between atoms: N_2  and  C_3
DOCKED: REMARK    3  A    between atoms: N_2  and  C_22
DOCKED: REMARK    4  A    between atoms: C_6  and  C_9
DOCKED: REMARK    5  A    between atoms: C_9  and  C_10
DOCKED: REMARK    6  A    between atoms: C_10  and  C_11
DOCKED: REMARK    7  A    between atoms: C_10  and  C_20
DOCKED: REMARK    8  A    between atoms: C_12  and  C_13
DOCKED: REMARK    9  A    between atoms: C_12  and  C_19
DOCKED: REMARK   10  A    between atoms: C_14  and  C_15
DOCKED: REMARK   11  A    between atoms: N_16  and  O_17
DOCKED: REMARK                            x       y       z     vdW  Elec       q    Type
DOCKED: REMARK                         _______ _______ _______ _____ _____    ______ ____
DOCKED: USER                              x       y       z     vdW  Elec       q    Type
DOCKED: USER                           _______ _______ _______ _____ _____    ______ ____
DOCKED: ROOT
DOCKED: ATOM      1  C   UNL     1      26.732 -15.679  -2.067 -0.40 -0.00    +0.000 C 
DOCKED: ATOM      2  C   UNL     1      27.338 -15.634  -3.473 -0.36 -0.00    +0.000 C 
DOCKED: ENDROOT
DOCKED: BRANCH   1   3
DOCKED: ATOM      3  C   UNL     1      25.377 -16.355  -2.096 -0.58 -0.00    +0.000 C 
DOCKED: ATOM      4  C   UNL     1      24.993 -17.330  -1.245 -0.68 -0.00    +0.000 C 
DOCKED: ATOM      5  C   UNL     1      25.916 -17.858  -0.169 -0.65 -0.00    +0.000 C 
DOCKED: BRANCH   4   6
DOCKED: ATOM      6  C   UNL     1      23.646 -17.927  -1.437 -0.75 -0.00    +0.000 C 
DOCKED: ATOM      7  C   UNL     1      22.720 -17.972  -0.468 -0.82 -0.00    +0.000 C 
DOCKED: BRANCH   7   8
DOCKED: ATOM      8  C   UNL     1      21.378 -18.564  -0.650 -0.86 -0.00    +0.000 C 
DOCKED: ATOM      9  N   UNL     1      21.094 -19.933  -0.330 -0.67 -0.00    +0.000 N 
DOCKED: ATOM     10  O   UNL     1      20.450 -17.829  -1.080 -2.19 -0.00    +0.000 OA
DOCKED: ATOM     11  H   UNL     1      21.783 -20.490   0.101 -0.59 -0.00    +0.000 HD
DOCKED: BRANCH   9  12
DOCKED: ATOM     12  O   UNL     1      19.882 -20.462  -0.618 -0.93 -0.00    +0.000 OA
DOCKED: ATOM     13  H   UNL     1      19.759 -20.485  -1.580 -0.60 -0.00    +0.000 HD
DOCKED: ENDBRANCH   9  12
DOCKED: ENDBRANCH   7   8
DOCKED: ENDBRANCH   4   6
DOCKED: ENDBRANCH   1   3
DOCKED: BRANCH   1  14
DOCKED: ATOM     14  C   UNL     1      26.612 -14.272  -1.522 -0.30 -0.00    +0.000 C 
DOCKED: ATOM     15  O   UNL     1      26.260 -13.345  -2.305 -0.21 -0.00    +0.000 OA
DOCKED: BRANCH  14  19
DOCKED: ATOM     16  C   UNL     1      27.511 -13.352   2.607 -0.30 -0.00    +0.000 A 
DOCKED: ATOM     17  C   UNL     1      27.975 -14.538   2.004 -0.19 -0.00    +0.000 A 
DOCKED: ATOM     18  C   UNL     1      27.677 -14.828   0.670 -0.25 -0.00    +0.000 A 
DOCKED: ATOM     19  C   UNL     1      26.912 -13.942  -0.104 -0.25 -0.00    +0.000 A 
DOCKED: ATOM     20  C   UNL     1      26.437 -12.762   0.495 -0.26 -0.00    +0.000 A 
DOCKED: ATOM     21  C   UNL     1      26.734 -12.471   1.829 -0.30 -0.00    +0.000 A 
DOCKED: BRANCH  16  23
DOCKED: ATOM     22  C   UNL     1      28.220 -14.113   4.920 -0.57 -0.00    +0.000 C 
DOCKED: ATOM     23  N   UNL     1      27.821 -13.048   3.992 -0.37 -0.00    +0.000 N 
DOCKED: ATOM     24  C   UNL     1      27.744 -11.668   4.489 -0.35 +0.00    +0.000 C 
DOCKED: ENDBRANCH  16  23
DOCKED: ENDBRANCH  14  19
DOCKED: ENDBRANCH   1  14
DOCKED: TORSDOF 7
DOCKED: TER
DOCKED: ENDMDL
________________________________________________________________________________


	BEGINNING GENETIC ALGORITHM DOCKING 81 of 100
Run: 81 Seed: 732565319 1626144709 [ Run 81 of 100 GA/GALS ]
Beginning LAMARCKIAN GENETIC ALGORITHM (LGA), with a maximum of 2500000 energy evaluations.

Final-Value: -14.012


	FINAL GENETIC ALGORITHM DOCKED STATE
	_______________________________________________


Detailed state:  trans 26.172 -15.889 0.991 quatxyzw -0.233444 0.935665 -0.211869 -0.158577 center 1.174 0.164 -0.352 ntor 7 24.5000 142.3035 122.6086 121.7762 48.3911 145.1009 -47.9336
State:	 26.172 -15.889   0.991  -0.236  0.948 -0.215 -161.751     24.50  142.30  122.61  121.78   48.39  145.10  -47.93

DOCKED: MODEL       81
DOCKED: USER    Run = 81
DOCKED: USER    DPF = ligand_dock.biased.dpf
DOCKED: USER  
DOCKED: USER    Estimated Free Energy of Binding    =  -10.58 kcal/mol  [=(1)+(2)+(3)-(4)]
DOCKED: USER    Estimated Inhibition Constant, Ki   =   17.61 nM (nanomolar)  [Temperature = 298.15 K]
DOCKED: USER    
DOCKED: USER    (1) Final Intermolecular Energy     =  -12.67 kcal/mol
DOCKED: USER        vdW + Hbond + desolv Energy     =  -12.67 kcal/mol
DOCKED: USER        Electrostatic Energy            =   +0.00 kcal/mol
DOCKED: USER    (2) Final Total Internal Energy     =   -1.35 kcal/mol
DOCKED: USER    (3) Torsional Free Energy           =   +2.09 kcal/mol
DOCKED: USER    (4) Unbound System's Energy  [=(2)] =   -1.35 kcal/mol
DOCKED: USER    
DOCKED: USER    
DOCKED: USER    NEWDPF move ligand.pdbqt
DOCKED: USER    NEWDPF about 1.174000 0.164000 -0.352000
DOCKED: USER    NEWDPF tran0 26.172323 -15.888570 0.990917
DOCKED: USER    NEWDPF quaternion0 -0.233444 0.935665 -0.211869 -0.158577
DOCKED: USER    NEWDPF axisangle0 -0.236436 0.947656 -0.214585 -161.751432
DOCKED: USER    NEWDPF quat0 -0.236436 0.947656 -0.214585 -161.751432
DOCKED: USER    NEWDPF dihe0 24.50 142.30 122.61 121.78 48.39 145.10 -47.93 
DOCKED: USER  keepresnum = 1 
DOCKED: USER  
DOCKED: REMARK  Name = 
DOCKED: REMARK  11 active torsions:
DOCKED: REMARK  status: ('A' for Active; 'I' for Inactive)
DOCKED: REMARK    1  A    between atoms: C_1  and  N_2
DOCKED: REMARK    2  A    between atoms: N_2  and  C_3
DOCKED: REMARK    3  A    between atoms: N_2  and  C_22
DOCKED: REMARK    4  A    between atoms: C_6  and  C_9
DOCKED: REMARK    5  A    between atoms: C_9  and  C_10
DOCKED: REMARK    6  A    between atoms: C_10  and  C_11
DOCKED: REMARK    7  A    between atoms: C_10  and  C_20
DOCKED: REMARK    8  A    between atoms: C_12  and  C_13
DOCKED: REMARK    9  A    between atoms: C_12  and  C_19
DOCKED: REMARK   10  A    between atoms: C_14  and  C_15
DOCKED: REMARK   11  A    between atoms: N_16  and  O_17
DOCKED: REMARK                            x       y       z     vdW  Elec       q    Type
DOCKED: REMARK                         _______ _______ _______ _____ _____    ______ ____
DOCKED: USER                              x       y       z     vdW  Elec       q    Type
DOCKED: USER                           _______ _______ _______ _____ _____    ______ ____
DOCKED: ROOT
DOCKED: ATOM      1  C   UNL     1      27.318 -16.790  -0.267 -0.43 -0.00    +0.000 C 
DOCKED: ATOM      2  C   UNL     1      28.016 -17.482  -1.443 -0.24 -0.00    +0.000 C 
DOCKED: ENDROOT
DOCKED: BRANCH   1   3
DOCKED: ATOM      3  C   UNL     1      25.837 -17.107  -0.272 -0.51 -0.00    +0.000 C 
DOCKED: ATOM      4  C   UNL     1      25.012 -16.882  -1.316 -0.64 -0.00    +0.000 C 
DOCKED: ATOM      5  C   UNL     1      25.508 -16.261  -2.604 -0.56 -0.00    +0.000 C 
DOCKED: BRANCH   4   6
DOCKED: ATOM      6  C   UNL     1      23.571 -17.202  -1.145 -0.68 -0.00    +0.000 C 
DOCKED: ATOM      7  C   UNL     1      23.075 -18.441  -1.275 -0.78 -0.00    +0.000 C 
DOCKED: BRANCH   7   8
DOCKED: ATOM      8  C   UNL     1      21.645 -18.769  -1.106 -0.80 -0.00    +0.000 C 
DOCKED: ATOM      9  N   UNL     1      20.970 -19.714  -1.948 -0.60 -0.00    +0.000 N 
DOCKED: ATOM     10  O   UNL     1      21.006 -18.211  -0.174 -1.70 -0.00    +0.000 OA
DOCKED: ATOM     11  H   UNL     1      21.479 -20.230  -2.614 -0.59 -0.00    +0.000 HD
DOCKED: BRANCH   9  12
DOCKED: ATOM     12  O   UNL     1      19.634 -19.898  -1.829 -1.64 -0.00    +0.000 OA
DOCKED: ATOM     13  H   UNL     1      19.229 -19.102  -1.452 -0.46 -0.00    +0.000 HD
DOCKED: ENDBRANCH   9  12
DOCKED: ENDBRANCH   7   8
DOCKED: ENDBRANCH   4   6
DOCKED: ENDBRANCH   1   3
DOCKED: BRANCH   1  14
DOCKED: ATOM     14  C   UNL     1      27.541 -15.296  -0.353 -0.31 -0.00    +0.000 C 
DOCKED: ATOM     15  O   UNL     1      27.675 -14.766  -1.491 -0.21 -0.00    +0.000 OA
DOCKED: BRANCH  14  19
DOCKED: ATOM     16  C   UNL     1      27.747 -12.776   3.157 -0.29 -0.00    +0.000 A 
DOCKED: ATOM     17  C   UNL     1      26.635 -12.738   2.292 -0.29 -0.00    +0.000 A 
DOCKED: ATOM     18  C   UNL     1      26.578 -13.553   1.159 -0.20 -0.00    +0.000 A 
DOCKED: ATOM     19  C   UNL     1      27.627 -14.436   0.857 -0.25 -0.00    +0.000 A 
DOCKED: ATOM     20  C   UNL     1      28.744 -14.472   1.709 -0.16 -0.00    +0.000 A 
DOCKED: ATOM     21  C   UNL     1      28.802 -13.657   2.843 -0.23 -0.00    +0.000 A 
DOCKED: BRANCH  16  23
DOCKED: ATOM     22  C   UNL     1      27.715 -10.471   4.214 -0.30 +0.00    +0.000 C 
DOCKED: ATOM     23  N   UNL     1      27.807 -11.932   4.335 -0.33 +0.00    +0.000 N 
DOCKED: ATOM     24  C   UNL     1      27.957 -12.523   5.671 -0.46 +0.00    +0.000 C 
DOCKED: ENDBRANCH  16  23
DOCKED: ENDBRANCH  14  19
DOCKED: ENDBRANCH   1  14
DOCKED: TORSDOF 7
DOCKED: TER
DOCKED: ENDMDL
________________________________________________________________________________


	BEGINNING GENETIC ALGORITHM DOCKING 82 of 100
Run: 82 Seed: 1268654528 938583402 [ Run 82 of 100 GA/GALS ]
Beginning LAMARCKIAN GENETIC ALGORITHM (LGA), with a maximum of 2500000 energy evaluations.

Final-Value: -14.822


	FINAL GENETIC ALGORITHM DOCKED STATE
	_______________________________________________


Detailed state:  trans 25.871 -15.699 -0.567 quatxyzw 0.220241 -0.967286 -0.116840 -0.046898 center 1.174 0.164 -0.352 ntor 7 3.2616 -29.6833 -131.2850 -62.6942 32.9056 -27.4962 -72.3016
State:	 25.871 -15.699  -0.567   0.220 -0.968 -0.117 -174.624      3.26  -29.68 -131.28  -62.69   32.91  -27.50  -72.30

DOCKED: MODEL       82
DOCKED: USER    Run = 82
DOCKED: USER    DPF = ligand_dock.biased.dpf
DOCKED: USER  
DOCKED: USER    Estimated Free Energy of Binding    =  -10.90 kcal/mol  [=(1)+(2)+(3)-(4)]
DOCKED: USER    Estimated Inhibition Constant, Ki   =   10.30 nM (nanomolar)  [Temperature = 298.15 K]
DOCKED: USER    
DOCKED: USER    (1) Final Intermolecular Energy     =  -12.98 kcal/mol
DOCKED: USER        vdW + Hbond + desolv Energy     =  -12.98 kcal/mol
DOCKED: USER        Electrostatic Energy            =   +0.00 kcal/mol
DOCKED: USER    (2) Final Total Internal Energy     =   -1.84 kcal/mol
DOCKED: USER    (3) Torsional Free Energy           =   +2.09 kcal/mol
DOCKED: USER    (4) Unbound System's Energy  [=(2)] =   -1.84 kcal/mol
DOCKED: USER    
DOCKED: USER    
DOCKED: USER    NEWDPF move ligand.pdbqt
DOCKED: USER    NEWDPF about 1.174000 0.164000 -0.352000
DOCKED: USER    NEWDPF tran0 25.871441 -15.699223 -0.567091
DOCKED: USER    NEWDPF quaternion0 0.220241 -0.967286 -0.116840 -0.046898
DOCKED: USER    NEWDPF axisangle0 0.220484 -0.968352 -0.116969 -174.623936
DOCKED: USER    NEWDPF quat0 0.220484 -0.968352 -0.116969 -174.623936
DOCKED: USER    NEWDPF dihe0 3.26 -29.68 -131.28 -62.69 32.91 -27.50 -72.30 
DOCKED: USER  keepresnum = 1 
DOCKED: USER  
DOCKED: REMARK  Name = 
DOCKED: REMARK  11 active torsions:
DOCKED: REMARK  status: ('A' for Active; 'I' for Inactive)
DOCKED: REMARK    1  A    between atoms: C_1  and  N_2
DOCKED: REMARK    2  A    between atoms: N_2  and  C_3
DOCKED: REMARK    3  A    between atoms: N_2  and  C_22
DOCKED: REMARK    4  A    between atoms: C_6  and  C_9
DOCKED: REMARK    5  A    between atoms: C_9  and  C_10
DOCKED: REMARK    6  A    between atoms: C_10  and  C_11
DOCKED: REMARK    7  A    between atoms: C_10  and  C_20
DOCKED: REMARK    8  A    between atoms: C_12  and  C_13
DOCKED: REMARK    9  A    between atoms: C_12  and  C_19
DOCKED: REMARK   10  A    between atoms: C_14  and  C_15
DOCKED: REMARK   11  A    between atoms: N_16  and  O_17
DOCKED: REMARK                            x       y       z     vdW  Elec       q    Type
DOCKED: REMARK                         _______ _______ _______ _____ _____    ______ ____
DOCKED: USER                              x       y       z     vdW  Elec       q    Type
DOCKED: USER                           _______ _______ _______ _____ _____    ______ ____
DOCKED: ROOT
DOCKED: ATOM      1  C   UNL     1      26.075 -15.696  -2.482 -0.49 -0.00    +0.000 C 
DOCKED: ATOM      2  C   UNL     1      25.974 -15.610  -4.008 -0.58 -0.00    +0.000 C 
DOCKED: ENDROOT
DOCKED: BRANCH   1   3
DOCKED: ATOM      3  C   UNL     1      24.757 -16.150  -1.889 -0.50 -0.00    +0.000 C 
DOCKED: ATOM      4  C   UNL     1      24.632 -17.130  -0.970 -0.68 -0.00    +0.000 C 
DOCKED: ATOM      5  C   UNL     1      25.831 -17.893  -0.450 -0.66 -0.00    +0.000 C 
DOCKED: BRANCH   4   6
DOCKED: ATOM      6  C   UNL     1      23.262 -17.492  -0.524 -0.75 -0.00    +0.000 C 
DOCKED: ATOM      7  C   UNL     1      22.549 -18.484  -1.077 -0.82 -0.00    +0.000 C 
DOCKED: BRANCH   7   8
DOCKED: ATOM      8  C   UNL     1      21.186 -18.851  -0.640 -0.87 -0.00    +0.000 C 
DOCKED: ATOM      9  N   UNL     1      20.895 -20.106  -0.009 -0.66 -0.00    +0.000 N 
DOCKED: ATOM     10  O   UNL     1      20.256 -18.019  -0.811 -2.17 -0.00    +0.000 OA
DOCKED: ATOM     11  H   UNL     1      21.629 -20.722   0.222 -0.56 -0.00    +0.000 HD
DOCKED: BRANCH   9  12
DOCKED: ATOM     12  O   UNL     1      19.615 -20.446   0.272 -0.81 -0.00    +0.000 OA
DOCKED: ATOM     13  H   UNL     1      19.017 -19.760  -0.063 -0.04 -0.00    +0.000 HD
DOCKED: ENDBRANCH   9  12
DOCKED: ENDBRANCH   7   8
DOCKED: ENDBRANCH   4   6
DOCKED: ENDBRANCH   1   3
DOCKED: BRANCH   1  14
DOCKED: ATOM     14  C   UNL     1      26.472 -14.346  -1.924 -0.31 -0.00    +0.000 C 
DOCKED: ATOM     15  O   UNL     1      26.541 -13.360  -2.710 -0.26 -0.00    +0.000 OA
DOCKED: BRANCH  14  19
DOCKED: ATOM     16  C   UNL     1      27.390 -13.734   2.258 -0.29 -0.00    +0.000 A 
DOCKED: ATOM     17  C   UNL     1      26.388 -12.984   1.612 -0.29 -0.00    +0.000 A 
DOCKED: ATOM     18  C   UNL     1      26.100 -13.186   0.259 -0.21 -0.00    +0.000 A 
DOCKED: ATOM     19  C   UNL     1      26.800 -14.147  -0.488 -0.26 -0.00    +0.000 A 
DOCKED: ATOM     20  C   UNL     1      27.808 -14.891   0.149 -0.24 -0.00    +0.000 A 
DOCKED: ATOM     21  C   UNL     1      28.098 -14.690   1.501 -0.17 -0.00    +0.000 A 
DOCKED: BRANCH  16  23
DOCKED: ATOM     22  C   UNL     1      27.758 -14.664   4.588 -0.62 -0.00    +0.000 C 
DOCKED: ATOM     23  N   UNL     1      27.689 -13.526   3.663 -0.40 -0.00    +0.000 N 
DOCKED: ATOM     24  C   UNL     1      27.930 -12.175   4.184 -0.34 +0.00    +0.000 C 
DOCKED: ENDBRANCH  16  23
DOCKED: ENDBRANCH  14  19
DOCKED: ENDBRANCH   1  14
DOCKED: TORSDOF 7
DOCKED: TER
DOCKED: ENDMDL
________________________________________________________________________________


	BEGINNING GENETIC ALGORITHM DOCKING 83 of 100
Run: 83 Seed: 1110295942 1844565597 [ Run 83 of 100 GA/GALS ]
Beginning LAMARCKIAN GENETIC ALGORITHM (LGA), with a maximum of 2500000 energy evaluations.

Final-Value: -13.709


	FINAL GENETIC ALGORITHM DOCKED STATE
	_______________________________________________


Detailed state:  trans 26.867 -16.879 -1.564 quatxyzw 0.038899 -0.913974 -0.403376 -0.020617 center 1.174 0.164 -0.352 ntor 7 -157.3667 91.5883 143.9513 -43.6149 -110.9379 14.7243 -180.0000
State:	 26.867 -16.879  -1.564   0.039 -0.914 -0.403 -177.637   -157.37   91.59  143.95  -43.61 -110.94   14.72 -180.00

DOCKED: MODEL       83
DOCKED: USER    Run = 83
DOCKED: USER    DPF = ligand_dock.biased.dpf
DOCKED: USER  
DOCKED: USER    Estimated Free Energy of Binding    =  -10.30 kcal/mol  [=(1)+(2)+(3)-(4)]
DOCKED: USER    Estimated Inhibition Constant, Ki   =   27.95 nM (nanomolar)  [Temperature = 298.15 K]
DOCKED: USER    
DOCKED: USER    (1) Final Intermolecular Energy     =  -12.39 kcal/mol
DOCKED: USER        vdW + Hbond + desolv Energy     =  -12.39 kcal/mol
DOCKED: USER        Electrostatic Energy            =   +0.00 kcal/mol
DOCKED: USER    (2) Final Total Internal Energy     =   -1.32 kcal/mol
DOCKED: USER    (3) Torsional Free Energy           =   +2.09 kcal/mol
DOCKED: USER    (4) Unbound System's Energy  [=(2)] =   -1.32 kcal/mol
DOCKED: USER    
DOCKED: USER    
DOCKED: USER    NEWDPF move ligand.pdbqt
DOCKED: USER    NEWDPF about 1.174000 0.164000 -0.352000
DOCKED: USER    NEWDPF tran0 26.867303 -16.878995 -1.563882
DOCKED: USER    NEWDPF quaternion0 0.038899 -0.913974 -0.403376 -0.020617
DOCKED: USER    NEWDPF axisangle0 0.038908 -0.914169 -0.403462 -177.637283
DOCKED: USER    NEWDPF quat0 0.038908 -0.914169 -0.403462 -177.637283
DOCKED: USER    NEWDPF dihe0 -157.37 91.59 143.95 -43.61 -110.94 14.72 -180.00 
DOCKED: USER  keepresnum = 1 
DOCKED: USER  
DOCKED: REMARK  Name = 
DOCKED: REMARK  11 active torsions:
DOCKED: REMARK  status: ('A' for Active; 'I' for Inactive)
DOCKED: REMARK    1  A    between atoms: C_1  and  N_2
DOCKED: REMARK    2  A    between atoms: N_2  and  C_3
DOCKED: REMARK    3  A    between atoms: N_2  and  C_22
DOCKED: REMARK    4  A    between atoms: C_6  and  C_9
DOCKED: REMARK    5  A    between atoms: C_9  and  C_10
DOCKED: REMARK    6  A    between atoms: C_10  and  C_11
DOCKED: REMARK    7  A    between atoms: C_10  and  C_20
DOCKED: REMARK    8  A    between atoms: C_12  and  C_13
DOCKED: REMARK    9  A    between atoms: C_12  and  C_19
DOCKED: REMARK   10  A    between atoms: C_14  and  C_15
DOCKED: REMARK   11  A    between atoms: N_16  and  O_17
DOCKED: REMARK                            x       y       z     vdW  Elec       q    Type
DOCKED: REMARK                         _______ _______ _______ _____ _____    ______ ____
DOCKED: USER                              x       y       z     vdW  Elec       q    Type
DOCKED: USER                           _______ _______ _______ _____ _____    ______ ____
DOCKED: ROOT
DOCKED: ATOM      1  C   UNL     1      27.030 -15.885  -3.205 -0.34 -0.00    +0.000 C 
DOCKED: ATOM      2  C   UNL     1      26.946 -14.947  -4.414 -0.48 -0.00    +0.000 C 
DOCKED: ENDROOT
DOCKED: BRANCH   1   3
DOCKED: ATOM      3  C   UNL     1      25.647 -16.162  -2.654 -0.54 -0.00    +0.000 C 
DOCKED: ATOM      4  C   UNL     1      25.383 -17.041  -1.664 -0.62 -0.00    +0.000 C 
DOCKED: ATOM      5  C   UNL     1      26.475 -17.859  -1.012 -0.51 -0.00    +0.000 C 
DOCKED: BRANCH   4   6
DOCKED: ATOM      6  C   UNL     1      23.963 -17.236  -1.270 -0.70 -0.00    +0.000 C 
DOCKED: ATOM      7  C   UNL     1      23.298 -18.384  -1.470 -0.76 -0.00    +0.000 C 
DOCKED: BRANCH   7   8
DOCKED: ATOM      8  C   UNL     1      21.887 -18.587  -1.082 -0.81 -0.00    +0.000 C 
DOCKED: ATOM      9  N   UNL     1      21.088 -19.647  -1.624 -0.69 -0.00    +0.000 N 
DOCKED: ATOM     10  O   UNL     1      21.381 -17.811  -0.227 -1.57 -0.00    +0.000 OA
DOCKED: ATOM     11  H   UNL     1      21.499 -20.320  -2.214 -0.53 -0.00    +0.000 HD
DOCKED: BRANCH   9  12
DOCKED: ATOM     12  O   UNL     1      19.770 -19.727  -1.325 -1.57 -0.00    +0.000 OA
DOCKED: ATOM     13  H   UNL     1      19.464 -20.639  -1.450 -0.62 -0.00    +0.000 HD
DOCKED: ENDBRANCH   9  12
DOCKED: ENDBRANCH   7   8
DOCKED: ENDBRANCH   4   6
DOCKED: ENDBRANCH   1   3
DOCKED: BRANCH   1  14
DOCKED: ATOM     14  C   UNL     1      27.910 -15.263  -2.142 -0.25 -0.00    +0.000 C 
DOCKED: ATOM     15  O   UNL     1      29.098 -15.674  -2.020 -0.18 -0.00    +0.000 OA
DOCKED: BRANCH  14  19
DOCKED: ATOM     16  C   UNL     1      26.465 -12.209   0.558 -0.24 -0.00    +0.000 A 
DOCKED: ATOM     17  C   UNL     1      26.402 -13.575   0.897 -0.19 -0.00    +0.000 A 
DOCKED: ATOM     18  C   UNL     1      26.868 -14.556   0.017 -0.27 -0.00    +0.000 A 
DOCKED: ATOM     19  C   UNL     1      27.417 -14.202  -1.226 -0.20 -0.00    +0.000 A 
DOCKED: ATOM     20  C   UNL     1      27.474 -12.842  -1.574 -0.13 -0.00    +0.000 A 
DOCKED: ATOM     21  C   UNL     1      27.008 -11.860  -0.696 -0.09 -0.00    +0.000 A 
DOCKED: BRANCH  16  23
DOCKED: ATOM     22  C   UNL     1      24.751 -10.446   1.179 -0.44 +0.00    +0.000 C 
DOCKED: ATOM     23  N   UNL     1      25.983 -11.189   1.471 -0.39 +0.00    +0.000 N 
DOCKED: ATOM     24  C   UNL     1      26.718 -10.884   2.705 -0.29 +0.00    +0.000 C 
DOCKED: ENDBRANCH  16  23
DOCKED: ENDBRANCH  14  19
DOCKED: ENDBRANCH   1  14
DOCKED: TORSDOF 7
DOCKED: TER
DOCKED: ENDMDL
________________________________________________________________________________


	BEGINNING GENETIC ALGORITHM DOCKING 84 of 100
Run: 84 Seed: 1244219329 1650612074 [ Run 84 of 100 GA/GALS ]
Beginning LAMARCKIAN GENETIC ALGORITHM (LGA), with a maximum of 2500000 energy evaluations.

Final-Value: -14.824


	FINAL GENETIC ALGORITHM DOCKED STATE
	_______________________________________________


Detailed state:  trans 26.164 -15.775 -0.441 quatxyzw 0.347451 -0.931664 -0.083282 0.065905 center 1.174 0.164 -0.352 ntor 7 6.0667 -28.1497 -45.7465 167.2399 -165.6068 -25.3411 -57.2970
State:	 26.164 -15.775  -0.441   0.348 -0.934 -0.083 172.442      6.07  -28.15  -45.75  167.24 -165.61  -25.34  -57.30

DOCKED: MODEL       84
DOCKED: USER    Run = 84
DOCKED: USER    DPF = ligand_dock.biased.dpf
DOCKED: USER  
DOCKED: USER    Estimated Free Energy of Binding    =  -10.87 kcal/mol  [=(1)+(2)+(3)-(4)]
DOCKED: USER    Estimated Inhibition Constant, Ki   =   10.70 nM (nanomolar)  [Temperature = 298.15 K]
DOCKED: USER    
DOCKED: USER    (1) Final Intermolecular Energy     =  -12.96 kcal/mol
DOCKED: USER        vdW + Hbond + desolv Energy     =  -12.96 kcal/mol
DOCKED: USER        Electrostatic Energy            =   +0.00 kcal/mol
DOCKED: USER    (2) Final Total Internal Energy     =   -1.86 kcal/mol
DOCKED: USER    (3) Torsional Free Energy           =   +2.09 kcal/mol
DOCKED: USER    (4) Unbound System's Energy  [=(2)] =   -1.86 kcal/mol
DOCKED: USER    
DOCKED: USER    
DOCKED: USER    NEWDPF move ligand.pdbqt
DOCKED: USER    NEWDPF about 1.174000 0.164000 -0.352000
DOCKED: USER    NEWDPF tran0 26.163543 -15.774904 -0.440729
DOCKED: USER    NEWDPF quaternion0 0.347451 -0.931664 -0.083282 0.065905
DOCKED: USER    NEWDPF axisangle0 0.348208 -0.933694 -0.083464 172.442371
DOCKED: USER    NEWDPF quat0 0.348208 -0.933694 -0.083464 172.442371
DOCKED: USER    NEWDPF dihe0 6.07 -28.15 -45.75 167.24 -165.61 -25.34 -57.30 
DOCKED: USER  keepresnum = 1 
DOCKED: USER  
DOCKED: REMARK  Name = 
DOCKED: REMARK  11 active torsions:
DOCKED: REMARK  status: ('A' for Active; 'I' for Inactive)
DOCKED: REMARK    1  A    between atoms: C_1  and  N_2
DOCKED: REMARK    2  A    between atoms: N_2  and  C_3
DOCKED: REMARK    3  A    between atoms: N_2  and  C_22
DOCKED: REMARK    4  A    between atoms: C_6  and  C_9
DOCKED: REMARK    5  A    between atoms: C_9  and  C_10
DOCKED: REMARK    6  A    between atoms: C_10  and  C_11
DOCKED: REMARK    7  A    between atoms: C_10  and  C_20
DOCKED: REMARK    8  A    between atoms: C_12  and  C_13
DOCKED: REMARK    9  A    between atoms: C_12  and  C_19
DOCKED: REMARK   10  A    between atoms: C_14  and  C_15
DOCKED: REMARK   11  A    between atoms: N_16  and  O_17
DOCKED: REMARK                            x       y       z     vdW  Elec       q    Type
DOCKED: REMARK                         _______ _______ _______ _____ _____    ______ ____
DOCKED: USER                              x       y       z     vdW  Elec       q    Type
DOCKED: USER                           _______ _______ _______ _____ _____    ______ ____
DOCKED: ROOT
DOCKED: ATOM      1  C   UNL     1      26.842 -15.655  -2.239 -0.38 -0.00    +0.000 C 
DOCKED: ATOM      2  C   UNL     1      27.115 -15.541  -3.742 -0.40 -0.00    +0.000 C 
DOCKED: ENDROOT
DOCKED: BRANCH   1   3
DOCKED: ATOM      3  C   UNL     1      25.561 -16.426  -1.992 -0.57 -0.00    +0.000 C 
DOCKED: ATOM      4  C   UNL     1      25.430 -17.413  -1.081 -0.65 -0.00    +0.000 C 
DOCKED: ATOM      5  C   UNL     1      26.588 -17.858  -0.215 -0.59 -0.00    +0.000 C 
DOCKED: BRANCH   4   6
DOCKED: ATOM      6  C   UNL     1      24.119 -18.107  -0.994 -0.78 -0.00    +0.000 C 
DOCKED: ATOM      7  C   UNL     1      22.945 -17.481  -1.167 -0.62 -0.00    +0.000 C 
DOCKED: BRANCH   7   8
DOCKED: ATOM      8  C   UNL     1      21.637 -18.163  -1.082 -0.68 -0.00    +0.000 C 
DOCKED: ATOM      9  N   UNL     1      21.478 -19.556  -1.385 -0.66 -0.00    +0.000 N 
DOCKED: ATOM     10  O   UNL     1      20.635 -17.497  -0.709 -2.09 +0.00    +0.000 OA
DOCKED: ATOM     11  H   UNL     1      22.269 -20.110  -1.579 -0.40 -0.00    +0.000 HD
DOCKED: BRANCH   9  12
DOCKED: ATOM     12  O   UNL     1      20.243 -20.112  -1.404 -1.57 -0.00    +0.000 OA
DOCKED: ATOM     13  H   UNL     1      19.575 -19.419  -1.288 -0.15 -0.00    +0.000 HD
DOCKED: ENDBRANCH   9  12
DOCKED: ENDBRANCH   7   8
DOCKED: ENDBRANCH   4   6
DOCKED: ENDBRANCH   1   3
DOCKED: BRANCH   1  14
DOCKED: ATOM     14  C   UNL     1      26.753 -14.271  -1.633 -0.29 -0.00    +0.000 C 
DOCKED: ATOM     15  O   UNL     1      26.499 -13.292  -2.389 -0.23 -0.00    +0.000 OA
DOCKED: BRANCH  14  19
DOCKED: ATOM     16  C   UNL     1      27.434 -13.585   2.582 -0.31 -0.00    +0.000 A 
DOCKED: ATOM     17  C   UNL     1      28.187 -14.534   1.865 -0.18 -0.00    +0.000 A 
DOCKED: ATOM     18  C   UNL     1      27.959 -14.752   0.503 -0.23 -0.00    +0.000 A 
DOCKED: ATOM     19  C   UNL     1      26.975 -14.024  -0.184 -0.25 -0.00    +0.000 A 
DOCKED: ATOM     20  C   UNL     1      26.212 -13.083   0.528 -0.28 -0.00    +0.000 A 
DOCKED: ATOM     21  C   UNL     1      26.440 -12.864   1.890 -0.28 -0.00    +0.000 A 
DOCKED: BRANCH  16  23
DOCKED: ATOM     22  C   UNL     1      27.828 -11.992   4.516 -0.36 +0.00    +0.000 C 
DOCKED: ATOM     23  N   UNL     1      27.671 -13.356   3.996 -0.42 -0.00    +0.000 N 
DOCKED: ATOM     24  C   UNL     1      27.758 -14.485   4.931 -0.58 -0.00    +0.000 C 
DOCKED: ENDBRANCH  16  23
DOCKED: ENDBRANCH  14  19
DOCKED: ENDBRANCH   1  14
DOCKED: TORSDOF 7
DOCKED: TER
DOCKED: ENDMDL
________________________________________________________________________________


	BEGINNING GENETIC ALGORITHM DOCKING 85 of 100
Run: 85 Seed: 279169809 1289943661 [ Run 85 of 100 GA/GALS ]
Beginning LAMARCKIAN GENETIC ALGORITHM (LGA), with a maximum of 2500000 energy evaluations.

Final-Value: -13.962


	FINAL GENETIC ALGORITHM DOCKED STATE
	_______________________________________________


Detailed state:  trans 25.735 -15.457 -2.691 quatxyzw 0.180330 -0.210716 0.957302 0.081569 center 1.174 0.164 -0.352 ntor 7 1.5084 -162.2354 149.1031 42.0631 125.6005 151.5737 -36.1996
State:	 25.735 -15.457  -2.691   0.181 -0.211  0.961 170.643      1.51 -162.24  149.10   42.06  125.60  151.57  -36.20

DOCKED: MODEL       85
DOCKED: USER    Run = 85
DOCKED: USER    DPF = ligand_dock.biased.dpf
DOCKED: USER  
DOCKED: USER    Estimated Free Energy of Binding    =  -10.54 kcal/mol  [=(1)+(2)+(3)-(4)]
DOCKED: USER    Estimated Inhibition Constant, Ki   =   18.65 nM (nanomolar)  [Temperature = 298.15 K]
DOCKED: USER    
DOCKED: USER    (1) Final Intermolecular Energy     =  -12.63 kcal/mol
DOCKED: USER        vdW + Hbond + desolv Energy     =  -12.63 kcal/mol
DOCKED: USER        Electrostatic Energy            =   +0.00 kcal/mol
DOCKED: USER    (2) Final Total Internal Energy     =   -1.33 kcal/mol
DOCKED: USER    (3) Torsional Free Energy           =   +2.09 kcal/mol
DOCKED: USER    (4) Unbound System's Energy  [=(2)] =   -1.33 kcal/mol
DOCKED: USER    
DOCKED: USER    
DOCKED: USER    NEWDPF move ligand.pdbqt
DOCKED: USER    NEWDPF about 1.174000 0.164000 -0.352000
DOCKED: USER    NEWDPF tran0 25.734728 -15.456974 -2.690811
DOCKED: USER    NEWDPF quaternion0 0.180330 -0.210716 0.957302 0.081569
DOCKED: USER    NEWDPF axisangle0 0.180933 -0.211421 0.960502 170.642533
DOCKED: USER    NEWDPF quat0 0.180933 -0.211421 0.960502 170.642533
DOCKED: USER    NEWDPF dihe0 1.51 -162.24 149.10 42.06 125.60 151.57 -36.20 
DOCKED: USER  keepresnum = 1 
DOCKED: USER  
DOCKED: REMARK  Name = 
DOCKED: REMARK  11 active torsions:
DOCKED: REMARK  status: ('A' for Active; 'I' for Inactive)
DOCKED: REMARK    1  A    between atoms: C_1  and  N_2
DOCKED: REMARK    2  A    between atoms: N_2  and  C_3
DOCKED: REMARK    3  A    between atoms: N_2  and  C_22
DOCKED: REMARK    4  A    between atoms: C_6  and  C_9
DOCKED: REMARK    5  A    between atoms: C_9  and  C_10
DOCKED: REMARK    6  A    between atoms: C_10  and  C_11
DOCKED: REMARK    7  A    between atoms: C_10  and  C_20
DOCKED: REMARK    8  A    between atoms: C_12  and  C_13
DOCKED: REMARK    9  A    between atoms: C_12  and  C_19
DOCKED: REMARK   10  A    between atoms: C_14  and  C_15
DOCKED: REMARK   11  A    between atoms: N_16  and  O_17
DOCKED: REMARK                            x       y       z     vdW  Elec       q    Type
DOCKED: REMARK                         _______ _______ _______ _____ _____    ______ ____
DOCKED: USER                              x       y       z     vdW  Elec       q    Type
DOCKED: USER                           _______ _______ _______ _____ _____    ______ ____
DOCKED: ROOT
DOCKED: ATOM      1  C   UNL     1      26.623 -15.582  -0.987 -0.40 -0.00    +0.000 C 
DOCKED: ATOM      2  C   UNL     1      27.181 -15.913   0.401 -0.25 -0.00    +0.000 C 
DOCKED: ENDROOT
DOCKED: BRANCH   1   3
DOCKED: ATOM      3  C   UNL     1      25.169 -15.995  -1.084 -0.50 -0.00    +0.000 C 
DOCKED: ATOM      4  C   UNL     1      24.694 -17.205  -0.721 -0.67 -0.00    +0.000 C 
DOCKED: ATOM      5  C   UNL     1      25.602 -18.289  -0.185 -0.67 -0.00    +0.000 C 
DOCKED: BRANCH   4   6
DOCKED: ATOM      6  C   UNL     1      23.246 -17.472  -0.925 -0.75 -0.00    +0.000 C 
DOCKED: ATOM      7  C   UNL     1      22.586 -18.455  -0.295 -0.83 -0.00    +0.000 C 
DOCKED: BRANCH   7   8
DOCKED: ATOM      8  C   UNL     1      21.148 -18.727  -0.492 -0.82 -0.00    +0.000 C 
DOCKED: ATOM      9  N   UNL     1      20.525 -19.932  -0.026 -0.73 -0.00    +0.000 N 
DOCKED: ATOM     10  O   UNL     1      20.444 -17.857  -1.071 -2.20 -0.00    +0.000 OA
DOCKED: ATOM     11  H   UNL     1      21.040 -20.574   0.515 -0.48 -0.00    +0.000 HD
DOCKED: BRANCH   9  12
DOCKED: ATOM     12  O   UNL     1      19.230 -20.190  -0.328 -0.90 -0.00    +0.000 OA
DOCKED: ATOM     13  H   UNL     1      18.879 -19.476  -0.883 -0.35 -0.00    +0.000 HD
DOCKED: ENDBRANCH   9  12
DOCKED: ENDBRANCH   7   8
DOCKED: ENDBRANCH   4   6
DOCKED: ENDBRANCH   1   3
DOCKED: BRANCH   1  14
DOCKED: ATOM     14  C   UNL     1      27.446 -16.285  -2.045 -0.36 -0.00    +0.000 C 
DOCKED: ATOM     15  O   UNL     1      27.800 -17.481  -1.844 -0.35 -0.00    +0.000 OA
DOCKED: BRANCH  14  19
DOCKED: ATOM     16  C   UNL     1      28.630 -14.294  -5.697 -0.29 -0.00    +0.000 A 
DOCKED: ATOM     17  C   UNL     1      27.424 -13.970  -5.045 -0.31 -0.00    +0.000 A 
DOCKED: ATOM     18  C   UNL     1      27.047 -14.621  -3.867 -0.34 -0.00    +0.000 A 
DOCKED: ATOM     19  C   UNL     1      27.866 -15.610  -3.300 -0.27 -0.00    +0.000 A 
DOCKED: ATOM     20  C   UNL     1      29.066 -15.945  -3.952 -0.24 -0.00    +0.000 A 
DOCKED: ATOM     21  C   UNL     1      29.444 -15.296  -5.130 -0.25 -0.00    +0.000 A 
DOCKED: BRANCH  16  23
DOCKED: ATOM     22  C   UNL     1      28.142 -12.619  -7.538 -0.20 -0.00    +0.000 C 
DOCKED: ATOM     23  N   UNL     1      29.023 -13.617  -6.919 -0.28 -0.00    +0.000 N 
DOCKED: ATOM     24  C   UNL     1      30.311 -13.918  -7.558 -0.21 -0.00    +0.000 C 
DOCKED: ENDBRANCH  16  23
DOCKED: ENDBRANCH  14  19
DOCKED: ENDBRANCH   1  14
DOCKED: TORSDOF 7
DOCKED: TER
DOCKED: ENDMDL
________________________________________________________________________________


	BEGINNING GENETIC ALGORITHM DOCKING 86 of 100
Run: 86 Seed: 219857915 589417225 [ Run 86 of 100 GA/GALS ]
Beginning LAMARCKIAN GENETIC ALGORITHM (LGA), with a maximum of 2500000 energy evaluations.

Final-Value: -15.144


	FINAL GENETIC ALGORITHM DOCKED STATE
	_______________________________________________


Detailed state:  trans 25.702 -15.687 0.510 quatxyzw -0.340509 0.910779 -0.072837 -0.221877 center 1.174 0.164 -0.352 ntor 7 4.7397 179.8113 -31.4437 166.4376 -4.4522 -66.0429 -29.5616
State:	 25.702 -15.687   0.510  -0.349  0.934 -0.075 -154.361      4.74  179.81  -31.44  166.44   -4.45  -66.04  -29.56

DOCKED: MODEL       86
DOCKED: USER    Run = 86
DOCKED: USER    DPF = ligand_dock.biased.dpf
DOCKED: USER  
DOCKED: USER    Estimated Free Energy of Binding    =  -11.40 kcal/mol  [=(1)+(2)+(3)-(4)]
DOCKED: USER    Estimated Inhibition Constant, Ki   =    4.38 nM (nanomolar)  [Temperature = 298.15 K]
DOCKED: USER    
DOCKED: USER    (1) Final Intermolecular Energy     =  -13.49 kcal/mol
DOCKED: USER        vdW + Hbond + desolv Energy     =  -13.49 kcal/mol
DOCKED: USER        Electrostatic Energy            =   +0.00 kcal/mol
DOCKED: USER    (2) Final Total Internal Energy     =   -1.65 kcal/mol
DOCKED: USER    (3) Torsional Free Energy           =   +2.09 kcal/mol
DOCKED: USER    (4) Unbound System's Energy  [=(2)] =   -1.65 kcal/mol
DOCKED: USER    
DOCKED: USER    
DOCKED: USER    NEWDPF move ligand.pdbqt
DOCKED: USER    NEWDPF about 1.174000 0.164000 -0.352000
DOCKED: USER    NEWDPF tran0 25.702482 -15.687322 0.509593
DOCKED: USER    NEWDPF quaternion0 -0.340509 0.910779 -0.072837 -0.221877
DOCKED: USER    NEWDPF axisangle0 -0.349213 0.934061 -0.074699 -154.361410
DOCKED: USER    NEWDPF quat0 -0.349213 0.934061 -0.074699 -154.361410
DOCKED: USER    NEWDPF dihe0 4.74 179.81 -31.44 166.44 -4.45 -66.04 -29.56 
DOCKED: USER  keepresnum = 1 
DOCKED: USER  
DOCKED: REMARK  Name = 
DOCKED: REMARK  11 active torsions:
DOCKED: REMARK  status: ('A' for Active; 'I' for Inactive)
DOCKED: REMARK    1  A    between atoms: C_1  and  N_2
DOCKED: REMARK    2  A    between atoms: N_2  and  C_3
DOCKED: REMARK    3  A    between atoms: N_2  and  C_22
DOCKED: REMARK    4  A    between atoms: C_6  and  C_9
DOCKED: REMARK    5  A    between atoms: C_9  and  C_10
DOCKED: REMARK    6  A    between atoms: C_10  and  C_11
DOCKED: REMARK    7  A    between atoms: C_10  and  C_20
DOCKED: REMARK    8  A    between atoms: C_12  and  C_13
DOCKED: REMARK    9  A    between atoms: C_12  and  C_19
DOCKED: REMARK   10  A    between atoms: C_14  and  C_15
DOCKED: REMARK   11  A    between atoms: N_16  and  O_17
DOCKED: REMARK                            x       y       z     vdW  Elec       q    Type
DOCKED: REMARK                         _______ _______ _______ _____ _____    ______ ____
DOCKED: USER                              x       y       z     vdW  Elec       q    Type
DOCKED: USER                           _______ _______ _______ _____ _____    ______ ____
DOCKED: ROOT
DOCKED: ATOM      1  C   UNL     1      27.031 -15.904  -0.868 -0.39 -0.00    +0.000 C 
DOCKED: ATOM      2  C   UNL     1      27.872 -16.068  -2.138 -0.31 -0.00    +0.000 C 
DOCKED: ENDROOT
DOCKED: BRANCH   1   3
DOCKED: ATOM      3  C   UNL     1      25.698 -16.606  -1.023 -0.56 -0.00    +0.000 C 
DOCKED: ATOM      4  C   UNL     1      25.453 -17.873  -0.627 -0.69 -0.00    +0.000 C 
DOCKED: ATOM      5  C   UNL     1      26.525 -18.731   0.008 -0.48 -0.00    +0.000 C 
DOCKED: BRANCH   4   6
DOCKED: ATOM      6  C   UNL     1      24.104 -18.435  -0.896 -0.79 -0.00    +0.000 C 
DOCKED: ATOM      7  C   UNL     1      22.978 -17.711  -0.813 -0.78 -0.00    +0.000 C 
DOCKED: BRANCH   7   8
DOCKED: ATOM      8  C   UNL     1      21.633 -18.261  -1.078 -0.72 -0.00    +0.000 C 
DOCKED: ATOM      9  N   UNL     1      21.436 -19.532  -1.715 -0.57 -0.00    +0.000 N 
DOCKED: ATOM     10  O   UNL     1      20.628 -17.597  -0.710 -2.16 +0.00    +0.000 OA
DOCKED: ATOM     11  H   UNL     1      22.211 -20.105  -1.916 -0.49 -0.00    +0.000 HD
DOCKED: BRANCH   9  12
DOCKED: ATOM     12  O   UNL     1      20.188 -19.944  -2.039 -1.83 -0.00    +0.000 OA
DOCKED: ATOM     13  H   UNL     1      19.552 -19.238  -1.844 -0.28 -0.00    +0.000 HD
DOCKED: ENDBRANCH   9  12
DOCKED: ENDBRANCH   7   8
DOCKED: ENDBRANCH   4   6
DOCKED: ENDBRANCH   1   3
DOCKED: BRANCH   1  14
DOCKED: ATOM     14  C   UNL     1      26.825 -14.432  -0.583 -0.31 -0.00    +0.000 C 
DOCKED: ATOM     15  O   UNL     1      26.436 -13.680  -1.520 -0.26 -0.00    +0.000 OA
DOCKED: BRANCH  14  19
DOCKED: ATOM     16  C   UNL     1      27.549 -12.670   3.300 -0.29 -0.00    +0.000 A 
DOCKED: ATOM     17  C   UNL     1      26.751 -12.019   2.338 -0.28 +0.00    +0.000 A 
DOCKED: ATOM     18  C   UNL     1      26.525 -12.594   1.085 -0.30 -0.00    +0.000 A 
DOCKED: ATOM     19  C   UNL     1      27.084 -13.839   0.755 -0.26 -0.00    +0.000 A 
DOCKED: ATOM     20  C   UNL     1      27.890 -14.489   1.706 -0.24 -0.00    +0.000 A 
DOCKED: ATOM     21  C   UNL     1      28.117 -13.914   2.960 -0.32 -0.00    +0.000 A 
DOCKED: BRANCH  16  23
DOCKED: ATOM     22  C   UNL     1      27.598 -10.633   4.810 -0.35 +0.00    +0.000 C 
DOCKED: ATOM     23  N   UNL     1      27.783 -12.075   4.603 -0.36 +0.00    +0.000 N 
DOCKED: ATOM     24  C   UNL     1      28.207 -12.905   5.737 -0.47 -0.00    +0.000 C 
DOCKED: ENDBRANCH  16  23
DOCKED: ENDBRANCH  14  19
DOCKED: ENDBRANCH   1  14
DOCKED: TORSDOF 7
DOCKED: TER
DOCKED: ENDMDL
________________________________________________________________________________


	BEGINNING GENETIC ALGORITHM DOCKING 87 of 100
Run: 87 Seed: 2030381105 1537468903 [ Run 87 of 100 GA/GALS ]
Beginning LAMARCKIAN GENETIC ALGORITHM (LGA), with a maximum of 2500000 energy evaluations.

Final-Value: -13.436


	FINAL GENETIC ALGORITHM DOCKED STATE
	_______________________________________________


Detailed state:  trans 24.901 -14.556 -2.709 quatxyzw 0.478407 -0.590443 0.645543 0.076017 center 1.174 0.164 -0.352 ntor 7 -170.0863 6.5824 -168.9199 -131.3099 -139.4729 -104.2295 60.0140
State:	 24.901 -14.556  -2.709   0.480 -0.592  0.647 171.281   -170.09    6.58 -168.92 -131.31 -139.47 -104.23   60.01

DOCKED: MODEL       87
DOCKED: USER    Run = 87
DOCKED: USER    DPF = ligand_dock.biased.dpf
DOCKED: USER  
DOCKED: USER    Estimated Free Energy of Binding    =  -10.63 kcal/mol  [=(1)+(2)+(3)-(4)]
DOCKED: USER    Estimated Inhibition Constant, Ki   =   16.06 nM (nanomolar)  [Temperature = 298.15 K]
DOCKED: USER    
DOCKED: USER    (1) Final Intermolecular Energy     =  -12.72 kcal/mol
DOCKED: USER        vdW + Hbond + desolv Energy     =  -12.72 kcal/mol
DOCKED: USER        Electrostatic Energy            =   +0.00 kcal/mol
DOCKED: USER    (2) Final Total Internal Energy     =   -0.71 kcal/mol
DOCKED: USER    (3) Torsional Free Energy           =   +2.09 kcal/mol
DOCKED: USER    (4) Unbound System's Energy  [=(2)] =   -0.71 kcal/mol
DOCKED: USER    
DOCKED: USER    
DOCKED: USER    NEWDPF move ligand.pdbqt
DOCKED: USER    NEWDPF about 1.174000 0.164000 -0.352000
DOCKED: USER    NEWDPF tran0 24.901147 -14.556097 -2.709276
DOCKED: USER    NEWDPF quaternion0 0.478407 -0.590443 0.645543 0.076017
DOCKED: USER    NEWDPF axisangle0 0.479795 -0.592156 0.647417 171.280727
DOCKED: USER    NEWDPF quat0 0.479795 -0.592156 0.647417 171.280727
DOCKED: USER    NEWDPF dihe0 -170.09 6.58 -168.92 -131.31 -139.47 -104.23 60.01 
DOCKED: USER  keepresnum = 1 
DOCKED: USER  
DOCKED: REMARK  Name = 
DOCKED: REMARK  11 active torsions:
DOCKED: REMARK  status: ('A' for Active; 'I' for Inactive)
DOCKED: REMARK    1  A    between atoms: C_1  and  N_2
DOCKED: REMARK    2  A    between atoms: N_2  and  C_3
DOCKED: REMARK    3  A    between atoms: N_2  and  C_22
DOCKED: REMARK    4  A    between atoms: C_6  and  C_9
DOCKED: REMARK    5  A    between atoms: C_9  and  C_10
DOCKED: REMARK    6  A    between atoms: C_10  and  C_11
DOCKED: REMARK    7  A    between atoms: C_10  and  C_20
DOCKED: REMARK    8  A    between atoms: C_12  and  C_13
DOCKED: REMARK    9  A    between atoms: C_12  and  C_19
DOCKED: REMARK   10  A    between atoms: C_14  and  C_15
DOCKED: REMARK   11  A    between atoms: N_16  and  O_17
DOCKED: REMARK                            x       y       z     vdW  Elec       q    Type
DOCKED: REMARK                         _______ _______ _______ _____ _____    ______ ____
DOCKED: USER                              x       y       z     vdW  Elec       q    Type
DOCKED: USER                           _______ _______ _______ _____ _____    ______ ____
DOCKED: ROOT
DOCKED: ATOM      1  C   UNL     1      26.590 -15.482  -2.667 -0.43 -0.00    +0.000 C 
DOCKED: ATOM      2  C   UNL     1      27.782 -16.443  -2.688 -0.23 -0.00    +0.000 C 
DOCKED: ENDROOT
DOCKED: BRANCH   1   3
DOCKED: ATOM      3  C   UNL     1      25.366 -16.169  -2.097 -0.57 -0.00    +0.000 C 
DOCKED: ATOM      4  C   UNL     1      25.323 -16.775  -0.892 -0.59 -0.00    +0.000 C 
DOCKED: ATOM      5  C   UNL     1      26.534 -16.836   0.012 -0.40 -0.00    +0.000 C 
DOCKED: BRANCH   4   6
DOCKED: ATOM      6  C   UNL     1      24.059 -17.449  -0.499 -0.69 -0.00    +0.000 C 
DOCKED: ATOM      7  C   UNL     1      23.170 -17.917  -1.387 -0.69 -0.00    +0.000 C 
DOCKED: BRANCH   7   8
DOCKED: ATOM      8  C   UNL     1      21.911 -18.588  -1.005 -0.82 -0.00    +0.000 C 
DOCKED: ATOM      9  N   UNL     1      21.290 -19.582  -1.832 -0.55 -0.00    +0.000 N 
DOCKED: ATOM     10  O   UNL     1      21.381 -18.289   0.098 -1.31 -0.00    +0.000 OA
DOCKED: ATOM     11  H   UNL     1      21.745 -19.898  -2.646 -0.51 -0.00    +0.000 HD
DOCKED: BRANCH   9  12
DOCKED: ATOM     12  O   UNL     1      20.080 -20.088  -1.496 -1.62 -0.00    +0.000 OA
DOCKED: ATOM     13  H   UNL     1      19.878 -20.850  -2.063 -0.57 -0.00    +0.000 HD
DOCKED: ENDBRANCH   9  12
DOCKED: ENDBRANCH   7   8
DOCKED: ENDBRANCH   4   6
DOCKED: ENDBRANCH   1   3
DOCKED: BRANCH   1  14
DOCKED: ATOM     14  C   UNL     1      26.314 -14.985  -4.070 -0.54 -0.00    +0.000 C 
DOCKED: ATOM     15  O   UNL     1      25.116 -14.893  -4.458 -0.96 -0.00    +0.000 OA
DOCKED: BRANCH  14  19
DOCKED: ATOM     16  C   UNL     1      29.505 -13.967  -6.806 -0.26 -0.00    +0.000 A 
DOCKED: ATOM     17  C   UNL     1      29.343 -15.282  -6.327 -0.34 -0.00    +0.000 A 
DOCKED: ATOM     18  C   UNL     1      28.311 -15.601  -5.441 -0.30 -0.00    +0.000 A 
DOCKED: ATOM     19  C   UNL     1      27.406 -14.619  -5.010 -0.38 -0.00    +0.000 A 
DOCKED: ATOM     20  C   UNL     1      27.568 -13.303  -5.476 -0.23 -0.00    +0.000 A 
DOCKED: ATOM     21  C   UNL     1      28.599 -12.982  -6.362 -0.22 -0.00    +0.000 A 
DOCKED: BRANCH  16  23
DOCKED: ATOM     22  C   UNL     1      30.564 -12.359  -8.457 -0.15 -0.00    +0.000 C 
DOCKED: ATOM     23  N   UNL     1      30.575 -13.634  -7.729 -0.19 -0.00    +0.000 N 
DOCKED: ATOM     24  C   UNL     1      31.687 -14.566  -7.949 -0.18 -0.00    +0.000 C 
DOCKED: ENDBRANCH  16  23
DOCKED: ENDBRANCH  14  19
DOCKED: ENDBRANCH   1  14
DOCKED: TORSDOF 7
DOCKED: TER
DOCKED: ENDMDL
________________________________________________________________________________


	BEGINNING GENETIC ALGORITHM DOCKING 88 of 100
Run: 88 Seed: 1386347715 513502889 [ Run 88 of 100 GA/GALS ]
Beginning LAMARCKIAN GENETIC ALGORITHM (LGA), with a maximum of 2500000 energy evaluations.

Final-Value: -14.483


	FINAL GENETIC ALGORITHM DOCKED STATE
	_______________________________________________


Detailed state:  trans 25.997 -15.352 -2.642 quatxyzw 0.185986 -0.174069 0.965794 0.048485 center 1.174 0.164 -0.352 ntor 7 2.9984 -119.8212 146.7903 -8.5203 -93.2472 149.0776 -37.0744
State:	 25.997 -15.352  -2.642   0.186 -0.174  0.967 174.442      3.00 -119.82  146.79   -8.52  -93.25  149.08  -37.07

DOCKED: MODEL       88
DOCKED: USER    Run = 88
DOCKED: USER    DPF = ligand_dock.biased.dpf
DOCKED: USER  
DOCKED: USER    Estimated Free Energy of Binding    =  -11.02 kcal/mol  [=(1)+(2)+(3)-(4)]
DOCKED: USER    Estimated Inhibition Constant, Ki   =    8.36 nM (nanomolar)  [Temperature = 298.15 K]
DOCKED: USER    
DOCKED: USER    (1) Final Intermolecular Energy     =  -13.11 kcal/mol
DOCKED: USER        vdW + Hbond + desolv Energy     =  -13.11 kcal/mol
DOCKED: USER        Electrostatic Energy            =   +0.00 kcal/mol
DOCKED: USER    (2) Final Total Internal Energy     =   -1.37 kcal/mol
DOCKED: USER    (3) Torsional Free Energy           =   +2.09 kcal/mol
DOCKED: USER    (4) Unbound System's Energy  [=(2)] =   -1.37 kcal/mol
DOCKED: USER    
DOCKED: USER    
DOCKED: USER    NEWDPF move ligand.pdbqt
DOCKED: USER    NEWDPF about 1.174000 0.164000 -0.352000
DOCKED: USER    NEWDPF tran0 25.997344 -15.352275 -2.642123
DOCKED: USER    NEWDPF quaternion0 0.185986 -0.174069 0.965794 0.048485
DOCKED: USER    NEWDPF axisangle0 0.186205 -0.174274 0.966931 174.441874
DOCKED: USER    NEWDPF quat0 0.186205 -0.174274 0.966931 174.441874
DOCKED: USER    NEWDPF dihe0 3.00 -119.82 146.79 -8.52 -93.25 149.08 -37.07 
DOCKED: USER  keepresnum = 1 
DOCKED: USER  
DOCKED: REMARK  Name = 
DOCKED: REMARK  11 active torsions:
DOCKED: REMARK  status: ('A' for Active; 'I' for Inactive)
DOCKED: REMARK    1  A    between atoms: C_1  and  N_2
DOCKED: REMARK    2  A    between atoms: N_2  and  C_3
DOCKED: REMARK    3  A    between atoms: N_2  and  C_22
DOCKED: REMARK    4  A    between atoms: C_6  and  C_9
DOCKED: REMARK    5  A    between atoms: C_9  and  C_10
DOCKED: REMARK    6  A    between atoms: C_10  and  C_11
DOCKED: REMARK    7  A    between atoms: C_10  and  C_20
DOCKED: REMARK    8  A    between atoms: C_12  and  C_13
DOCKED: REMARK    9  A    between atoms: C_12  and  C_19
DOCKED: REMARK   10  A    between atoms: C_14  and  C_15
DOCKED: REMARK   11  A    between atoms: N_16  and  O_17
DOCKED: REMARK                            x       y       z     vdW  Elec       q    Type
DOCKED: REMARK                         _______ _______ _______ _____ _____    ______ ____
DOCKED: USER                              x       y       z     vdW  Elec       q    Type
DOCKED: USER                           _______ _______ _______ _____ _____    ______ ____
DOCKED: ROOT
DOCKED: ATOM      1  C   UNL     1      26.909 -15.374  -0.946 -0.35 -0.00    +0.000 C 
DOCKED: ATOM      2  C   UNL     1      27.475 -15.612   0.458 -0.29 -0.00    +0.000 C 
DOCKED: ENDROOT
DOCKED: BRANCH   1   3
DOCKED: ATOM      3  C   UNL     1      25.435 -15.721  -0.987 -0.44 -0.00    +0.000 C 
DOCKED: ATOM      4  C   UNL     1      24.914 -16.890  -0.557 -0.51 -0.00    +0.000 C 
DOCKED: ATOM      5  C   UNL     1      25.785 -17.992   0.003 -0.64 -0.00    +0.000 C 
DOCKED: BRANCH   4   6
DOCKED: ATOM      6  C   UNL     1      23.451 -17.096  -0.713 -0.70 -0.00    +0.000 C 
DOCKED: ATOM      7  C   UNL     1      22.899 -18.299  -0.930 -0.83 -0.00    +0.000 C 
DOCKED: BRANCH   7   8
DOCKED: ATOM      8  C   UNL     1      21.446 -18.514  -1.085 -0.76 -0.00    +0.000 C 
DOCKED: ATOM      9  N   UNL     1      20.903 -19.727  -1.624 -0.74 -0.00    +0.000 N 
DOCKED: ATOM     10  O   UNL     1      20.660 -17.604  -0.708 -2.16 +0.00    +0.000 OA
DOCKED: ATOM     11  H   UNL     1      21.499 -20.483  -1.829 -0.40 -0.00    +0.000 HD
DOCKED: BRANCH   9  12
DOCKED: ATOM     12  O   UNL     1      19.573 -19.835  -1.853 -1.64 -0.00    +0.000 OA
DOCKED: ATOM     13  H   UNL     1      19.139 -18.992  -1.645 -0.56 -0.00    +0.000 HD
DOCKED: ENDBRANCH   9  12
DOCKED: ENDBRANCH   7   8
DOCKED: ENDBRANCH   4   6
DOCKED: ENDBRANCH   1   3
DOCKED: BRANCH   1  14
DOCKED: ATOM     14  C   UNL     1      27.678 -16.206  -1.950 -0.34 -0.00    +0.000 C 
DOCKED: ATOM     15  O   UNL     1      27.991 -17.390  -1.644 -0.39 -0.00    +0.000 OA
DOCKED: BRANCH  14  19
DOCKED: ATOM     16  C   UNL     1      28.928 -14.646  -5.785 -0.30 -0.00    +0.000 A 
DOCKED: ATOM     17  C   UNL     1      29.862 -14.916  -4.765 -0.15 -0.00    +0.000 A 
DOCKED: ATOM     18  C   UNL     1      29.449 -15.417  -3.528 -0.16 -0.00    +0.000 A 
DOCKED: ATOM     19  C   UNL     1      28.091 -15.669  -3.273 -0.26 -0.00    +0.000 A 
DOCKED: ATOM     20  C   UNL     1      27.154 -15.392  -4.283 -0.38 -0.00    +0.000 A 
DOCKED: ATOM     21  C   UNL     1      27.565 -14.891  -5.520 -0.37 -0.00    +0.000 A 
DOCKED: BRANCH  16  23
DOCKED: ATOM     22  C   UNL     1      30.584 -14.625  -7.706 -0.16 -0.00    +0.000 C 
DOCKED: ATOM     23  N   UNL     1      29.356 -14.128  -7.072 -0.31 -0.00    +0.000 N 
DOCKED: ATOM     24  C   UNL     1      28.568 -13.100  -7.762 -0.26 -0.00    +0.000 C 
DOCKED: ENDBRANCH  16  23
DOCKED: ENDBRANCH  14  19
DOCKED: ENDBRANCH   1  14
DOCKED: TORSDOF 7
DOCKED: TER
DOCKED: ENDMDL
________________________________________________________________________________


	BEGINNING GENETIC ALGORITHM DOCKING 89 of 100
Run: 89 Seed: 1368833219 2048558440 [ Run 89 of 100 GA/GALS ]
Beginning LAMARCKIAN GENETIC ALGORITHM (LGA), with a maximum of 2500000 energy evaluations.

Final-Value: -13.612


	FINAL GENETIC ALGORITHM DOCKED STATE
	_______________________________________________


Detailed state:  trans 26.423 -16.832 0.379 quatxyzw 0.258688 -0.879294 -0.393967 0.068644 center 1.174 0.164 -0.352 ntor 7 6.4205 -57.5212 7.1052 -179.3457 92.5813 -17.8323 119.7182
State:	 26.423 -16.832   0.379   0.259 -0.881 -0.395 172.128      6.42  -57.52    7.11 -179.35   92.58  -17.83  119.72

DOCKED: MODEL       89
DOCKED: USER    Run = 89
DOCKED: USER    DPF = ligand_dock.biased.dpf
DOCKED: USER  
DOCKED: USER    Estimated Free Energy of Binding    =  -10.02 kcal/mol  [=(1)+(2)+(3)-(4)]
DOCKED: USER    Estimated Inhibition Constant, Ki   =   44.88 nM (nanomolar)  [Temperature = 298.15 K]
DOCKED: USER    
DOCKED: USER    (1) Final Intermolecular Energy     =  -12.11 kcal/mol
DOCKED: USER        vdW + Hbond + desolv Energy     =  -12.11 kcal/mol
DOCKED: USER        Electrostatic Energy            =   +0.00 kcal/mol
DOCKED: USER    (2) Final Total Internal Energy     =   -1.50 kcal/mol
DOCKED: USER    (3) Torsional Free Energy           =   +2.09 kcal/mol
DOCKED: USER    (4) Unbound System's Energy  [=(2)] =   -1.50 kcal/mol
DOCKED: USER    
DOCKED: USER    
DOCKED: USER    NEWDPF move ligand.pdbqt
DOCKED: USER    NEWDPF about 1.174000 0.164000 -0.352000
DOCKED: USER    NEWDPF tran0 26.423181 -16.831726 0.379186
DOCKED: USER    NEWDPF quaternion0 0.258688 -0.879294 -0.393967 0.068644
DOCKED: USER    NEWDPF axisangle0 0.259300 -0.881373 -0.394898 172.127841
DOCKED: USER    NEWDPF quat0 0.259300 -0.881373 -0.394898 172.127841
DOCKED: USER    NEWDPF dihe0 6.42 -57.52 7.11 -179.35 92.58 -17.83 119.72 
DOCKED: USER  keepresnum = 1 
DOCKED: USER  
DOCKED: REMARK  Name = 
DOCKED: REMARK  11 active torsions:
DOCKED: REMARK  status: ('A' for Active; 'I' for Inactive)
DOCKED: REMARK    1  A    between atoms: C_1  and  N_2
DOCKED: REMARK    2  A    between atoms: N_2  and  C_3
DOCKED: REMARK    3  A    between atoms: N_2  and  C_22
DOCKED: REMARK    4  A    between atoms: C_6  and  C_9
DOCKED: REMARK    5  A    between atoms: C_9  and  C_10
DOCKED: REMARK    6  A    between atoms: C_10  and  C_11
DOCKED: REMARK    7  A    between atoms: C_10  and  C_20
DOCKED: REMARK    8  A    between atoms: C_12  and  C_13
DOCKED: REMARK    9  A    between atoms: C_12  and  C_19
DOCKED: REMARK   10  A    between atoms: C_14  and  C_15
DOCKED: REMARK   11  A    between atoms: N_16  and  O_17
DOCKED: REMARK                            x       y       z     vdW  Elec       q    Type
DOCKED: REMARK                         _______ _______ _______ _____ _____    ______ ____
DOCKED: USER                              x       y       z     vdW  Elec       q    Type
DOCKED: USER                           _______ _______ _______ _____ _____    ______ ____
DOCKED: ROOT
DOCKED: ATOM      1  C   UNL     1      26.776 -15.705  -1.143 -0.39 -0.00    +0.000 C 
DOCKED: ATOM      2  C   UNL     1      26.788 -14.747  -2.338 -0.33 -0.00    +0.000 C 
DOCKED: ENDROOT
DOCKED: BRANCH   1   3
DOCKED: ATOM      3  C   UNL     1      25.461 -16.454  -1.078 -0.57 -0.00    +0.000 C 
DOCKED: ATOM      4  C   UNL     1      25.339 -17.753  -0.732 -0.69 -0.00    +0.000 C 
DOCKED: ATOM      5  C   UNL     1      26.543 -18.602  -0.386 -0.54 -0.00    +0.000 C 
DOCKED: BRANCH   4   6
DOCKED: ATOM      6  C   UNL     1      23.981 -18.356  -0.766 -0.80 -0.00    +0.000 C 
DOCKED: ATOM      7  C   UNL     1      22.856 -17.632  -0.681 -0.79 -0.00    +0.000 C 
DOCKED: BRANCH   7   8
DOCKED: ATOM      8  C   UNL     1      21.502 -18.222  -0.713 -0.83 -0.00    +0.000 C 
DOCKED: ATOM      9  N   UNL     1      21.246 -19.577  -0.317 -0.73 -0.00    +0.000 N 
DOCKED: ATOM     10  O   UNL     1      20.539 -17.498  -1.081 -2.10 -0.00    +0.000 OA
DOCKED: ATOM     11  H   UNL     1      21.971 -20.121   0.068 -0.52 -0.00    +0.000 HD
DOCKED: BRANCH   9  12
DOCKED: ATOM     12  O   UNL     1      20.011 -20.109  -0.469 -1.01 -0.00    +0.000 OA
DOCKED: ATOM     13  H   UNL     1      19.446 -19.484  -0.951 -0.12 -0.00    +0.000 HD
DOCKED: ENDBRANCH   9  12
DOCKED: ENDBRANCH   7   8
DOCKED: ENDBRANCH   4   6
DOCKED: ENDBRANCH   1   3
DOCKED: BRANCH   1  14
DOCKED: ATOM     14  C   UNL     1      27.006 -14.926   0.134 -0.32 -0.00    +0.000 C 
DOCKED: ATOM     15  O   UNL     1      27.374 -15.550   1.169 -0.30 -0.00    +0.000 OA
DOCKED: BRANCH  14  19
DOCKED: ATOM     16  C   UNL     1      26.430 -10.645   0.338 -0.22 +0.00    +0.000 A 
DOCKED: ATOM     17  C   UNL     1      27.423 -11.211  -0.486 -0.12 -0.00    +0.000 A 
DOCKED: ATOM     18  C   UNL     1      27.604 -12.596  -0.544 -0.13 -0.00    +0.000 A 
DOCKED: ATOM     19  C   UNL     1      26.796 -13.457   0.216 -0.26 -0.00    +0.000 A 
DOCKED: ATOM     20  C   UNL     1      25.812 -12.898   1.048 -0.28 -0.00    +0.000 A 
DOCKED: ATOM     21  C   UNL     1      25.630 -11.514   1.107 -0.32 +0.00    +0.000 A 
DOCKED: BRANCH  16  23
DOCKED: ATOM     22  C   UNL     1      25.134  -8.570  -0.329 -0.32 +0.00    +0.000 C 
DOCKED: ATOM     23  N   UNL     1      26.239  -9.207   0.397 -0.27 +0.00    +0.000 N 
DOCKED: ATOM     24  C   UNL     1      27.147  -8.365   1.186 -0.17 +0.00    +0.000 C 
DOCKED: ENDBRANCH  16  23
DOCKED: ENDBRANCH  14  19
DOCKED: ENDBRANCH   1  14
DOCKED: TORSDOF 7
DOCKED: TER
DOCKED: ENDMDL
________________________________________________________________________________


	BEGINNING GENETIC ALGORITHM DOCKING 90 of 100
Run: 90 Seed: 1707810119 361304128 [ Run 90 of 100 GA/GALS ]
Beginning LAMARCKIAN GENETIC ALGORITHM (LGA), with a maximum of 2500000 energy evaluations.

Final-Value: -15.577


	FINAL GENETIC ALGORITHM DOCKED STATE
	_______________________________________________


Detailed state:  trans 25.474 -15.699 -0.070 quatxyzw -0.304568 0.911449 -0.090067 -0.261510 center 1.174 0.164 -0.352 ntor 7 2.8927 -6.7122 15.1470 92.7819 180.0000 -43.8476 -26.8327
State:	 25.474 -15.699  -0.070  -0.316  0.944 -0.093 -149.681      2.89   -6.71   15.15   92.78  180.00  -43.85  -26.83

DOCKED: MODEL       90
DOCKED: USER    Run = 90
DOCKED: USER    DPF = ligand_dock.biased.dpf
DOCKED: USER  
DOCKED: USER    Estimated Free Energy of Binding    =  -11.82 kcal/mol  [=(1)+(2)+(3)-(4)]
DOCKED: USER    Estimated Inhibition Constant, Ki   =    2.18 nM (nanomolar)  [Temperature = 298.15 K]
DOCKED: USER    
DOCKED: USER    (1) Final Intermolecular Energy     =  -13.90 kcal/mol
DOCKED: USER        vdW + Hbond + desolv Energy     =  -13.90 kcal/mol
DOCKED: USER        Electrostatic Energy            =   +0.00 kcal/mol
DOCKED: USER    (2) Final Total Internal Energy     =   -1.67 kcal/mol
DOCKED: USER    (3) Torsional Free Energy           =   +2.09 kcal/mol
DOCKED: USER    (4) Unbound System's Energy  [=(2)] =   -1.67 kcal/mol
DOCKED: USER    
DOCKED: USER    
DOCKED: USER    NEWDPF move ligand.pdbqt
DOCKED: USER    NEWDPF about 1.174000 0.164000 -0.352000
DOCKED: USER    NEWDPF tran0 25.474403 -15.698781 -0.069869
DOCKED: USER    NEWDPF quaternion0 -0.304568 0.911449 -0.090067 -0.261510
DOCKED: USER    NEWDPF axisangle0 -0.315549 0.944310 -0.093315 -149.680609
DOCKED: USER    NEWDPF quat0 -0.315549 0.944310 -0.093315 -149.680609
DOCKED: USER    NEWDPF dihe0 2.89 -6.71 15.15 92.78 180.00 -43.85 -26.83 
DOCKED: USER  keepresnum = 1 
DOCKED: USER  
DOCKED: REMARK  Name = 
DOCKED: REMARK  11 active torsions:
DOCKED: REMARK  status: ('A' for Active; 'I' for Inactive)
DOCKED: REMARK    1  A    between atoms: C_1  and  N_2
DOCKED: REMARK    2  A    between atoms: N_2  and  C_3
DOCKED: REMARK    3  A    between atoms: N_2  and  C_22
DOCKED: REMARK    4  A    between atoms: C_6  and  C_9
DOCKED: REMARK    5  A    between atoms: C_9  and  C_10
DOCKED: REMARK    6  A    between atoms: C_10  and  C_11
DOCKED: REMARK    7  A    between atoms: C_10  and  C_20
DOCKED: REMARK    8  A    between atoms: C_12  and  C_13
DOCKED: REMARK    9  A    between atoms: C_12  and  C_19
DOCKED: REMARK   10  A    between atoms: C_14  and  C_15
DOCKED: REMARK   11  A    between atoms: N_16  and  O_17
DOCKED: REMARK                            x       y       z     vdW  Elec       q    Type
DOCKED: REMARK                         _______ _______ _______ _____ _____    ______ ____
DOCKED: USER                              x       y       z     vdW  Elec       q    Type
DOCKED: USER                           _______ _______ _______ _____ _____    ______ ____
DOCKED: ROOT
DOCKED: ATOM      1  C   UNL     1      26.903 -15.993  -1.328 -0.41 -0.00    +0.000 C 
DOCKED: ATOM      2  C   UNL     1      27.841 -16.204  -2.520 -0.31 -0.00    +0.000 C 
DOCKED: ENDROOT
DOCKED: BRANCH   1   3
DOCKED: ATOM      3  C   UNL     1      25.544 -16.602  -1.610 -0.58 -0.00    +0.000 C 
DOCKED: ATOM      4  C   UNL     1      25.015 -17.637  -0.925 -0.70 -0.00    +0.000 C 
DOCKED: ATOM      5  C   UNL     1      25.762 -18.309   0.206 -0.58 -0.00    +0.000 C 
DOCKED: BRANCH   4   6
DOCKED: ATOM      6  C   UNL     1      23.690 -18.151  -1.358 -0.78 -0.00    +0.000 C 
DOCKED: ATOM      7  C   UNL     1      22.573 -18.001  -0.632 -0.83 -0.00    +0.000 C 
DOCKED: BRANCH   7   8
DOCKED: ATOM      8  C   UNL     1      21.251 -18.509  -1.055 -0.77 -0.00    +0.000 C 
DOCKED: ATOM      9  N   UNL     1      21.101 -19.715  -1.818 -0.62 -0.00    +0.000 N 
DOCKED: ATOM     10  O   UNL     1      20.223 -17.869  -0.711 -2.18 -0.00    +0.000 OA
DOCKED: ATOM     11  H   UNL     1      21.887 -20.277  -2.007 -0.48 -0.00    +0.000 HD
DOCKED: BRANCH   9  12
DOCKED: ATOM     12  O   UNL     1      19.882 -20.081  -2.279 -1.77 -0.00    +0.000 OA
DOCKED: ATOM     13  H   UNL     1      19.231 -19.401  -2.048 -0.46 -0.00    +0.000 HD
DOCKED: ENDBRANCH   9  12
DOCKED: ENDBRANCH   7   8
DOCKED: ENDBRANCH   4   6
DOCKED: ENDBRANCH   1   3
DOCKED: BRANCH   1  14
DOCKED: ATOM     14  C   UNL     1      26.772 -14.513  -1.040 -0.31 -0.00    +0.000 C 
DOCKED: ATOM     15  O   UNL     1      26.468 -13.735  -1.988 -0.28 -0.00    +0.000 OA
DOCKED: BRANCH  14  19
DOCKED: ATOM     16  C   UNL     1      27.486 -12.894   2.906 -0.30 -0.00    +0.000 A 
DOCKED: ATOM     17  C   UNL     1      28.044 -14.125   2.508 -0.30 -0.00    +0.000 A 
DOCKED: ATOM     18  C   UNL     1      27.806 -14.643   1.232 -0.24 -0.00    +0.000 A 
DOCKED: ATOM     19  C   UNL     1      27.008 -13.944   0.312 -0.26 -0.00    +0.000 A 
DOCKED: ATOM     20  C   UNL     1      26.439 -12.720   0.707 -0.29 -0.00    +0.000 A 
DOCKED: ATOM     21  C   UNL     1      26.677 -12.202   1.982 -0.30 +0.00    +0.000 A 
DOCKED: BRANCH  16  23
DOCKED: ATOM     22  C   UNL     1      27.695 -10.906   4.467 -0.35 +0.00    +0.000 C 
DOCKED: ATOM     23  N   UNL     1      27.735 -12.355   4.230 -0.34 +0.00    +0.000 N 
DOCKED: ATOM     24  C   UNL     1      28.029 -13.248   5.357 -0.49 -0.00    +0.000 C 
DOCKED: ENDBRANCH  16  23
DOCKED: ENDBRANCH  14  19
DOCKED: ENDBRANCH   1  14
DOCKED: TORSDOF 7
DOCKED: TER
DOCKED: ENDMDL
________________________________________________________________________________


	BEGINNING GENETIC ALGORITHM DOCKING 91 of 100
Run: 91 Seed: 1083787712 1271164917 [ Run 91 of 100 GA/GALS ]
Beginning LAMARCKIAN GENETIC ALGORITHM (LGA), with a maximum of 2500000 energy evaluations.

Final-Value: -14.617


	FINAL GENETIC ALGORITHM DOCKED STATE
	_______________________________________________


Detailed state:  trans 25.869 -15.841 -0.818 quatxyzw 0.333760 -0.933658 -0.086557 0.096930 center 1.174 0.164 -0.352 ntor 7 70.4596 -41.2414 52.2636 108.0659 20.6398 -26.2103 -50.5528
State:	 25.869 -15.841  -0.818   0.335 -0.938 -0.087 168.875     70.46  -41.24   52.26  108.07   20.64  -26.21  -50.55

DOCKED: MODEL       91
DOCKED: USER    Run = 91
DOCKED: USER    DPF = ligand_dock.biased.dpf
DOCKED: USER  
DOCKED: USER    Estimated Free Energy of Binding    =  -11.14 kcal/mol  [=(1)+(2)+(3)-(4)]
DOCKED: USER    Estimated Inhibition Constant, Ki   =    6.77 nM (nanomolar)  [Temperature = 298.15 K]
DOCKED: USER    
DOCKED: USER    (1) Final Intermolecular Energy     =  -13.23 kcal/mol
DOCKED: USER        vdW + Hbond + desolv Energy     =  -13.23 kcal/mol
DOCKED: USER        Electrostatic Energy            =   +0.00 kcal/mol
DOCKED: USER    (2) Final Total Internal Energy     =   -1.38 kcal/mol
DOCKED: USER    (3) Torsional Free Energy           =   +2.09 kcal/mol
DOCKED: USER    (4) Unbound System's Energy  [=(2)] =   -1.38 kcal/mol
DOCKED: USER    
DOCKED: USER    
DOCKED: USER    NEWDPF move ligand.pdbqt
DOCKED: USER    NEWDPF about 1.174000 0.164000 -0.352000
DOCKED: USER    NEWDPF tran0 25.869332 -15.840544 -0.817614
DOCKED: USER    NEWDPF quaternion0 0.333760 -0.933658 -0.086557 0.096930
DOCKED: USER    NEWDPF axisangle0 0.335339 -0.938075 -0.086966 168.875184
DOCKED: USER    NEWDPF quat0 0.335339 -0.938075 -0.086966 168.875184
DOCKED: USER    NEWDPF dihe0 70.46 -41.24 52.26 108.07 20.64 -26.21 -50.55 
DOCKED: USER  keepresnum = 1 
DOCKED: USER  
DOCKED: REMARK  Name = 
DOCKED: REMARK  11 active torsions:
DOCKED: REMARK  status: ('A' for Active; 'I' for Inactive)
DOCKED: REMARK    1  A    between atoms: C_1  and  N_2
DOCKED: REMARK    2  A    between atoms: N_2  and  C_3
DOCKED: REMARK    3  A    between atoms: N_2  and  C_22
DOCKED: REMARK    4  A    between atoms: C_6  and  C_9
DOCKED: REMARK    5  A    between atoms: C_9  and  C_10
DOCKED: REMARK    6  A    between atoms: C_10  and  C_11
DOCKED: REMARK    7  A    between atoms: C_10  and  C_20
DOCKED: REMARK    8  A    between atoms: C_12  and  C_13
DOCKED: REMARK    9  A    between atoms: C_12  and  C_19
DOCKED: REMARK   10  A    between atoms: C_14  and  C_15
DOCKED: REMARK   11  A    between atoms: N_16  and  O_17
DOCKED: REMARK                            x       y       z     vdW  Elec       q    Type
DOCKED: REMARK                         _______ _______ _______ _____ _____    ______ ____
DOCKED: USER                              x       y       z     vdW  Elec       q    Type
DOCKED: USER                           _______ _______ _______ _____ _____    ______ ____
DOCKED: ROOT
DOCKED: ATOM      1  C   UNL     1      26.646 -15.692  -2.574 -0.42 -0.00    +0.000 C 
DOCKED: ATOM      2  C   UNL     1      27.002 -15.544  -4.056 -0.42 -0.00    +0.000 C 
DOCKED: ENDROOT
DOCKED: BRANCH   1   3
DOCKED: ATOM      3  C   UNL     1      25.331 -16.428  -2.417 -0.56 -0.00    +0.000 C 
DOCKED: ATOM      4  C   UNL     1      25.126 -17.446  -1.556 -0.66 -0.00    +0.000 C 
DOCKED: ATOM      5  C   UNL     1      26.227 -17.967  -0.659 -0.61 -0.00    +0.000 C 
DOCKED: BRANCH   4   6
DOCKED: ATOM      6  C   UNL     1      23.790 -18.098  -1.558 -0.72 -0.00    +0.000 C 
DOCKED: ATOM      7  C   UNL     1      22.808 -17.758  -0.710 -0.80 -0.00    +0.000 C 
DOCKED: BRANCH   7   8
DOCKED: ATOM      8  C   UNL     1      21.477 -18.400  -0.705 -0.85 -0.00    +0.000 C 
DOCKED: ATOM      9  N   UNL     1      21.279 -19.751  -0.264 -0.69 -0.00    +0.000 N 
DOCKED: ATOM     10  O   UNL     1      20.482 -17.725  -1.081 -2.16 -0.00    +0.000 OA
DOCKED: ATOM     11  H   UNL     1      22.029 -20.255   0.127 -0.55 -0.00    +0.000 HD
DOCKED: BRANCH   9  12
DOCKED: ATOM     12  O   UNL     1      20.063 -20.334  -0.383 -0.92 -0.00    +0.000 OA
DOCKED: ATOM     13  H   UNL     1      19.876 -20.505  -1.319 -0.53 -0.00    +0.000 HD
DOCKED: ENDBRANCH   9  12
DOCKED: ENDBRANCH   7   8
DOCKED: ENDBRANCH   4   6
DOCKED: ENDBRANCH   1   3
DOCKED: BRANCH   1  14
DOCKED: ATOM     14  C   UNL     1      26.568 -14.324  -1.932 -0.31 -0.00    +0.000 C 
DOCKED: ATOM     15  O   UNL     1      26.257 -13.332  -2.650 -0.25 -0.00    +0.000 OA
DOCKED: BRANCH  14  19
DOCKED: ATOM     16  C   UNL     1      27.388 -13.659   2.262 -0.29 -0.00    +0.000 A 
DOCKED: ATOM     17  C   UNL     1      26.283 -13.057   1.628 -0.24 -0.00    +0.000 A 
DOCKED: ATOM     18  C   UNL     1      26.028 -13.275   0.272 -0.21 -0.00    +0.000 A 
DOCKED: ATOM     19  C   UNL     1      26.864 -14.105  -0.492 -0.25 -0.00    +0.000 A 
DOCKED: ATOM     20  C   UNL     1      27.974 -14.700   0.132 -0.22 -0.00    +0.000 A 
DOCKED: ATOM     21  C   UNL     1      28.231 -14.483   1.488 -0.22 -0.00    +0.000 A 
DOCKED: BRANCH  16  23
DOCKED: ATOM     22  C   UNL     1      27.644 -14.557   4.621 -0.60 -0.00    +0.000 C 
DOCKED: ATOM     23  N   UNL     1      27.654 -13.436   3.672 -0.40 -0.00    +0.000 N 
DOCKED: ATOM     24  C   UNL     1      27.939 -12.086   4.173 -0.34 +0.00    +0.000 C 
DOCKED: ENDBRANCH  16  23
DOCKED: ENDBRANCH  14  19
DOCKED: ENDBRANCH   1  14
DOCKED: TORSDOF 7
DOCKED: TER
DOCKED: ENDMDL
________________________________________________________________________________


	BEGINNING GENETIC ALGORITHM DOCKING 92 of 100
Run: 92 Seed: 1461733235 1916196834 [ Run 92 of 100 GA/GALS ]
Beginning LAMARCKIAN GENETIC ALGORITHM (LGA), with a maximum of 2500000 energy evaluations.

Final-Value: -14.125


	FINAL GENETIC ALGORITHM DOCKED STATE
	_______________________________________________


Detailed state:  trans 24.605 -14.863 -3.252 quatxyzw -0.432027 0.554035 -0.682431 -0.201708 center 1.174 0.164 -0.352 ntor 7 34.7774 -148.7581 34.8151 105.9306 -100.6440 -109.6336 -20.6950
State:	 24.605 -14.863  -3.252  -0.441  0.566 -0.697 -156.726     34.78 -148.76   34.82  105.93 -100.64 -109.63  -20.69

DOCKED: MODEL       92
DOCKED: USER    Run = 92
DOCKED: USER    DPF = ligand_dock.biased.dpf
DOCKED: USER  
DOCKED: USER    Estimated Free Energy of Binding    =  -10.93 kcal/mol  [=(1)+(2)+(3)-(4)]
DOCKED: USER    Estimated Inhibition Constant, Ki   =    9.67 nM (nanomolar)  [Temperature = 298.15 K]
DOCKED: USER    
DOCKED: USER    (1) Final Intermolecular Energy     =  -13.02 kcal/mol
DOCKED: USER        vdW + Hbond + desolv Energy     =  -13.02 kcal/mol
DOCKED: USER        Electrostatic Energy            =   +0.00 kcal/mol
DOCKED: USER    (2) Final Total Internal Energy     =   -1.10 kcal/mol
DOCKED: USER    (3) Torsional Free Energy           =   +2.09 kcal/mol
DOCKED: USER    (4) Unbound System's Energy  [=(2)] =   -1.10 kcal/mol
DOCKED: USER    
DOCKED: USER    
DOCKED: USER    NEWDPF move ligand.pdbqt
DOCKED: USER    NEWDPF about 1.174000 0.164000 -0.352000
DOCKED: USER    NEWDPF tran0 24.605117 -14.863039 -3.252404
DOCKED: USER    NEWDPF quaternion0 -0.432027 0.554035 -0.682431 -0.201708
DOCKED: USER    NEWDPF axisangle0 -0.441093 0.565662 -0.696752 -156.726331
DOCKED: USER    NEWDPF quat0 -0.441093 0.565662 -0.696752 -156.726331
DOCKED: USER    NEWDPF dihe0 34.78 -148.76 34.82 105.93 -100.64 -109.63 -20.69 
DOCKED: USER  keepresnum = 1 
DOCKED: USER  
DOCKED: REMARK  Name = 
DOCKED: REMARK  11 active torsions:
DOCKED: REMARK  status: ('A' for Active; 'I' for Inactive)
DOCKED: REMARK    1  A    between atoms: C_1  and  N_2
DOCKED: REMARK    2  A    between atoms: N_2  and  C_3
DOCKED: REMARK    3  A    between atoms: N_2  and  C_22
DOCKED: REMARK    4  A    between atoms: C_6  and  C_9
DOCKED: REMARK    5  A    between atoms: C_9  and  C_10
DOCKED: REMARK    6  A    between atoms: C_10  and  C_11
DOCKED: REMARK    7  A    between atoms: C_10  and  C_20
DOCKED: REMARK    8  A    between atoms: C_12  and  C_13
DOCKED: REMARK    9  A    between atoms: C_12  and  C_19
DOCKED: REMARK   10  A    between atoms: C_14  and  C_15
DOCKED: REMARK   11  A    between atoms: N_16  and  O_17
DOCKED: REMARK                            x       y       z     vdW  Elec       q    Type
DOCKED: REMARK                         _______ _______ _______ _____ _____    ______ ____
DOCKED: USER                              x       y       z     vdW  Elec       q    Type
DOCKED: USER                           _______ _______ _______ _____ _____    ______ ____
DOCKED: ROOT
DOCKED: ATOM      1  C   UNL     1      26.344 -15.561  -2.809 -0.47 -0.00    +0.000 C 
DOCKED: ATOM      2  C   UNL     1      27.628 -16.356  -2.551 -0.31 -0.00    +0.000 C 
DOCKED: ENDROOT
DOCKED: BRANCH   1   3
DOCKED: ATOM      3  C   UNL     1      25.127 -16.432  -2.576 -0.52 -0.00    +0.000 C 
DOCKED: ATOM      4  C   UNL     1      24.928 -17.184  -1.473 -0.66 -0.00    +0.000 C 
DOCKED: ATOM      5  C   UNL     1      25.940 -17.235  -0.349 -0.58 -0.00    +0.000 C 
DOCKED: BRANCH   4   6
DOCKED: ATOM      6  C   UNL     1      23.703 -18.024  -1.417 -0.76 -0.00    +0.000 C 
DOCKED: ATOM      7  C   UNL     1      22.583 -17.645  -0.786 -0.77 -0.00    +0.000 C 
DOCKED: BRANCH   7   8
DOCKED: ATOM      8  C   UNL     1      21.361 -18.474  -0.726 -0.85 -0.00    +0.000 C 
DOCKED: ATOM      9  N   UNL     1      21.379 -19.835  -0.275 -0.64 -0.00    +0.000 N 
DOCKED: ATOM     10  O   UNL     1      20.264 -17.952  -1.062 -2.16 -0.00    +0.000 OA
DOCKED: ATOM     11  H   UNL     1      22.209 -20.222   0.085 -0.55 -0.00    +0.000 HD
DOCKED: BRANCH   9  12
DOCKED: ATOM     12  O   UNL     1      20.256 -20.590  -0.344 -0.83 -0.00    +0.000 OA
DOCKED: ATOM     13  H   UNL     1      19.750 -20.346  -1.135 -0.39 -0.00    +0.000 HD
DOCKED: ENDBRANCH   9  12
DOCKED: ENDBRANCH   7   8
DOCKED: ENDBRANCH   4   6
DOCKED: ENDBRANCH   1   3
DOCKED: BRANCH   1  14
DOCKED: ATOM     14  C   UNL     1      26.353 -15.030  -4.226 -0.55 -0.00    +0.000 C 
DOCKED: ATOM     15  O   UNL     1      26.459 -15.849  -5.181 -1.06 +0.00    +0.000 OA
DOCKED: BRANCH  14  19
DOCKED: ATOM     16  C   UNL     1      26.132 -10.804  -5.119 -0.23 -0.00    +0.000 A 
DOCKED: ATOM     17  C   UNL     1      27.354 -11.502  -5.182 -0.15 -0.00    +0.000 A 
DOCKED: ATOM     18  C   UNL     1      27.417 -12.867  -4.888 -0.21 -0.00    +0.000 A 
DOCKED: ATOM     19  C   UNL     1      26.261 -13.578  -4.529 -0.32 -0.00    +0.000 A 
DOCKED: ATOM     20  C   UNL     1      25.040 -12.885  -4.455 -0.23 -0.00    +0.000 A 
DOCKED: ATOM     21  C   UNL     1      24.976 -11.520  -4.748 -0.32 -0.00    +0.000 A 
DOCKED: BRANCH  16  23
DOCKED: ATOM     22  C   UNL     1      27.211  -8.698  -6.032 -0.06 -0.00    +0.000 C 
DOCKED: ATOM     23  N   UNL     1      26.065  -9.387  -5.426 -0.14 -0.00    +0.000 N 
DOCKED: ATOM     24  C   UNL     1      24.848  -8.618  -5.137 -0.26 -0.00    +0.000 C 
DOCKED: ENDBRANCH  16  23
DOCKED: ENDBRANCH  14  19
DOCKED: ENDBRANCH   1  14
DOCKED: TORSDOF 7
DOCKED: TER
DOCKED: ENDMDL
________________________________________________________________________________


	BEGINNING GENETIC ALGORITHM DOCKING 93 of 100
Run: 93 Seed: 243556902 2063497300 [ Run 93 of 100 GA/GALS ]
Beginning LAMARCKIAN GENETIC ALGORITHM (LGA), with a maximum of 2500000 energy evaluations.

Final-Value: -13.906


	FINAL GENETIC ALGORITHM DOCKED STATE
	_______________________________________________


Detailed state:  trans 25.588 -15.487 -2.405 quatxyzw -0.283597 0.314186 -0.882816 -0.203706 center 1.174 0.164 -0.352 ntor 7 6.0597 -147.3300 -56.3952 -156.9858 -43.7502 162.1255 -38.0504
State:	 25.588 -15.487  -2.405  -0.290  0.321 -0.902 -156.493      6.06 -147.33  -56.40 -156.99  -43.75  162.13  -38.05

DOCKED: MODEL       93
DOCKED: USER    Run = 93
DOCKED: USER    DPF = ligand_dock.biased.dpf
DOCKED: USER  
DOCKED: USER    Estimated Free Energy of Binding    =  -10.65 kcal/mol  [=(1)+(2)+(3)-(4)]
DOCKED: USER    Estimated Inhibition Constant, Ki   =   15.49 nM (nanomolar)  [Temperature = 298.15 K]
DOCKED: USER    
DOCKED: USER    (1) Final Intermolecular Energy     =  -12.74 kcal/mol
DOCKED: USER        vdW + Hbond + desolv Energy     =  -12.74 kcal/mol
DOCKED: USER        Electrostatic Energy            =   +0.00 kcal/mol
DOCKED: USER    (2) Final Total Internal Energy     =   -1.16 kcal/mol
DOCKED: USER    (3) Torsional Free Energy           =   +2.09 kcal/mol
DOCKED: USER    (4) Unbound System's Energy  [=(2)] =   -1.16 kcal/mol
DOCKED: USER    
DOCKED: USER    
DOCKED: USER    NEWDPF move ligand.pdbqt
DOCKED: USER    NEWDPF about 1.174000 0.164000 -0.352000
DOCKED: USER    NEWDPF tran0 25.588104 -15.486985 -2.405012
DOCKED: USER    NEWDPF quaternion0 -0.283597 0.314186 -0.882816 -0.203706
DOCKED: USER    NEWDPF axisangle0 -0.289671 0.320915 -0.901723 -156.492507
DOCKED: USER    NEWDPF quat0 -0.289671 0.320915 -0.901723 -156.492507
DOCKED: USER    NEWDPF dihe0 6.06 -147.33 -56.40 -156.99 -43.75 162.13 -38.05 
DOCKED: USER  keepresnum = 1 
DOCKED: USER  
DOCKED: REMARK  Name = 
DOCKED: REMARK  11 active torsions:
DOCKED: REMARK  status: ('A' for Active; 'I' for Inactive)
DOCKED: REMARK    1  A    between atoms: C_1  and  N_2
DOCKED: REMARK    2  A    between atoms: N_2  and  C_3
DOCKED: REMARK    3  A    between atoms: N_2  and  C_22
DOCKED: REMARK    4  A    between atoms: C_6  and  C_9
DOCKED: REMARK    5  A    between atoms: C_9  and  C_10
DOCKED: REMARK    6  A    between atoms: C_10  and  C_11
DOCKED: REMARK    7  A    between atoms: C_10  and  C_20
DOCKED: REMARK    8  A    between atoms: C_12  and  C_13
DOCKED: REMARK    9  A    between atoms: C_12  and  C_19
DOCKED: REMARK   10  A    between atoms: C_14  and  C_15
DOCKED: REMARK   11  A    between atoms: N_16  and  O_17
DOCKED: REMARK                            x       y       z     vdW  Elec       q    Type
DOCKED: REMARK                         _______ _______ _______ _____ _____    ______ ____
DOCKED: USER                              x       y       z     vdW  Elec       q    Type
DOCKED: USER                           _______ _______ _______ _____ _____    ______ ____
DOCKED: ROOT
DOCKED: ATOM      1  C   UNL     1      26.832 -15.750  -0.959 -0.39 -0.00    +0.000 C 
DOCKED: ATOM      2  C   UNL     1      27.739 -16.224   0.182 -0.26 -0.00    +0.000 C 
DOCKED: ENDROOT
DOCKED: BRANCH   1   3
DOCKED: ATOM      3  C   UNL     1      25.521 -16.509  -0.941 -0.55 -0.00    +0.000 C 
DOCKED: ATOM      4  C   UNL     1      25.404 -17.822  -0.654 -0.69 -0.00    +0.000 C 
DOCKED: ATOM      5  C   UNL     1      26.609 -18.678  -0.332 -0.51 -0.00    +0.000 C 
DOCKED: BRANCH   4   6
DOCKED: ATOM      6  C   UNL     1      24.050 -18.431  -0.729 -0.80 -0.00    +0.000 C 
DOCKED: ATOM      7  C   UNL     1      22.951 -17.736  -1.058 -0.75 -0.00    +0.000 C 
DOCKED: BRANCH   7   8
DOCKED: ATOM      8  C   UNL     1      21.602 -18.333  -1.135 -0.62 -0.00    +0.000 C 
DOCKED: ATOM      9  N   UNL     1      21.375 -19.651  -1.652 -0.56 -0.00    +0.000 N 
DOCKED: ATOM     10  O   UNL     1      20.624 -17.664  -0.708 -2.20 +0.00    +0.000 OA
DOCKED: ATOM     11  H   UNL     1      22.139 -20.222  -1.895 -0.46 -0.00    +0.000 HD
DOCKED: BRANCH   9  12
DOCKED: ATOM     12  O   UNL     1      20.111 -20.113  -1.808 -1.75 -0.00    +0.000 OA
DOCKED: ATOM     13  H   UNL     1      19.481 -19.401  -1.617 -0.25 -0.00    +0.000 HD
DOCKED: ENDBRANCH   9  12
DOCKED: ENDBRANCH   7   8
DOCKED: ENDBRANCH   4   6
DOCKED: ENDBRANCH   1   3
DOCKED: BRANCH   1  14
DOCKED: ATOM     14  C   UNL     1      27.539 -15.944  -2.283 -0.33 -0.00    +0.000 C 
DOCKED: ATOM     15  O   UNL     1      28.215 -16.996  -2.463 -0.33 -0.00    +0.000 OA
DOCKED: BRANCH  14  19
DOCKED: ATOM     16  C   UNL     1      27.410 -13.016  -5.463 -0.22 -0.00    +0.000 A 
DOCKED: ATOM     17  C   UNL     1      28.428 -13.987  -5.404 -0.26 -0.00    +0.000 A 
DOCKED: ATOM     18  C   UNL     1      28.464 -14.928  -4.371 -0.25 -0.00    +0.000 A 
DOCKED: ATOM     19  C   UNL     1      27.481 -14.931  -3.369 -0.27 -0.00    +0.000 A 
DOCKED: ATOM     20  C   UNL     1      26.468 -13.957  -3.416 -0.33 -0.00    +0.000 A 
DOCKED: ATOM     21  C   UNL     1      26.431 -13.016  -4.448 -0.30 -0.00    +0.000 A 
DOCKED: BRANCH  16  23
DOCKED: ATOM     22  C   UNL     1      28.221 -12.198  -7.722 -0.24 -0.00    +0.000 C 
DOCKED: ATOM     23  N   UNL     1      27.370 -12.040  -6.536 -0.20 -0.00    +0.000 N 
DOCKED: ATOM     24  C   UNL     1      26.476 -10.878  -6.456 -0.21 -0.00    +0.000 C 
DOCKED: ENDBRANCH  16  23
DOCKED: ENDBRANCH  14  19
DOCKED: ENDBRANCH   1  14
DOCKED: TORSDOF 7
DOCKED: TER
DOCKED: ENDMDL
________________________________________________________________________________


	BEGINNING GENETIC ALGORITHM DOCKING 94 of 100
Run: 94 Seed: 1746892652 658562408 [ Run 94 of 100 GA/GALS ]
Beginning LAMARCKIAN GENETIC ALGORITHM (LGA), with a maximum of 2500000 energy evaluations.

Final-Value: -14.564


	FINAL GENETIC ALGORITHM DOCKED STATE
	_______________________________________________


Detailed state:  trans 25.873 -15.848 -0.291 quatxyzw -0.329092 0.941275 0.072905 0.019621 center 1.174 0.164 -0.352 ntor 7 52.9114 136.2435 -56.3044 -148.9139 -163.5262 -24.9502 -63.4337
State:	 25.873 -15.848  -0.291  -0.329  0.941  0.073 177.751     52.91  136.24  -56.30 -148.91 -163.53  -24.95  -63.43

DOCKED: MODEL       94
DOCKED: USER    Run = 94
DOCKED: USER    DPF = ligand_dock.biased.dpf
DOCKED: USER  
DOCKED: USER    Estimated Free Energy of Binding    =  -10.96 kcal/mol  [=(1)+(2)+(3)-(4)]
DOCKED: USER    Estimated Inhibition Constant, Ki   =    9.23 nM (nanomolar)  [Temperature = 298.15 K]
DOCKED: USER    
DOCKED: USER    (1) Final Intermolecular Energy     =  -13.05 kcal/mol
DOCKED: USER        vdW + Hbond + desolv Energy     =  -13.05 kcal/mol
DOCKED: USER        Electrostatic Energy            =   +0.00 kcal/mol
DOCKED: USER    (2) Final Total Internal Energy     =   -1.51 kcal/mol
DOCKED: USER    (3) Torsional Free Energy           =   +2.09 kcal/mol
DOCKED: USER    (4) Unbound System's Energy  [=(2)] =   -1.51 kcal/mol
DOCKED: USER    
DOCKED: USER    
DOCKED: USER    NEWDPF move ligand.pdbqt
DOCKED: USER    NEWDPF about 1.174000 0.164000 -0.352000
DOCKED: USER    NEWDPF tran0 25.873024 -15.848195 -0.291226
DOCKED: USER    NEWDPF quaternion0 -0.329092 0.941275 0.072905 0.019621
DOCKED: USER    NEWDPF axisangle0 -0.329156 0.941456 0.072919 177.751476
DOCKED: USER    NEWDPF quat0 -0.329156 0.941456 0.072919 177.751476
DOCKED: USER    NEWDPF dihe0 52.91 136.24 -56.30 -148.91 -163.53 -24.95 -63.43 
DOCKED: USER  keepresnum = 1 
DOCKED: USER  
DOCKED: REMARK  Name = 
DOCKED: REMARK  11 active torsions:
DOCKED: REMARK  status: ('A' for Active; 'I' for Inactive)
DOCKED: REMARK    1  A    between atoms: C_1  and  N_2
DOCKED: REMARK    2  A    between atoms: N_2  and  C_3
DOCKED: REMARK    3  A    between atoms: N_2  and  C_22
DOCKED: REMARK    4  A    between atoms: C_6  and  C_9
DOCKED: REMARK    5  A    between atoms: C_9  and  C_10
DOCKED: REMARK    6  A    between atoms: C_10  and  C_11
DOCKED: REMARK    7  A    between atoms: C_10  and  C_20
DOCKED: REMARK    8  A    between atoms: C_12  and  C_13
DOCKED: REMARK    9  A    between atoms: C_12  and  C_19
DOCKED: REMARK   10  A    between atoms: C_14  and  C_15
DOCKED: REMARK   11  A    between atoms: N_16  and  O_17
DOCKED: REMARK                            x       y       z     vdW  Elec       q    Type
DOCKED: REMARK                         _______ _______ _______ _____ _____    ______ ____
DOCKED: USER                              x       y       z     vdW  Elec       q    Type
DOCKED: USER                           _______ _______ _______ _____ _____    ______ ____
DOCKED: ROOT
DOCKED: ATOM      1  C   UNL     1      26.263 -15.887  -2.177 -0.47 -0.00    +0.000 C 
DOCKED: ATOM      2  C   UNL     1      26.299 -15.896  -3.708 -0.35 -0.00    +0.000 C 
DOCKED: ENDROOT
DOCKED: BRANCH   1   3
DOCKED: ATOM      3  C   UNL     1      25.021 -16.593  -1.673 -0.61 -0.00    +0.000 C 
DOCKED: ATOM      4  C   UNL     1      25.011 -17.498  -0.672 -0.69 -0.00    +0.000 C 
DOCKED: ATOM      5  C   UNL     1      26.279 -17.909   0.043 -0.62 -0.00    +0.000 C 
DOCKED: BRANCH   4   6
DOCKED: ATOM      6  C   UNL     1      23.716 -18.140  -0.329 -0.79 -0.00    +0.000 C 
DOCKED: ATOM      7  C   UNL     1      22.601 -17.976  -1.057 -0.76 -0.00    +0.000 C 
DOCKED: BRANCH   7   8
DOCKED: ATOM      8  C   UNL     1      21.309 -18.610  -0.723 -0.86 -0.00    +0.000 C 
DOCKED: ATOM      9  N   UNL     1      21.221 -19.945  -0.206 -0.61 -0.00    +0.000 N 
DOCKED: ATOM     10  O   UNL     1      20.253 -17.941  -0.880 -2.18 -0.00    +0.000 OA
DOCKED: ATOM     11  H   UNL     1      22.042 -20.441   0.016 -0.55 -0.00    +0.000 HD
DOCKED: BRANCH   9  12
DOCKED: ATOM     12  O   UNL     1      20.011 -20.525  -0.021 -0.83 -0.00    +0.000 OA
DOCKED: ATOM     13  H   UNL     1      19.498 -20.473  -0.843 -0.42 -0.00    +0.000 HD
DOCKED: ENDBRANCH   9  12
DOCKED: ENDBRANCH   7   8
DOCKED: ENDBRANCH   4   6
DOCKED: ENDBRANCH   1   3
DOCKED: BRANCH   1  14
DOCKED: ATOM     14  C   UNL     1      26.301 -14.460  -1.677 -0.33 -0.00    +0.000 C 
DOCKED: ATOM     15  O   UNL     1      26.066 -13.524  -2.492 -0.20 -0.00    +0.000 OA
DOCKED: BRANCH  14  19
DOCKED: ATOM     16  C   UNL     1      27.275 -13.510   2.429 -0.30 -0.00    +0.000 A 
DOCKED: ATOM     17  C   UNL     1      27.952 -14.532   1.734 -0.21 -0.00    +0.000 A 
DOCKED: ATOM     18  C   UNL     1      27.628 -14.834   0.408 -0.25 -0.00    +0.000 A 
DOCKED: ATOM     19  C   UNL     1      26.624 -14.122  -0.266 -0.27 -0.00    +0.000 A 
DOCKED: ATOM     20  C   UNL     1      25.938 -13.108   0.425 -0.23 -0.00    +0.000 A 
DOCKED: ATOM     21  C   UNL     1      26.260 -12.805   1.750 -0.27 -0.00    +0.000 A 
DOCKED: BRANCH  16  23
DOCKED: ATOM     22  C   UNL     1      27.398 -14.179   4.872 -0.53 -0.00    +0.000 C 
DOCKED: ATOM     23  N   UNL     1      27.611 -13.193   3.804 -0.39 -0.00    +0.000 N 
DOCKED: ATOM     24  C   UNL     1      28.172 -11.882   4.153 -0.31 +0.00    +0.000 C 
DOCKED: ENDBRANCH  16  23
DOCKED: ENDBRANCH  14  19
DOCKED: ENDBRANCH   1  14
DOCKED: TORSDOF 7
DOCKED: TER
DOCKED: ENDMDL
________________________________________________________________________________


	BEGINNING GENETIC ALGORITHM DOCKING 95 of 100
Run: 95 Seed: 2082117319 299922602 [ Run 95 of 100 GA/GALS ]
Beginning LAMARCKIAN GENETIC ALGORITHM (LGA), with a maximum of 2500000 energy evaluations.

Final-Value: -13.844


	FINAL GENETIC ALGORITHM DOCKED STATE
	_______________________________________________


Detailed state:  trans 25.464 -15.981 0.993 quatxyzw 0.363519 -0.880041 0.175417 0.250222 center 1.174 0.164 -0.352 ntor 7 19.5265 -7.7508 49.6575 -104.5209 -11.2572 151.8858 -18.0252
State:	 25.464 -15.981   0.993   0.375 -0.909  0.181 151.019     19.53   -7.75   49.66 -104.52  -11.26  151.89  -18.03

DOCKED: MODEL       95
DOCKED: USER    Run = 95
DOCKED: USER    DPF = ligand_dock.biased.dpf
DOCKED: USER  
DOCKED: USER    Estimated Free Energy of Binding    =  -10.53 kcal/mol  [=(1)+(2)+(3)-(4)]
DOCKED: USER    Estimated Inhibition Constant, Ki   =   19.25 nM (nanomolar)  [Temperature = 298.15 K]
DOCKED: USER    
DOCKED: USER    (1) Final Intermolecular Energy     =  -12.61 kcal/mol
DOCKED: USER        vdW + Hbond + desolv Energy     =  -12.61 kcal/mol
DOCKED: USER        Electrostatic Energy            =   +0.00 kcal/mol
DOCKED: USER    (2) Final Total Internal Energy     =   -1.23 kcal/mol
DOCKED: USER    (3) Torsional Free Energy           =   +2.09 kcal/mol
DOCKED: USER    (4) Unbound System's Energy  [=(2)] =   -1.23 kcal/mol
DOCKED: USER    
DOCKED: USER    
DOCKED: USER    NEWDPF move ligand.pdbqt
DOCKED: USER    NEWDPF about 1.174000 0.164000 -0.352000
DOCKED: USER    NEWDPF tran0 25.464391 -15.981240 0.993435
DOCKED: USER    NEWDPF quaternion0 0.363519 -0.880041 0.175417 0.250222
DOCKED: USER    NEWDPF axisangle0 0.375463 -0.908956 0.181181 151.018689
DOCKED: USER    NEWDPF quat0 0.375463 -0.908956 0.181181 151.018689
DOCKED: USER    NEWDPF dihe0 19.53 -7.75 49.66 -104.52 -11.26 151.89 -18.03 
DOCKED: USER  keepresnum = 1 
DOCKED: USER  
DOCKED: REMARK  Name = 
DOCKED: REMARK  11 active torsions:
DOCKED: REMARK  status: ('A' for Active; 'I' for Inactive)
DOCKED: REMARK    1  A    between atoms: C_1  and  N_2
DOCKED: REMARK    2  A    between atoms: N_2  and  C_3
DOCKED: REMARK    3  A    between atoms: N_2  and  C_22
DOCKED: REMARK    4  A    between atoms: C_6  and  C_9
DOCKED: REMARK    5  A    between atoms: C_9  and  C_10
DOCKED: REMARK    6  A    between atoms: C_10  and  C_11
DOCKED: REMARK    7  A    between atoms: C_10  and  C_20
DOCKED: REMARK    8  A    between atoms: C_12  and  C_13
DOCKED: REMARK    9  A    between atoms: C_12  and  C_19
DOCKED: REMARK   10  A    between atoms: C_14  and  C_15
DOCKED: REMARK   11  A    between atoms: N_16  and  O_17
DOCKED: REMARK                            x       y       z     vdW  Elec       q    Type
DOCKED: REMARK                         _______ _______ _______ _____ _____    ______ ____
DOCKED: USER                              x       y       z     vdW  Elec       q    Type
DOCKED: USER                           _______ _______ _______ _____ _____    ______ ____
DOCKED: ROOT
DOCKED: ATOM      1  C   UNL     1      26.966 -16.397  -0.138 -0.42 -0.00    +0.000 C 
DOCKED: ATOM      2  C   UNL     1      27.970 -16.759  -1.237 -0.38 -0.00    +0.000 C 
DOCKED: ENDROOT
DOCKED: BRANCH   1   3
DOCKED: ATOM      3  C   UNL     1      25.672 -17.160  -0.333 -0.55 -0.00    +0.000 C 
DOCKED: ATOM      4  C   UNL     1      25.005 -17.243  -1.503 -0.66 -0.00    +0.000 C 
DOCKED: ATOM      5  C   UNL     1      25.498 -16.548  -2.753 -0.48 -0.00    +0.000 C 
DOCKED: BRANCH   4   6
DOCKED: ATOM      6  C   UNL     1      23.720 -17.989  -1.518 -0.73 -0.00    +0.000 C 
DOCKED: ATOM      7  C   UNL     1      22.721 -17.746  -0.657 -0.80 -0.00    +0.000 C 
DOCKED: BRANCH   7   8
DOCKED: ATOM      8  C   UNL     1      21.440 -18.483  -0.664 -0.85 -0.00    +0.000 C 
DOCKED: ATOM      9  N   UNL     1      21.352 -19.871  -0.313 -0.63 -0.00    +0.000 N 
DOCKED: ATOM     10  O   UNL     1      20.389 -17.859  -0.969 -2.21 -0.00    +0.000 OA
DOCKED: ATOM     11  H   UNL     1      22.148 -20.344   0.024 -0.55 -0.00    +0.000 HD
DOCKED: BRANCH   9  12
DOCKED: ATOM     12  O   UNL     1      20.178 -20.533  -0.443 -0.87 -0.00    +0.000 OA
DOCKED: ATOM     13  H   UNL     1      19.600 -20.049  -1.053 -0.20 -0.00    +0.000 HD
DOCKED: ENDBRANCH   9  12
DOCKED: ENDBRANCH   7   8
DOCKED: ENDBRANCH   4   6
DOCKED: ENDBRANCH   1   3
DOCKED: BRANCH   1  14
DOCKED: ATOM     14  C   UNL     1      26.711 -14.906  -0.156 -0.32 -0.00    +0.000 C 
DOCKED: ATOM     15  O   UNL     1      26.230 -14.384  -1.201 -0.34 -0.00    +0.000 OA
DOCKED: BRANCH  14  19
DOCKED: ATOM     16  C   UNL     1      27.595 -12.333   3.206 -0.27 -0.00    +0.000 A 
DOCKED: ATOM     17  C   UNL     1      26.823 -11.877   2.119 -0.29 +0.00    +0.000 A 
DOCKED: ATOM     18  C   UNL     1      26.545 -12.714   1.035 -0.30 -0.00    +0.000 A 
DOCKED: ATOM     19  C   UNL     1      27.024 -14.034   1.006 -0.24 -0.00    +0.000 A 
DOCKED: ATOM     20  C   UNL     1      27.803 -14.491   2.083 -0.23 -0.00    +0.000 A 
DOCKED: ATOM     21  C   UNL     1      28.082 -13.655   3.167 -0.32 -0.00    +0.000 A 
DOCKED: BRANCH  16  23
DOCKED: ATOM     22  C   UNL     1      28.113 -12.028   5.670 -0.43 +0.00    +0.000 C 
DOCKED: ATOM     23  N   UNL     1      27.883 -11.465   4.334 -0.32 +0.00    +0.000 N 
DOCKED: ATOM     24  C   UNL     1      27.951 -10.009   4.157 -0.22 +0.00    +0.000 C 
DOCKED: ENDBRANCH  16  23
DOCKED: ENDBRANCH  14  19
DOCKED: ENDBRANCH   1  14
DOCKED: TORSDOF 7
DOCKED: TER
DOCKED: ENDMDL
________________________________________________________________________________


	BEGINNING GENETIC ALGORITHM DOCKING 96 of 100
Run: 96 Seed: 879741399 52127106 [ Run 96 of 100 GA/GALS ]
Beginning LAMARCKIAN GENETIC ALGORITHM (LGA), with a maximum of 2500000 energy evaluations.

Final-Value: -14.752


	FINAL GENETIC ALGORITHM DOCKED STATE
	_______________________________________________


Detailed state:  trans 26.197 -15.688 -0.521 quatxyzw -0.264634 0.954388 0.133745 0.035001 center 1.174 0.164 -0.352 ntor 7 45.9191 165.3174 -172.1192 -97.3760 -155.8140 -24.2033 -73.3027
State:	 26.197 -15.688  -0.521  -0.265  0.955  0.134 175.988     45.92  165.32 -172.12  -97.38 -155.81  -24.20  -73.30

DOCKED: MODEL       96
DOCKED: USER    Run = 96
DOCKED: USER    DPF = ligand_dock.biased.dpf
DOCKED: USER  
DOCKED: USER    Estimated Free Energy of Binding    =  -11.12 kcal/mol  [=(1)+(2)+(3)-(4)]
DOCKED: USER    Estimated Inhibition Constant, Ki   =    7.07 nM (nanomolar)  [Temperature = 298.15 K]
DOCKED: USER    
DOCKED: USER    (1) Final Intermolecular Energy     =  -13.21 kcal/mol
DOCKED: USER        vdW + Hbond + desolv Energy     =  -13.21 kcal/mol
DOCKED: USER        Electrostatic Energy            =   +0.00 kcal/mol
DOCKED: USER    (2) Final Total Internal Energy     =   -1.54 kcal/mol
DOCKED: USER    (3) Torsional Free Energy           =   +2.09 kcal/mol
DOCKED: USER    (4) Unbound System's Energy  [=(2)] =   -1.54 kcal/mol
DOCKED: USER    
DOCKED: USER    
DOCKED: USER    NEWDPF move ligand.pdbqt
DOCKED: USER    NEWDPF about 1.174000 0.164000 -0.352000
DOCKED: USER    NEWDPF tran0 26.196976 -15.687794 -0.520881
DOCKED: USER    NEWDPF quaternion0 -0.264634 0.954388 0.133745 0.035001
DOCKED: USER    NEWDPF axisangle0 -0.264796 0.954973 0.133827 175.988312
DOCKED: USER    NEWDPF quat0 -0.264796 0.954973 0.133827 175.988312
DOCKED: USER    NEWDPF dihe0 45.92 165.32 -172.12 -97.38 -155.81 -24.20 -73.30 
DOCKED: USER  keepresnum = 1 
DOCKED: USER  
DOCKED: REMARK  Name = 
DOCKED: REMARK  11 active torsions:
DOCKED: REMARK  status: ('A' for Active; 'I' for Inactive)
DOCKED: REMARK    1  A    between atoms: C_1  and  N_2
DOCKED: REMARK    2  A    between atoms: N_2  and  C_3
DOCKED: REMARK    3  A    between atoms: N_2  and  C_22
DOCKED: REMARK    4  A    between atoms: C_6  and  C_9
DOCKED: REMARK    5  A    between atoms: C_9  and  C_10
DOCKED: REMARK    6  A    between atoms: C_10  and  C_11
DOCKED: REMARK    7  A    between atoms: C_10  and  C_20
DOCKED: REMARK    8  A    between atoms: C_12  and  C_13
DOCKED: REMARK    9  A    between atoms: C_12  and  C_19
DOCKED: REMARK   10  A    between atoms: C_14  and  C_15
DOCKED: REMARK   11  A    between atoms: N_16  and  O_17
DOCKED: REMARK                            x       y       z     vdW  Elec       q    Type
DOCKED: REMARK                         _______ _______ _______ _____ _____    ______ ____
DOCKED: USER                              x       y       z     vdW  Elec       q    Type
DOCKED: USER                           _______ _______ _______ _____ _____    ______ ____
DOCKED: ROOT
DOCKED: ATOM      1  C   UNL     1      26.443 -15.578  -2.428 -0.44 -0.00    +0.000 C 
DOCKED: ATOM      2  C   UNL     1      26.369 -15.431  -3.951 -0.52 -0.00    +0.000 C 
DOCKED: ENDROOT
DOCKED: BRANCH   1   3
DOCKED: ATOM      3  C   UNL     1      25.157 -16.171  -1.891 -0.57 -0.00    +0.000 C 
DOCKED: ATOM      4  C   UNL     1      25.098 -17.158  -0.971 -0.66 -0.00    +0.000 C 
DOCKED: ATOM      5  C   UNL     1      26.347 -17.785  -0.394 -0.62 -0.00    +0.000 C 
DOCKED: BRANCH   4   6
DOCKED: ATOM      6  C   UNL     1      23.756 -17.666  -0.584 -0.75 -0.00    +0.000 C 
DOCKED: ATOM      7  C   UNL     1      22.895 -18.204  -1.460 -0.67 -0.00    +0.000 C 
DOCKED: BRANCH   7   8
DOCKED: ATOM      8  C   UNL     1      21.559 -18.711  -1.084 -0.81 -0.00    +0.000 C 
DOCKED: ATOM      9  N   UNL     1      20.887 -19.731  -1.836 -0.71 -0.00    +0.000 N 
DOCKED: ATOM     10  O   UNL     1      21.008 -18.244  -0.052 -1.59 -0.00    +0.000 OA
DOCKED: ATOM     11  H   UNL     1      21.349 -20.175  -2.584 -0.58 -0.00    +0.000 HD
DOCKED: BRANCH   9  12
DOCKED: ATOM     12  O   UNL     1      19.618 -20.084  -1.521 -1.44 -0.00    +0.000 OA
DOCKED: ATOM     13  H   UNL     1      19.084 -19.286  -1.387 -0.48 -0.00    +0.000 HD
DOCKED: ENDBRANCH   9  12
DOCKED: ENDBRANCH   7   8
DOCKED: ENDBRANCH   4   6
DOCKED: ENDBRANCH   1   3
DOCKED: BRANCH   1  14
DOCKED: ATOM     14  C   UNL     1      26.707 -14.227  -1.800 -0.29 -0.00    +0.000 C 
DOCKED: ATOM     15  O   UNL     1      26.727 -13.205  -2.543 -0.24 -0.00    +0.000 OA
DOCKED: BRANCH  14  19
DOCKED: ATOM     16  C   UNL     1      27.482 -13.790   2.432 -0.29 -0.00    +0.000 A 
DOCKED: ATOM     17  C   UNL     1      28.136 -14.775   1.667 -0.08 -0.00    +0.000 A 
DOCKED: ATOM     18  C   UNL     1      27.877 -14.911   0.300 -0.24 -0.00    +0.000 A 
DOCKED: ATOM     19  C   UNL     1      26.962 -14.064  -0.345 -0.25 -0.00    +0.000 A 
DOCKED: ATOM     20  C   UNL     1      26.298 -13.086   0.416 -0.28 -0.00    +0.000 A 
DOCKED: ATOM     21  C   UNL     1      26.555 -12.949   1.782 -0.30 -0.00    +0.000 A 
DOCKED: BRANCH  16  23
DOCKED: ATOM     22  C   UNL     1      28.030 -14.823   4.683 -0.60 -0.00    +0.000 C 
DOCKED: ATOM     23  N   UNL     1      27.751 -13.645   3.851 -0.43 -0.00    +0.000 N 
DOCKED: ATOM     24  C   UNL     1      27.751 -12.319   4.480 -0.37 +0.00    +0.000 C 
DOCKED: ENDBRANCH  16  23
DOCKED: ENDBRANCH  14  19
DOCKED: ENDBRANCH   1  14
DOCKED: TORSDOF 7
DOCKED: TER
DOCKED: ENDMDL
________________________________________________________________________________


	BEGINNING GENETIC ALGORITHM DOCKING 97 of 100
Run: 97 Seed: 522999034 2101392865 [ Run 97 of 100 GA/GALS ]
Beginning LAMARCKIAN GENETIC ALGORITHM (LGA), with a maximum of 2500000 energy evaluations.

Final-Value: -14.539


	FINAL GENETIC ALGORITHM DOCKED STATE
	_______________________________________________


Detailed state:  trans 25.739 -15.482 1.056 quatxyzw -0.307928 0.933032 -0.122245 -0.140316 center 1.174 0.164 -0.352 ntor 7 8.5823 180.0000 -117.2644 -86.7034 174.1397 -95.3752 -39.0622
State:	 25.739 -15.482   1.056  -0.311  0.942 -0.123 -163.868      8.58  180.00 -117.26  -86.70  174.14  -95.38  -39.06

DOCKED: MODEL       97
DOCKED: USER    Run = 97
DOCKED: USER    DPF = ligand_dock.biased.dpf
DOCKED: USER  
DOCKED: USER    Estimated Free Energy of Binding    =  -10.94 kcal/mol  [=(1)+(2)+(3)-(4)]
DOCKED: USER    Estimated Inhibition Constant, Ki   =    9.58 nM (nanomolar)  [Temperature = 298.15 K]
DOCKED: USER    
DOCKED: USER    (1) Final Intermolecular Energy     =  -13.03 kcal/mol
DOCKED: USER        vdW + Hbond + desolv Energy     =  -13.03 kcal/mol
DOCKED: USER        Electrostatic Energy            =   +0.00 kcal/mol
DOCKED: USER    (2) Final Total Internal Energy     =   -1.51 kcal/mol
DOCKED: USER    (3) Torsional Free Energy           =   +2.09 kcal/mol
DOCKED: USER    (4) Unbound System's Energy  [=(2)] =   -1.51 kcal/mol
DOCKED: USER    
DOCKED: USER    
DOCKED: USER    NEWDPF move ligand.pdbqt
DOCKED: USER    NEWDPF about 1.174000 0.164000 -0.352000
DOCKED: USER    NEWDPF tran0 25.739096 -15.481513 1.055572
DOCKED: USER    NEWDPF quaternion0 -0.307928 0.933032 -0.122245 -0.140316
DOCKED: USER    NEWDPF axisangle0 -0.311005 0.942354 -0.123467 -163.867729
DOCKED: USER    NEWDPF quat0 -0.311005 0.942354 -0.123467 -163.867729
DOCKED: USER    NEWDPF dihe0 8.58 180.00 -117.26 -86.70 174.14 -95.38 -39.06 
DOCKED: USER  keepresnum = 1 
DOCKED: USER  
DOCKED: REMARK  Name = 
DOCKED: REMARK  11 active torsions:
DOCKED: REMARK  status: ('A' for Active; 'I' for Inactive)
DOCKED: REMARK    1  A    between atoms: C_1  and  N_2
DOCKED: REMARK    2  A    between atoms: N_2  and  C_3
DOCKED: REMARK    3  A    between atoms: N_2  and  C_22
DOCKED: REMARK    4  A    between atoms: C_6  and  C_9
DOCKED: REMARK    5  A    between atoms: C_9  and  C_10
DOCKED: REMARK    6  A    between atoms: C_10  and  C_11
DOCKED: REMARK    7  A    between atoms: C_10  and  C_20
DOCKED: REMARK    8  A    between atoms: C_12  and  C_13
DOCKED: REMARK    9  A    between atoms: C_12  and  C_19
DOCKED: REMARK   10  A    between atoms: C_14  and  C_15
DOCKED: REMARK   11  A    between atoms: N_16  and  O_17
DOCKED: REMARK                            x       y       z     vdW  Elec       q    Type
DOCKED: REMARK                         _______ _______ _______ _____ _____    ______ ____
DOCKED: USER                              x       y       z     vdW  Elec       q    Type
DOCKED: USER                           _______ _______ _______ _____ _____    ______ ____
DOCKED: ROOT
DOCKED: ATOM      1  C   UNL     1      26.854 -16.014  -0.421 -0.41 -0.00    +0.000 C 
DOCKED: ATOM      2  C   UNL     1      27.508 -16.427  -1.744 -0.37 -0.00    +0.000 C 
DOCKED: ENDROOT
DOCKED: BRANCH   1   3
DOCKED: ATOM      3  C   UNL     1      25.449 -16.571  -0.330 -0.30 -0.00    +0.000 C 
DOCKED: ATOM      4  C   UNL     1      25.151 -17.887  -0.289 -0.69 -0.00    +0.000 C 
DOCKED: ATOM      5  C   UNL     1      26.227 -18.950  -0.349 -0.36 -0.00    +0.000 C 
DOCKED: BRANCH   4   6
DOCKED: ATOM      6  C   UNL     1      23.717 -18.274  -0.250 -0.78 -0.00    +0.000 C 
DOCKED: ATOM      7  C   UNL     1      22.888 -18.120  -1.293 -0.71 -0.00    +0.000 C 
DOCKED: BRANCH   7   8
DOCKED: ATOM      8  C   UNL     1      21.461 -18.501  -1.263 -0.45 -0.00    +0.000 C 
DOCKED: ATOM      9  N   UNL     1      20.985 -19.734  -1.820 -0.68 -0.00    +0.000 N 
DOCKED: ATOM     10  O   UNL     1      20.642 -17.721  -0.708 -2.25 -0.00    +0.000 OA
DOCKED: ATOM     11  H   UNL     1      21.626 -20.397  -2.165 -0.52 -0.00    +0.000 HD
DOCKED: BRANCH   9  12
DOCKED: ATOM     12  O   UNL     1      19.656 -19.990  -1.870 -1.60 -0.00    +0.000 OA
DOCKED: ATOM     13  H   UNL     1      19.163 -19.193  -1.621 -0.51 -0.00    +0.000 HD
DOCKED: ENDBRANCH   9  12
DOCKED: ENDBRANCH   7   8
DOCKED: ENDBRANCH   4   6
DOCKED: ENDBRANCH   1   3
DOCKED: BRANCH   1  14
DOCKED: ATOM     14  C   UNL     1      26.835 -14.505  -0.314 -0.32 -0.00    +0.000 C 
DOCKED: ATOM     15  O   UNL     1      26.583 -13.826  -1.349 -0.28 -0.00    +0.000 OA
DOCKED: BRANCH  14  19
DOCKED: ATOM     16  C   UNL     1      27.689 -12.483   3.412 -0.28 -0.00    +0.000 A 
DOCKED: ATOM     17  C   UNL     1      28.046 -13.831   3.213 -0.35 -0.00    +0.000 A 
DOCKED: ATOM     18  C   UNL     1      27.763 -14.478   2.006 -0.24 -0.00    +0.000 A 
DOCKED: ATOM     19  C   UNL     1      27.121 -13.796   0.960 -0.26 -0.00    +0.000 A 
DOCKED: ATOM     20  C   UNL     1      26.752 -12.454   1.157 -0.28 -0.00    +0.000 A 
DOCKED: ATOM     21  C   UNL     1      27.034 -11.807   2.363 -0.28 +0.00    +0.000 A 
DOCKED: BRANCH  16  23
DOCKED: ATOM     22  C   UNL     1      28.238 -12.582   5.886 -0.45 -0.00    +0.000 C 
DOCKED: ATOM     23  N   UNL     1      27.983 -11.809   4.664 -0.33 +0.00    +0.000 N 
DOCKED: ATOM     24  C   UNL     1      28.034 -10.344   4.729 -0.32 +0.00    +0.000 C 
DOCKED: ENDBRANCH  16  23
DOCKED: ENDBRANCH  14  19
DOCKED: ENDBRANCH   1  14
DOCKED: TORSDOF 7
DOCKED: TER
DOCKED: ENDMDL
________________________________________________________________________________


	BEGINNING GENETIC ALGORITHM DOCKING 98 of 100
Run: 98 Seed: 925918579 1668776594 [ Run 98 of 100 GA/GALS ]
Beginning LAMARCKIAN GENETIC ALGORITHM (LGA), with a maximum of 2500000 energy evaluations.

Final-Value: -14.530


	FINAL GENETIC ALGORITHM DOCKED STATE
	_______________________________________________


Detailed state:  trans 26.188 -17.771 -0.810 quatxyzw 0.008150 -0.872884 -0.479673 0.088997 center 1.174 0.164 -0.352 ntor 7 8.5984 -178.9321 -178.1391 -10.3020 177.9594 20.1647 157.9820
State:	 26.188 -17.771  -0.810   0.008 -0.876 -0.482 169.788      8.60 -178.93 -178.14  -10.30  177.96   20.16  157.98

DOCKED: MODEL       98
DOCKED: USER    Run = 98
DOCKED: USER    DPF = ligand_dock.biased.dpf
DOCKED: USER  
DOCKED: USER    Estimated Free Energy of Binding    =  -10.88 kcal/mol  [=(1)+(2)+(3)-(4)]
DOCKED: USER    Estimated Inhibition Constant, Ki   =   10.57 nM (nanomolar)  [Temperature = 298.15 K]
DOCKED: USER    
DOCKED: USER    (1) Final Intermolecular Energy     =  -12.97 kcal/mol
DOCKED: USER        vdW + Hbond + desolv Energy     =  -12.97 kcal/mol
DOCKED: USER        Electrostatic Energy            =   +0.00 kcal/mol
DOCKED: USER    (2) Final Total Internal Energy     =   -1.56 kcal/mol
DOCKED: USER    (3) Torsional Free Energy           =   +2.09 kcal/mol
DOCKED: USER    (4) Unbound System's Energy  [=(2)] =   -1.56 kcal/mol
DOCKED: USER    
DOCKED: USER    
DOCKED: USER    NEWDPF move ligand.pdbqt
DOCKED: USER    NEWDPF about 1.174000 0.164000 -0.352000
DOCKED: USER    NEWDPF tran0 26.187767 -17.770634 -0.810439
DOCKED: USER    NEWDPF quaternion0 0.008150 -0.872884 -0.479673 0.088997
DOCKED: USER    NEWDPF axisangle0 0.008182 -0.876362 -0.481584 169.788233
DOCKED: USER    NEWDPF quat0 0.008182 -0.876362 -0.481584 169.788233
DOCKED: USER    NEWDPF dihe0 8.60 -178.93 -178.14 -10.30 177.96 20.16 157.98 
DOCKED: USER  keepresnum = 1 
DOCKED: USER  
DOCKED: REMARK  Name = 
DOCKED: REMARK  11 active torsions:
DOCKED: REMARK  status: ('A' for Active; 'I' for Inactive)
DOCKED: REMARK    1  A    between atoms: C_1  and  N_2
DOCKED: REMARK    2  A    between atoms: N_2  and  C_3
DOCKED: REMARK    3  A    between atoms: N_2  and  C_22
DOCKED: REMARK    4  A    between atoms: C_6  and  C_9
DOCKED: REMARK    5  A    between atoms: C_9  and  C_10
DOCKED: REMARK    6  A    between atoms: C_10  and  C_11
DOCKED: REMARK    7  A    between atoms: C_10  and  C_20
DOCKED: REMARK    8  A    between atoms: C_12  and  C_13
DOCKED: REMARK    9  A    between atoms: C_12  and  C_19
DOCKED: REMARK   10  A    between atoms: C_14  and  C_15
DOCKED: REMARK   11  A    between atoms: N_16  and  O_17
DOCKED: REMARK                            x       y       z     vdW  Elec       q    Type
DOCKED: REMARK                         _______ _______ _______ _____ _____    ______ ____
DOCKED: USER                              x       y       z     vdW  Elec       q    Type
DOCKED: USER                           _______ _______ _______ _____ _____    ______ ____
DOCKED: ROOT
DOCKED: ATOM      1  C   UNL     1      26.768 -16.556  -2.188 -0.40 -0.00    +0.000 C 
DOCKED: ATOM      2  C   UNL     1      27.023 -15.430  -3.195 -0.39 -0.00    +0.000 C 
DOCKED: ENDROOT
DOCKED: BRANCH   1   3
DOCKED: ATOM      3  C   UNL     1      25.284 -16.699  -1.918 -0.61 -0.00    +0.000 C 
DOCKED: ATOM      4  C   UNL     1      24.746 -17.612  -1.083 -0.72 -0.00    +0.000 C 
DOCKED: ATOM      5  C   UNL     1      25.601 -18.611  -0.335 -0.61 -0.00    +0.000 C 
DOCKED: BRANCH   4   6
DOCKED: ATOM      6  C   UNL     1      23.265 -17.657  -0.965 -0.77 -0.00    +0.000 C 
DOCKED: ATOM      7  C   UNL     1      22.580 -18.791  -0.759 -0.84 -0.00    +0.000 C 
DOCKED: BRANCH   7   8
DOCKED: ATOM      8  C   UNL     1      21.108 -18.844  -0.640 -0.86 -0.00    +0.000 C 
DOCKED: ATOM      9  N   UNL     1      20.428 -19.945  -0.021 -0.73 -0.00    +0.000 N 
DOCKED: ATOM     10  O   UNL     1      20.434 -17.875  -1.081 -2.19 -0.00    +0.000 OA
DOCKED: ATOM     11  H   UNL     1      20.947 -20.659   0.416 -0.40 -0.00    +0.000 HD
DOCKED: BRANCH   9  12
DOCKED: ATOM     12  O   UNL     1      19.076 -20.005  -0.036 -0.86 -0.00    +0.000 OA
DOCKED: ATOM     13  H   UNL     1      18.727 -19.309  -0.615 -0.33 -0.00    +0.000 HD
DOCKED: ENDBRANCH   9  12
DOCKED: ENDBRANCH   7   8
DOCKED: ENDBRANCH   4   6
DOCKED: ENDBRANCH   1   3
DOCKED: BRANCH   1  14
DOCKED: ATOM     14  C   UNL     1      27.515 -16.267  -0.904 -0.39 -0.00    +0.000 C 
DOCKED: ATOM     15  O   UNL     1      28.334 -17.126  -0.471 -0.39 -0.00    +0.000 OA
DOCKED: BRANCH  14  19
DOCKED: ATOM     16  C   UNL     1      26.858 -12.625   1.334 -0.28 -0.00    +0.000 A 
DOCKED: ATOM     17  C   UNL     1      25.900 -13.104   0.418 -0.22 -0.00    +0.000 A 
DOCKED: ATOM     18  C   UNL     1      26.122 -14.280  -0.303 -0.26 -0.00    +0.000 A 
DOCKED: ATOM     19  C   UNL     1      27.304 -15.017  -0.128 -0.27 -0.00    +0.000 A 
DOCKED: ATOM     20  C   UNL     1      28.268 -14.539   0.777 -0.21 -0.00    +0.000 A 
DOCKED: ATOM     21  C   UNL     1      28.047 -13.363   1.498 -0.20 -0.00    +0.000 A 
DOCKED: BRANCH  16  23
DOCKED: ATOM     22  C   UNL     1      25.632 -10.425   1.633 -0.40 +0.00    +0.000 C 
DOCKED: ATOM     23  N   UNL     1      26.627 -11.405   2.085 -0.33 +0.00    +0.000 N 
DOCKED: ATOM     24  C   UNL     1      27.384 -11.130   3.313 -0.31 +0.00    +0.000 C 
DOCKED: ENDBRANCH  16  23
DOCKED: ENDBRANCH  14  19
DOCKED: ENDBRANCH   1  14
DOCKED: TORSDOF 7
DOCKED: TER
DOCKED: ENDMDL
________________________________________________________________________________


	BEGINNING GENETIC ALGORITHM DOCKING 99 of 100
Run: 99 Seed: 1102000260 967343389 [ Run 99 of 100 GA/GALS ]
Beginning LAMARCKIAN GENETIC ALGORITHM (LGA), with a maximum of 2500000 energy evaluations.

Final-Value: -13.711


	FINAL GENETIC ALGORITHM DOCKED STATE
	_______________________________________________


Detailed state:  trans 26.263 -17.237 -0.425 quatxyzw 0.231735 -0.911451 -0.339928 -0.002079 center 1.174 0.164 -0.352 ntor 7 59.6665 -78.2024 -16.2738 169.6177 153.0199 9.5298 -9.6448
State:	 26.263 -17.237  -0.425   0.232 -0.911 -0.340 -179.762     59.67  -78.20  -16.27  169.62  153.02    9.53   -9.64

DOCKED: MODEL       99
DOCKED: USER    Run = 99
DOCKED: USER    DPF = ligand_dock.biased.dpf
DOCKED: USER  
DOCKED: USER    Estimated Free Energy of Binding    =  -10.25 kcal/mol  [=(1)+(2)+(3)-(4)]
DOCKED: USER    Estimated Inhibition Constant, Ki   =   30.65 nM (nanomolar)  [Temperature = 298.15 K]
DOCKED: USER    
DOCKED: USER    (1) Final Intermolecular Energy     =  -12.34 kcal/mol
DOCKED: USER        vdW + Hbond + desolv Energy     =  -12.34 kcal/mol
DOCKED: USER        Electrostatic Energy            =   +0.00 kcal/mol
DOCKED: USER    (2) Final Total Internal Energy     =   -1.37 kcal/mol
DOCKED: USER    (3) Torsional Free Energy           =   +2.09 kcal/mol
DOCKED: USER    (4) Unbound System's Energy  [=(2)] =   -1.37 kcal/mol
DOCKED: USER    
DOCKED: USER    
DOCKED: USER    NEWDPF move ligand.pdbqt
DOCKED: USER    NEWDPF about 1.174000 0.164000 -0.352000
DOCKED: USER    NEWDPF tran0 26.263185 -17.237190 -0.424873
DOCKED: USER    NEWDPF quaternion0 0.231735 -0.911451 -0.339928 -0.002079
DOCKED: USER    NEWDPF axisangle0 0.231735 -0.911453 -0.339929 -179.761726
DOCKED: USER    NEWDPF quat0 0.231735 -0.911453 -0.339929 -179.761726
DOCKED: USER    NEWDPF dihe0 59.67 -78.20 -16.27 169.62 153.02 9.53 -9.64 
DOCKED: USER  keepresnum = 1 
DOCKED: USER  
DOCKED: REMARK  Name = 
DOCKED: REMARK  11 active torsions:
DOCKED: REMARK  status: ('A' for Active; 'I' for Inactive)
DOCKED: REMARK    1  A    between atoms: C_1  and  N_2
DOCKED: REMARK    2  A    between atoms: N_2  and  C_3
DOCKED: REMARK    3  A    between atoms: N_2  and  C_22
DOCKED: REMARK    4  A    between atoms: C_6  and  C_9
DOCKED: REMARK    5  A    between atoms: C_9  and  C_10
DOCKED: REMARK    6  A    between atoms: C_10  and  C_11
DOCKED: REMARK    7  A    between atoms: C_10  and  C_20
DOCKED: REMARK    8  A    between atoms: C_12  and  C_13
DOCKED: REMARK    9  A    between atoms: C_12  and  C_19
DOCKED: REMARK   10  A    between atoms: C_14  and  C_15
DOCKED: REMARK   11  A    between atoms: N_16  and  O_17
DOCKED: REMARK                            x       y       z     vdW  Elec       q    Type
DOCKED: REMARK                         _______ _______ _______ _____ _____    ______ ____
DOCKED: USER                              x       y       z     vdW  Elec       q    Type
DOCKED: USER                           _______ _______ _______ _____ _____    ______ ____
DOCKED: ROOT
DOCKED: ATOM      1  C   UNL     1      26.434 -16.364  -2.133 -0.47 -0.00    +0.000 C 
DOCKED: ATOM      2  C   UNL     1      26.305 -15.598  -3.454 -0.51 -0.00    +0.000 C 
DOCKED: ENDROOT
DOCKED: BRANCH   1   3
DOCKED: ATOM      3  C   UNL     1      25.132 -17.061  -1.796 -0.64 -0.00    +0.000 C 
DOCKED: ATOM      4  C   UNL     1      24.990 -17.981  -0.819 -0.71 -0.00    +0.000 C 
DOCKED: ATOM      5  C   UNL     1      26.157 -18.420   0.037 -0.62 -0.00    +0.000 C 
DOCKED: BRANCH   4   6
DOCKED: ATOM      6  C   UNL     1      23.655 -18.611  -0.647 -0.82 -0.00    +0.000 C 
DOCKED: ATOM      7  C   UNL     1      22.504 -17.960  -0.868 -0.79 -0.00    +0.000 C 
DOCKED: BRANCH   7   8
DOCKED: ATOM      8  C   UNL     1      21.172 -18.577  -0.700 -0.85 -0.00    +0.000 C 
DOCKED: ATOM      9  N   UNL     1      21.005 -19.928  -0.246 -0.69 -0.00    +0.000 N 
DOCKED: ATOM     10  O   UNL     1      20.151 -17.881  -0.944 -2.08 -0.00    +0.000 OA
DOCKED: ATOM     11  H   UNL     1      21.789 -20.449   0.044 -0.57 -0.00    +0.000 HD
DOCKED: BRANCH   9  12
DOCKED: ATOM     12  O   UNL     1      19.773 -20.488  -0.215 -0.86 -0.00    +0.000 OA
DOCKED: ATOM     13  H   UNL     1      19.396 -20.491  -1.108 -0.57 -0.00    +0.000 HD
DOCKED: ENDBRANCH   9  12
DOCKED: ENDBRANCH   7   8
DOCKED: ENDBRANCH   4   6
DOCKED: ENDBRANCH   1   3
DOCKED: BRANCH   1  14
DOCKED: ATOM     14  C   UNL     1      26.824 -15.406  -1.028 -0.36 -0.00    +0.000 C 
DOCKED: ATOM     15  O   UNL     1      25.984 -14.543  -0.647 -0.39 -0.00    +0.000 OA
DOCKED: BRANCH  14  19
DOCKED: ATOM     16  C   UNL     1      30.742 -15.528   0.799 -0.10 -0.00    +0.000 A 
DOCKED: ATOM     17  C   UNL     1      30.358 -16.473  -0.173 -0.14 -0.00    +0.000 A 
DOCKED: ATOM     18  C   UNL     1      29.089 -16.428  -0.756 -0.22 -0.00    +0.000 A 
DOCKED: ATOM     19  C   UNL     1      28.166 -15.435  -0.390 -0.23 -0.00    +0.000 A 
DOCKED: ATOM     20  C   UNL     1      28.540 -14.495   0.586 -0.19 -0.00    +0.000 A 
DOCKED: ATOM     21  C   UNL     1      29.808 -14.539   1.170 -0.13 -0.00    +0.000 A 
DOCKED: BRANCH  16  23
DOCKED: ATOM     22  C   UNL     1      33.221 -14.999   0.709 -0.03 -0.00    +0.000 C 
DOCKED: ATOM     23  N   UNL     1      32.061 -15.572   1.404 -0.11 -0.00    +0.000 N 
DOCKED: ATOM     24  C   UNL     1      32.258 -16.188   2.722 -0.24 -0.00    +0.000 C 
DOCKED: ENDBRANCH  16  23
DOCKED: ENDBRANCH  14  19
DOCKED: ENDBRANCH   1  14
DOCKED: TORSDOF 7
DOCKED: TER
DOCKED: ENDMDL
________________________________________________________________________________


	BEGINNING GENETIC ALGORITHM DOCKING 100 of 100
Run: 100 Seed: 1242616881 74619196 [ Run 100 of 100 GA/GALS ]
Beginning LAMARCKIAN GENETIC ALGORITHM (LGA), with a maximum of 2500000 energy evaluations.

Final-Value: -14.822


	FINAL GENETIC ALGORITHM DOCKED STATE
	_______________________________________________


Detailed state:  trans 26.118 -15.501 0.095 quatxyzw 0.267632 -0.961024 -0.059184 0.036114 center 1.174 0.164 -0.352 ntor 7 26.5260 165.6445 178.6598 -70.6451 24.3509 -48.8602 -60.7587
State:	 26.118 -15.501   0.095   0.268 -0.962 -0.059 175.861     26.53  165.64  178.66  -70.65   24.35  -48.86  -60.76

DOCKED: MODEL      100
DOCKED: USER    Run = 100
DOCKED: USER    DPF = ligand_dock.biased.dpf
DOCKED: USER  
DOCKED: USER    Estimated Free Energy of Binding    =  -11.16 kcal/mol  [=(1)+(2)+(3)-(4)]
DOCKED: USER    Estimated Inhibition Constant, Ki   =    6.63 nM (nanomolar)  [Temperature = 298.15 K]
DOCKED: USER    
DOCKED: USER    (1) Final Intermolecular Energy     =  -13.25 kcal/mol
DOCKED: USER        vdW + Hbond + desolv Energy     =  -13.25 kcal/mol
DOCKED: USER        Electrostatic Energy            =   +0.00 kcal/mol
DOCKED: USER    (2) Final Total Internal Energy     =   -1.58 kcal/mol
DOCKED: USER    (3) Torsional Free Energy           =   +2.09 kcal/mol
DOCKED: USER    (4) Unbound System's Energy  [=(2)] =   -1.58 kcal/mol
DOCKED: USER    
DOCKED: USER    
DOCKED: USER    NEWDPF move ligand.pdbqt
DOCKED: USER    NEWDPF about 1.174000 0.164000 -0.352000
DOCKED: USER    NEWDPF tran0 26.117773 -15.501274 0.094560
DOCKED: USER    NEWDPF quaternion0 0.267632 -0.961024 -0.059184 0.036114
DOCKED: USER    NEWDPF axisangle0 0.267807 -0.961651 -0.059222 175.860748
DOCKED: USER    NEWDPF quat0 0.267807 -0.961651 -0.059222 175.860748
DOCKED: USER    NEWDPF dihe0 26.53 165.64 178.66 -70.65 24.35 -48.86 -60.76 
DOCKED: USER  keepresnum = 1 
DOCKED: USER  
DOCKED: REMARK  Name = 
DOCKED: REMARK  11 active torsions:
DOCKED: REMARK  status: ('A' for Active; 'I' for Inactive)
DOCKED: REMARK    1  A    between atoms: C_1  and  N_2
DOCKED: REMARK    2  A    between atoms: N_2  and  C_3
DOCKED: REMARK    3  A    between atoms: N_2  and  C_22
DOCKED: REMARK    4  A    between atoms: C_6  and  C_9
DOCKED: REMARK    5  A    between atoms: C_9  and  C_10
DOCKED: REMARK    6  A    between atoms: C_10  and  C_11
DOCKED: REMARK    7  A    between atoms: C_10  and  C_20
DOCKED: REMARK    8  A    between atoms: C_12  and  C_13
DOCKED: REMARK    9  A    between atoms: C_12  and  C_19
DOCKED: REMARK   10  A    between atoms: C_14  and  C_15
DOCKED: REMARK   11  A    between atoms: N_16  and  O_17
DOCKED: REMARK                            x       y       z     vdW  Elec       q    Type
DOCKED: REMARK                         _______ _______ _______ _____ _____    ______ ____
DOCKED: USER                              x       y       z     vdW  Elec       q    Type
DOCKED: USER                           _______ _______ _______ _____ _____    ______ ____
DOCKED: ROOT
DOCKED: ATOM      1  C   UNL     1      26.696 -15.596  -1.740 -0.39 -0.00    +0.000 C 
DOCKED: ATOM      2  C   UNL     1      26.893 -15.612  -3.259 -0.42 -0.00    +0.000 C 
DOCKED: ENDROOT
DOCKED: BRANCH   1   3
DOCKED: ATOM      3  C   UNL     1      25.324 -16.126  -1.379 -0.55 -0.00    +0.000 C 
DOCKED: ATOM      4  C   UNL     1      25.100 -17.304  -0.759 -0.66 -0.00    +0.000 C 
DOCKED: ATOM      5  C   UNL     1      26.232 -18.230  -0.375 -0.64 -0.00    +0.000 C 
DOCKED: BRANCH   4   6
DOCKED: ATOM      6  C   UNL     1      23.689 -17.704  -0.519 -0.75 -0.00    +0.000 C 
DOCKED: ATOM      7  C   UNL     1      22.947 -18.354  -1.428 -0.72 -0.00    +0.000 C 
DOCKED: BRANCH   7   8
DOCKED: ATOM      8  C   UNL     1      21.544 -18.756  -1.198 -0.71 -0.00    +0.000 C 
DOCKED: ATOM      9  N   UNL     1      20.883 -19.735  -2.012 -0.61 -0.00    +0.000 N 
DOCKED: ATOM     10  O   UNL     1      20.919 -18.234  -0.236 -1.78 -0.00    +0.000 OA
DOCKED: ATOM     11  H   UNL     1      21.390 -20.223  -2.701 -0.57 -0.00    +0.000 HD
DOCKED: BRANCH   9  12
DOCKED: ATOM     12  O   UNL     1      19.565 -19.989  -1.836 -1.53 -0.00    +0.000 OA
DOCKED: ATOM     13  H   UNL     1      19.130 -19.204  -1.468 -0.52 -0.00    +0.000 HD
DOCKED: ENDBRANCH   9  12
DOCKED: ENDBRANCH   7   8
DOCKED: ENDBRANCH   4   6
DOCKED: ENDBRANCH   1   3
DOCKED: BRANCH   1  14
DOCKED: ATOM     14  C   UNL     1      26.874 -14.186  -1.221 -0.28 -0.00    +0.000 C 
DOCKED: ATOM     15  O   UNL     1      26.805 -13.225  -2.037 -0.22 -0.00    +0.000 OA
DOCKED: BRANCH  14  19
DOCKED: ATOM     16  C   UNL     1      27.631 -13.311   2.947 -0.32 -0.00    +0.000 A 
DOCKED: ATOM     17  C   UNL     1      26.647 -12.612   2.219 -0.29 +0.00    +0.000 A 
DOCKED: ATOM     18  C   UNL     1      26.412 -12.899   0.872 -0.30 -0.00    +0.000 A 
DOCKED: ATOM     19  C   UNL     1      27.146 -13.897   0.212 -0.25 -0.00    +0.000 A 
DOCKED: ATOM     20  C   UNL     1      28.136 -14.591   0.929 -0.22 -0.00    +0.000 A 
DOCKED: ATOM     21  C   UNL     1      28.373 -14.304   2.276 -0.22 -0.00    +0.000 A 
DOCKED: BRANCH  16  23
DOCKED: ATOM     22  C   UNL     1      27.753 -11.643   4.853 -0.38 +0.00    +0.000 C 
DOCKED: ATOM     23  N   UNL     1      27.876 -13.015   4.346 -0.39 -0.00    +0.000 N 
DOCKED: ATOM     24  C   UNL     1      28.248 -14.085   5.281 -0.53 -0.00    +0.000 C 
DOCKED: ENDBRANCH  16  23
DOCKED: ENDBRANCH  14  19
DOCKED: ENDBRANCH   1  14
DOCKED: TORSDOF 7
DOCKED: TER
DOCKED: ENDMDL
________________________________________________________________________________

DPF>                           # do this many hybrid GA-LS runs

DPF> analysis                             # perform a ranked cluster analysis


		CLUSTER ANALYSIS OF CONFORMATIONS
		_________________________________

Number of conformations = 100

RMSD cluster analysis will be performed using the ligand atoms only (24 / 24 total atoms).

Outputting structurally similar clusters, ranked in order of increasing energy.


________________________________________________________________________________

Number of distinct conformational clusters found = 5,  out of 100 runs,
Using an rmsd-tolerance of 2.0 A


	CLUSTERING HISTOGRAM
	____________________

________________________________________________________________________________
     |           |     |           |     |                                    
Clus | Lowest    | Run | Mean      | Num | Histogram                          
-ter | Binding   |     | Binding   | in  |                                    
Rank | Energy    |     | Energy    | Clus|    5    10   15   20   25   30   35
_____|___________|_____|___________|_____|____:____|____:____|____:____|____:___
   1 |    -11.82 |  90 |    -10.89 |  62 |##############################################################
   2 |    -11.32 |  12 |    -10.68 |  18 |##################
   3 |    -11.26 |  38 |    -10.51 |  14 |##############
   4 |    -10.65 |  13 |    -10.40 |   3 |###
   5 |    -10.25 |  99 |    -10.05 |   3 |###
_____|___________|_____|___________|_____|______________________________________


Number of multi-member conformational clusters found = 5, out of 100 runs.

	RMSD TABLE
	__________

_____________________________________________________________________
     |      |      |           |         |                 |
Rank | Sub- | Run  | Binding   | Cluster | Reference       | Grep
     | Rank |      | Energy    | RMSD    | RMSD            | Pattern
_____|______|______|___________|_________|_________________|___________
   1      1     90      -11.82      0.00     26.76           RANKING
   1      2     34      -11.60      0.44     26.87           RANKING
   1      3     56      -11.59      0.32     26.83           RANKING
   1      4     14      -11.47      0.32     26.73           RANKING
   1      5     10      -11.43      0.42     26.87           RANKING
   1      6     86      -11.40      0.51     26.84           RANKING
   1      7     69      -11.34      0.93     26.79           RANKING
   1      8     80      -11.33      0.89     26.80           RANKING
   1      9     53      -11.26      0.42     26.92           RANKING
   1     10     76      -11.22      1.11     26.78           RANKING
   1     11     73      -11.21      0.83     26.86           RANKING
   1     12     44      -11.20      0.97     26.77           RANKING
   1     13     63      -11.19      1.09     26.81           RANKING
   1     14    100      -11.16      0.66     26.81           RANKING
   1     15     91      -11.14      1.16     26.81           RANKING
   1     16     17      -11.14      1.43     26.89           RANKING
   1     17     15      -11.14      1.05     26.81           RANKING
   1     18     39      -11.12      0.89     26.52           RANKING
   1     19     96      -11.12      0.99     26.77           RANKING
   1     20      8      -11.11      0.74     26.84           RANKING
   1     21     71      -11.09      0.97     26.92           RANKING
   1     22     43      -11.06      0.76     26.68           RANKING
   1     23     50      -11.02      0.56     26.70           RANKING
   1     24     94      -10.96      1.12     26.72           RANKING
   1     25     42      -10.95      1.52     26.72           RANKING
   1     26     97      -10.94      0.73     26.83           RANKING
   1     27     52      -10.93      1.49     26.70           RANKING
   1     28     74      -10.90      1.06     26.74           RANKING
   1     29     82      -10.90      1.33     26.69           RANKING
   1     30     54      -10.90      1.01     26.73           RANKING
   1     31     67      -10.88      1.38     26.72           RANKING
   1     32     98      -10.88      1.69     26.65           RANKING
   1     33     19      -10.88      1.01     26.84           RANKING
   1     34     84      -10.87      0.82     26.82           RANKING
   1     35     22      -10.87      1.17     26.75           RANKING
   1     36      6      -10.86      0.78     26.67           RANKING
   1     37     40      -10.85      0.94     26.60           RANKING
   1     38     79      -10.82      1.34     26.70           RANKING
   1     39     24      -10.80      1.15     26.69           RANKING
   1     40      3      -10.79      1.29     26.78           RANKING
   1     41     30      -10.78      1.06     27.11           RANKING
   1     42     28      -10.78      1.02     26.72           RANKING
   1     43     72      -10.77      1.63     26.77           RANKING
   1     44     65      -10.72      0.82     26.76           RANKING
   1     45     78      -10.72      1.39     26.84           RANKING
   1     46     70      -10.71      0.75     26.84           RANKING
   1     47     62      -10.71      0.94     26.85           RANKING
   1     48     32      -10.70      1.12     26.72           RANKING
   1     49      4      -10.66      1.57     26.86           RANKING
   1     50     60      -10.66      1.46     26.82           RANKING
   1     51     31      -10.62      1.43     26.75           RANKING
   1     52     81      -10.58      0.93     27.00           RANKING
   1     53     45      -10.58      0.99     26.86           RANKING
   1     54     95      -10.53      1.04     26.78           RANKING
   1     55     41      -10.48      1.66     26.69           RANKING
   1     56     18      -10.45      1.47     27.00           RANKING
   1     57     25      -10.36      1.97     27.77           RANKING
   1     58     20      -10.36      1.00     26.81           RANKING
   1     59     83      -10.30      1.79     26.51           RANKING
   1     60     51       -9.97      1.63     26.68           RANKING
   1     61     68       -9.95      1.24     26.51           RANKING
   1     62     75       -9.69      1.44     27.73           RANKING
   2      1     12      -11.32      0.00     27.47           RANKING
   2      2     88      -11.02      1.69     27.78           RANKING
   2      3      7      -10.98      1.63     27.15           RANKING
   2      4      9      -10.96      1.52     27.34           RANKING
   2      5      2      -10.96      0.60     27.46           RANKING
   2      6     58      -10.90      1.30     27.50           RANKING
   2      7     48      -10.77      1.70     27.28           RANKING
   2      8     26      -10.71      1.50     27.58           RANKING
   2      9     93      -10.65      1.80     27.17           RANKING
   2     10     87      -10.63      1.04     27.83           RANKING
   2     11     61      -10.55      1.62     27.60           RANKING
   2     12     85      -10.54      1.51     27.61           RANKING
   2     13     37      -10.52      0.93     27.40           RANKING
   2     14     27      -10.49      1.61     27.41           RANKING
   2     15     49      -10.44      1.37     27.44           RANKING
   2     16     33      -10.38      0.95     27.81           RANKING
   2     17     16      -10.20      1.22     27.05           RANKING
   2     18      5      -10.14      0.81     26.98           RANKING
   3      1     38      -11.26      0.00     26.48           RANKING
   3      2     77      -11.00      1.09     26.13           RANKING
   3      3     92      -10.93      1.61     26.11           RANKING
   3      4     21      -10.75      1.34     26.14           RANKING
   3      5     64      -10.63      1.26     25.90           RANKING
   3      6     35      -10.61      0.90     26.21           RANKING
   3      7     59      -10.59      1.46     26.02           RANKING
   3      8     29      -10.57      1.32     26.08           RANKING
   3      9     11      -10.42      1.38     26.00           RANKING
   3     10     55      -10.40      1.81     26.28           RANKING
   3     11     66      -10.29      1.60     26.56           RANKING
   3     12     36      -10.05      1.09     26.07           RANKING
   3     13      1       -9.96      1.56     26.05           RANKING
   3     14     46       -9.64      1.20     26.85           RANKING
   4      1     13      -10.65      0.00     26.27           RANKING
   4      2     23      -10.53      0.30     26.29           RANKING
   4      3     89      -10.02      0.67     26.06           RANKING
   5      1     99      -10.25      0.00     28.33           RANKING
   5      2     57      -10.10      0.82     28.58           RANKING
   5      3     47       -9.81      0.81     28.45           RANKING
_______________________________________________________________________



	INFORMATION ENTROPY ANALYSIS FOR THIS CLUSTERING
	________________________________________________


Information entropy for this clustering = 0.24  (rmstol = 2.00 Angstrom)

_______________________________________________________________________


	STATISTICAL MECHANICAL ANALYSIS
	_______________________________


Partition function, Q =   101.83            at Temperature, T = 298.15 K
Free energy,        A ~ -2739.24 kcal/mol   at Temperature, T = 298.15 K
Internal energy,    U =   -10.76 kcal/mol   at Temperature, T = 298.15 K
Entropy,            S =     9.15 kcal/mol/K at Temperature, T = 298.15 K

_______________________________________________________________________


	LOWEST ENERGY DOCKED CONFORMATION from EACH CLUSTER
	___________________________________________________



Keeping original residue number (specified in the input PDBQ file) for outputting.

MODEL       90
USER    Run = 90
USER    Cluster Rank = 1
USER    Number of conformations in this cluster = 62
USER  
USER    RMSD from reference structure       = 26.756 A
USER  
USER    Estimated Free Energy of Binding    =  -11.82 kcal/mol  [=(1)+(2)+(3)-(4)]
USER    Estimated Inhibition Constant, Ki   =    2.18 nM (nanomolar)  [Temperature = 298.15 K]
USER    
USER    (1) Final Intermolecular Energy     =  -13.90 kcal/mol
USER        vdW + Hbond + desolv Energy     =  -13.90 kcal/mol
USER        Electrostatic Energy            =   +0.00 kcal/mol
USER    (2) Final Total Internal Energy     =   -1.67 kcal/mol
USER    (3) Torsional Free Energy           =   +2.09 kcal/mol
USER    (4) Unbound System's Energy  [=(2)] =   -1.67 kcal/mol
USER    
USER    
USER  
USER    DPF = ligand_dock.biased.dpf
USER    NEWDPF move	ligand.pdbqt
USER    NEWDPF about	1.174000 0.164000 -0.352000
USER    NEWDPF tran0	25.474403 -15.698781 -0.069869
USER    NEWDPF axisangle0	-0.315549 0.944310 -0.093315 -149.680609
USER    NEWDPF quaternion0	-0.304568 0.911449 -0.090067 -0.261510
USER    NEWDPF dihe0	2.89 -6.71 15.15 92.78 180.00 -43.85 -26.83 
USER  
USER                              x       y       z    vdW   Elec        q     RMS 
ATOM      1  C   UNL     1      26.903 -15.993  -1.328 -0.41 -0.00    +0.000    26.756
ATOM      2  C   UNL     1      27.841 -16.204  -2.520 -0.31 -0.00    +0.000    26.756
ATOM      3  C   UNL     1      25.544 -16.602  -1.610 -0.58 -0.00    +0.000    26.756
ATOM      4  C   UNL     1      25.015 -17.637  -0.925 -0.70 -0.00    +0.000    26.756
ATOM      5  C   UNL     1      25.762 -18.309   0.206 -0.58 -0.00    +0.000    26.756
ATOM      6  C   UNL     1      23.690 -18.151  -1.358 -0.78 -0.00    +0.000    26.756
ATOM      7  C   UNL     1      22.573 -18.001  -0.632 -0.83 -0.00    +0.000    26.756
ATOM      8  C   UNL     1      21.251 -18.509  -1.055 -0.77 -0.00    +0.000    26.756
ATOM      9  N   UNL     1      21.101 -19.715  -1.818 -0.62 -0.00    +0.000    26.756
ATOM     10  O   UNL     1      20.223 -17.869  -0.711 -2.18 -0.00    +0.000    26.756
ATOM     11  H   UNL     1      21.887 -20.277  -2.007 -0.48 -0.00    +0.000    26.756
ATOM     12  O   UNL     1      19.882 -20.081  -2.279 -1.77 -0.00    +0.000    26.756
ATOM     13  H   UNL     1      19.231 -19.401  -2.048 -0.46 -0.00    +0.000    26.756
ATOM     14  C   UNL     1      26.772 -14.513  -1.040 -0.31 -0.00    +0.000    26.756
ATOM     15  O   UNL     1      26.468 -13.735  -1.988 -0.28 -0.00    +0.000    26.756
ATOM     16  C   UNL     1      27.486 -12.894   2.906 -0.30 -0.00    +0.000    26.756
ATOM     17  C   UNL     1      28.044 -14.125   2.508 -0.30 -0.00    +0.000    26.756
ATOM     18  C   UNL     1      27.806 -14.643   1.232 -0.24 -0.00    +0.000    26.756
ATOM     19  C   UNL     1      27.008 -13.944   0.312 -0.26 -0.00    +0.000    26.756
ATOM     20  C   UNL     1      26.439 -12.720   0.707 -0.29 -0.00    +0.000    26.756
ATOM     21  C   UNL     1      26.677 -12.202   1.982 -0.30 +0.00    +0.000    26.756
ATOM     22  C   UNL     1      27.695 -10.906   4.467 -0.35 +0.00    +0.000    26.756
ATOM     23  N   UNL     1      27.735 -12.355   4.230 -0.34 +0.00    +0.000    26.756
ATOM     24  C   UNL     1      28.029 -13.248   5.357 -0.49 -0.00    +0.000    26.756
TER
ENDMDL
MODEL       12
USER    Run = 12
USER    Cluster Rank = 2
USER    Number of conformations in this cluster = 18
USER  
USER    RMSD from reference structure       = 27.473 A
USER  
USER    Estimated Free Energy of Binding    =  -11.32 kcal/mol  [=(1)+(2)+(3)-(4)]
USER    Estimated Inhibition Constant, Ki   =    5.02 nM (nanomolar)  [Temperature = 298.15 K]
USER    
USER    (1) Final Intermolecular Energy     =  -13.41 kcal/mol
USER        vdW + Hbond + desolv Energy     =  -13.41 kcal/mol
USER        Electrostatic Energy            =   +0.00 kcal/mol
USER    (2) Final Total Internal Energy     =   -0.82 kcal/mol
USER    (3) Torsional Free Energy           =   +2.09 kcal/mol
USER    (4) Unbound System's Energy  [=(2)] =   -0.82 kcal/mol
USER    
USER    
USER  
USER    DPF = ligand_dock.biased.dpf
USER    NEWDPF move	ligand.pdbqt
USER    NEWDPF about	1.174000 0.164000 -0.352000
USER    NEWDPF tran0	24.469603 -14.673626 -2.038906
USER    NEWDPF axisangle0	-0.482579 0.657197 -0.578973 -162.225885
USER    NEWDPF quaternion0	-0.476785 0.649308 -0.572022 -0.154487
USER    NEWDPF dihe0	54.41 158.97 -18.64 174.89 41.01 -110.14 79.23 
USER  
USER                              x       y       z    vdW   Elec        q     RMS 
ATOM      1  C   UNL     1      26.206 -15.494  -2.179 -0.45 -0.00    +0.000    27.473
ATOM      2  C   UNL     1      27.451 -16.360  -2.401 -0.33 -0.00    +0.000    27.473
ATOM      3  C   UNL     1      25.018 -16.359  -1.815 -0.59 -0.00    +0.000    27.473
ATOM      4  C   UNL     1      25.034 -17.315  -0.862 -0.67 -0.00    +0.000    27.473
ATOM      5  C   UNL     1      26.282 -17.624  -0.064 -0.58 -0.00    +0.000    27.473
ATOM      6  C   UNL     1      23.797 -18.113  -0.659 -0.80 -0.00    +0.000    27.473
ATOM      7  C   UNL     1      22.569 -17.640  -0.914 -0.72 -0.00    +0.000    27.473
ATOM      8  C   UNL     1      21.334 -18.426  -0.715 -0.84 -0.00    +0.000    27.473
ATOM      9  N   UNL     1      21.355 -19.779  -0.239 -0.66 -0.00    +0.000    27.473
ATOM     10  O   UNL     1      20.226 -17.876  -0.953 -2.15 -0.00    +0.000    27.473
ATOM     11  H   UNL     1      22.205 -20.186   0.046 -0.55 -0.00    +0.000    27.473
ATOM     12  O   UNL     1      20.209 -20.497  -0.179 -0.85 -0.00    +0.000    27.473
ATOM     13  H   UNL     1      19.780 -20.496  -1.050 -0.46 -0.00    +0.000    27.473
ATOM     14  C   UNL     1      25.916 -14.694  -3.431 -0.51 -0.00    +0.000    27.473
ATOM     15  O   UNL     1      24.744 -14.262  -3.618 -0.94 -0.00    +0.000    27.473
ATOM     16  C   UNL     1      28.946 -13.836  -6.396 -0.27 -0.00    +0.000    27.473
ATOM     17  C   UNL     1      28.340 -12.806  -5.649 -0.18 -0.00    +0.000    27.473
ATOM     18  C   UNL     1      27.360 -13.092  -4.696 -0.23 -0.00    +0.000    27.473
ATOM     19  C   UNL     1      26.958 -14.415  -4.453 -0.38 -0.00    +0.000    27.473
ATOM     20  C   UNL     1      27.551 -15.447  -5.202 -0.31 +0.00    +0.000    27.473
ATOM     21  C   UNL     1      28.531 -15.162  -6.156 -0.34 -0.00    +0.000    27.473
ATOM     22  C   UNL     1      29.823 -12.390  -8.285 -0.18 -0.00    +0.000    27.473
ATOM     23  N   UNL     1      29.966 -13.541  -7.385 -0.22 -0.00    +0.000    27.473
ATOM     24  C   UNL     1      31.159 -14.389  -7.503 -0.20 -0.00    +0.000    27.473
TER
ENDMDL
MODEL       38
USER    Run = 38
USER    Cluster Rank = 3
USER    Number of conformations in this cluster = 14
USER  
USER    RMSD from reference structure       = 26.477 A
USER  
USER    Estimated Free Energy of Binding    =  -11.26 kcal/mol  [=(1)+(2)+(3)-(4)]
USER    Estimated Inhibition Constant, Ki   =    5.58 nM (nanomolar)  [Temperature = 298.15 K]
USER    
USER    (1) Final Intermolecular Energy     =  -13.35 kcal/mol
USER        vdW + Hbond + desolv Energy     =  -13.35 kcal/mol
USER        Electrostatic Energy            =   +0.00 kcal/mol
USER    (2) Final Total Internal Energy     =   -1.43 kcal/mol
USER    (3) Torsional Free Energy           =   +2.09 kcal/mol
USER    (4) Unbound System's Energy  [=(2)] =   -1.43 kcal/mol
USER    
USER    
USER  
USER    DPF = ligand_dock.biased.dpf
USER    NEWDPF move	ligand.pdbqt
USER    NEWDPF about	1.174000 0.164000 -0.352000
USER    NEWDPF tran0	25.783561 -15.334057 -2.118283
USER    NEWDPF axisangle0	-0.260547 0.655234 -0.709072 -153.476813
USER    NEWDPF quaternion0	-0.253599 0.637761 -0.690163 -0.229397
USER    NEWDPF dihe0	-2.50 177.42 0.09 93.27 -107.60 -107.60 -71.72 
USER  
USER                              x       y       z    vdW   Elec        q     RMS 
ATOM      1  C   UNL     1      27.160 -16.518  -1.475 -0.42 -0.00    +0.000    26.477
ATOM      2  C   UNL     1      28.137 -17.646  -1.130 -0.21 -0.00    +0.000    26.477
ATOM      3  C   UNL     1      25.772 -17.075  -1.717 -0.57 -0.00    +0.000    26.477
ATOM      4  C   UNL     1      25.121 -17.895  -0.866 -0.70 -0.00    +0.000    26.477
ATOM      5  C   UNL     1      25.745 -18.353   0.433 -0.46 -0.00    +0.000    26.477
ATOM      6  C   UNL     1      23.782 -18.396  -1.273 -0.78 -0.00    +0.000    26.477
ATOM      7  C   UNL     1      22.643 -18.005  -0.684 -0.83 -0.00    +0.000    26.477
ATOM      8  C   UNL     1      21.308 -18.498  -1.082 -0.76 -0.00    +0.000    26.477
ATOM      9  N   UNL     1      21.131 -19.694  -1.853 -0.58 -0.00    +0.000    26.477
ATOM     10  O   UNL     1      20.293 -17.852  -0.709 -2.20 +0.00    +0.000    26.477
ATOM     11  H   UNL     1      21.908 -20.262  -2.064 -0.49 -0.00    +0.000    26.477
ATOM     12  O   UNL     1      19.899 -20.047  -2.290 -1.77 -0.00    +0.000    26.477
ATOM     13  H   UNL     1      19.246 -19.408  -1.965 -0.45 -0.00    +0.000    26.477
ATOM     14  C   UNL     1      27.654 -15.776  -2.698 -0.31 -0.00    +0.000    26.477
ATOM     15  O   UNL     1      28.658 -16.227  -3.318 -0.30 -0.00    +0.000    26.477
ATOM     16  C   UNL     1      25.817 -12.113  -4.081 -0.18 -0.00    +0.000    26.477
ATOM     17  C   UNL     1      26.947 -12.092  -3.240 -0.14 -0.00    +0.000    26.477
ATOM     18  C   UNL     1      27.533 -13.281  -2.795 -0.15 -0.00    +0.000    26.477
ATOM     19  C   UNL     1      27.011 -14.526  -3.181 -0.29 -0.00    +0.000    26.477
ATOM     20  C   UNL     1      25.878 -14.553  -4.012 -0.49 -0.00    +0.000    26.477
ATOM     21  C   UNL     1      25.291 -13.365  -4.457 -0.24 -0.00    +0.000    26.477
ATOM     22  C   UNL     1      25.396  -9.627  -3.801 -0.26 -0.00    +0.000    26.477
ATOM     23  N   UNL     1      25.209 -10.879  -4.545 -0.34 -0.00    +0.000    26.477
ATOM     24  C   UNL     1      24.398 -10.861  -5.769 -0.41 -0.00    +0.000    26.477
TER
ENDMDL
MODEL       13
USER    Run = 13
USER    Cluster Rank = 4
USER    Number of conformations in this cluster = 3
USER  
USER    RMSD from reference structure       = 26.269 A
USER  
USER    Estimated Free Energy of Binding    =  -10.65 kcal/mol  [=(1)+(2)+(3)-(4)]
USER    Estimated Inhibition Constant, Ki   =   15.59 nM (nanomolar)  [Temperature = 298.15 K]
USER    
USER    (1) Final Intermolecular Energy     =  -12.74 kcal/mol
USER        vdW + Hbond + desolv Energy     =  -12.74 kcal/mol
USER        Electrostatic Energy            =   +0.00 kcal/mol
USER    (2) Final Total Internal Energy     =   -1.04 kcal/mol
USER    (3) Torsional Free Energy           =   +2.09 kcal/mol
USER    (4) Unbound System's Energy  [=(2)] =   -1.04 kcal/mol
USER    
USER    
USER  
USER    DPF = ligand_dock.biased.dpf
USER    NEWDPF move	ligand.pdbqt
USER    NEWDPF about	1.174000 0.164000 -0.352000
USER    NEWDPF tran0	26.198362 -17.211804 -0.465727
USER    NEWDPF axisangle0	0.212144 -0.859207 -0.465573 170.853801
USER    NEWDPF quaternion0	0.211468 -0.856472 -0.464091 0.079731
USER    NEWDPF dihe0	61.69 127.24 69.04 101.47 88.13 10.06 118.16 
USER  
USER                              x       y       z    vdW   Elec        q     RMS 
ATOM      1  C   UNL     1      26.564 -15.890  -1.817 -0.43 -0.00    +0.000    26.269
ATOM      2  C   UNL     1      26.593 -14.761  -2.853 -0.38 -0.00    +0.000    26.269
ATOM      3  C   UNL     1      25.202 -16.550  -1.793 -0.61 -0.00    +0.000    26.269
ATOM      4  C   UNL     1      24.923 -17.699  -1.141 -0.70 -0.00    +0.000    26.269
ATOM      5  C   UNL     1      25.982 -18.455  -0.369 -0.63 -0.00    +0.000    26.269
ATOM      6  C   UNL     1      23.546 -18.245  -1.256 -0.79 -0.00    +0.000    26.269
ATOM      7  C   UNL     1      22.623 -18.117  -0.291 -0.82 -0.00    +0.000    26.269
ATOM      8  C   UNL     1      21.252 -18.657  -0.397 -0.80 -0.00    +0.000    26.269
ATOM      9  N   UNL     1      20.925 -20.000  -0.014 -0.67 -0.00    +0.000    26.269
ATOM     10  O   UNL     1      20.338 -17.899  -0.818 -2.22 -0.00    +0.000    26.269
ATOM     11  H   UNL     1      21.607 -20.569   0.410 -0.60 -0.00    +0.000    26.269
ATOM     12  O   UNL     1      19.681 -20.487  -0.233 -0.86 -0.00    +0.000    26.269
ATOM     13  H   UNL     1      19.497 -20.488  -1.186 -0.58 -0.00    +0.000    26.269
ATOM     14  C   UNL     1      26.909 -15.334  -0.452 -0.36 -0.00    +0.000    26.269
ATOM     15  O   UNL     1      27.248 -16.137   0.463 -0.41 -0.00    +0.000    26.269
ATOM     16  C   UNL     1      26.759 -11.097   0.403 -0.20 +0.00    +0.000    26.269
ATOM     17  C   UNL     1      27.726 -11.634  -0.470 -0.10 -0.00    +0.000    26.269
ATOM     18  C   UNL     1      27.769 -13.005  -0.738 -0.13 -0.00    +0.000    26.269
ATOM     19  C   UNL     1      26.845 -13.881  -0.148 -0.25 -0.00    +0.000    26.269
ATOM     20  C   UNL     1      25.884 -13.353   0.733 -0.21 -0.00    +0.000    26.269
ATOM     21  C   UNL     1      25.840 -11.983   1.002 -0.30 +0.00    +0.000    26.269
ATOM     22  C   UNL     1      27.727  -9.045   1.535 -0.15 +0.00    +0.000    26.269
ATOM     23  N   UNL     1      26.712  -9.674   0.681 -0.23 +0.00    +0.000    26.269
ATOM     24  C   UNL     1      25.649  -8.837   0.111 -0.31 +0.00    +0.000    26.269
TER
ENDMDL
MODEL       99
USER    Run = 99
USER    Cluster Rank = 5
USER    Number of conformations in this cluster = 3
USER  
USER    RMSD from reference structure       = 28.333 A
USER  
USER    Estimated Free Energy of Binding    =  -10.25 kcal/mol  [=(1)+(2)+(3)-(4)]
USER    Estimated Inhibition Constant, Ki   =   30.65 nM (nanomolar)  [Temperature = 298.15 K]
USER    
USER    (1) Final Intermolecular Energy     =  -12.34 kcal/mol
USER        vdW + Hbond + desolv Energy     =  -12.34 kcal/mol
USER        Electrostatic Energy            =   +0.00 kcal/mol
USER    (2) Final Total Internal Energy     =   -1.37 kcal/mol
USER    (3) Torsional Free Energy           =   +2.09 kcal/mol
USER    (4) Unbound System's Energy  [=(2)] =   -1.37 kcal/mol
USER    
USER    
USER  
USER    DPF = ligand_dock.biased.dpf
USER    NEWDPF move	ligand.pdbqt
USER    NEWDPF about	1.174000 0.164000 -0.352000
USER    NEWDPF tran0	26.263185 -17.237190 -0.424873
USER    NEWDPF axisangle0	0.231735 -0.911453 -0.339929 -179.761726
USER    NEWDPF quaternion0	0.231735 -0.911451 -0.339928 -0.002079
USER    NEWDPF dihe0	59.67 -78.20 -16.27 169.62 153.02 9.53 -9.64 
USER  
USER                              x       y       z    vdW   Elec        q     RMS 
ATOM      1  C   UNL     1      26.434 -16.364  -2.133 -0.47 -0.00    +0.000    28.333
ATOM      2  C   UNL     1      26.305 -15.598  -3.454 -0.51 -0.00    +0.000    28.333
ATOM      3  C   UNL     1      25.132 -17.061  -1.796 -0.64 -0.00    +0.000    28.333
ATOM      4  C   UNL     1      24.990 -17.981  -0.819 -0.71 -0.00    +0.000    28.333
ATOM      5  C   UNL     1      26.157 -18.420   0.037 -0.62 -0.00    +0.000    28.333
ATOM      6  C   UNL     1      23.655 -18.611  -0.647 -0.82 -0.00    +0.000    28.333
ATOM      7  C   UNL     1      22.504 -17.960  -0.868 -0.79 -0.00    +0.000    28.333
ATOM      8  C   UNL     1      21.172 -18.577  -0.700 -0.85 -0.00    +0.000    28.333
ATOM      9  N   UNL     1      21.005 -19.928  -0.246 -0.69 -0.00    +0.000    28.333
ATOM     10  O   UNL     1      20.151 -17.881  -0.944 -2.08 -0.00    +0.000    28.333
ATOM     11  H   UNL     1      21.789 -20.449   0.044 -0.57 -0.00    +0.000    28.333
ATOM     12  O   UNL     1      19.773 -20.488  -0.215 -0.86 -0.00    +0.000    28.333
ATOM     13  H   UNL     1      19.396 -20.491  -1.108 -0.57 -0.00    +0.000    28.333
ATOM     14  C   UNL     1      26.824 -15.406  -1.028 -0.36 -0.00    +0.000    28.333
ATOM     15  O   UNL     1      25.984 -14.543  -0.647 -0.39 -0.00    +0.000    28.333
ATOM     16  C   UNL     1      30.742 -15.528   0.799 -0.10 -0.00    +0.000    28.333
ATOM     17  C   UNL     1      30.358 -16.473  -0.173 -0.14 -0.00    +0.000    28.333
ATOM     18  C   UNL     1      29.089 -16.428  -0.756 -0.22 -0.00    +0.000    28.333
ATOM     19  C   UNL     1      28.166 -15.435  -0.390 -0.23 -0.00    +0.000    28.333
ATOM     20  C   UNL     1      28.540 -14.495   0.586 -0.19 -0.00    +0.000    28.333
ATOM     21  C   UNL     1      29.808 -14.539   1.170 -0.13 -0.00    +0.000    28.333
ATOM     22  C   UNL     1      33.221 -14.999   0.709 -0.03 -0.00    +0.000    28.333
ATOM     23  N   UNL     1      32.061 -15.572   1.404 -0.11 -0.00    +0.000    28.333
ATOM     24  C   UNL     1      32.258 -16.188   2.722 -0.24 -0.00    +0.000    28.333
TER
ENDMDL


AVSFLD: # AVS field file
AVSFLD: #
AVSFLD: # Created by AutoDock
AVSFLD: #
AVSFLD: ndim=2           # number of dimensions in the field
AVSFLD: nspace=1         # number of physical coordinates
AVSFLD: veclen=7         # vector size
AVSFLD: dim1=24          # atoms
AVSFLD: dim2=5           # conformations
AVSFLD: data=Real       # data type (byte,integer,Real,double)
AVSFLD: field=uniform    # field coordinate layout
AVSFLD: label= x y z vdW Elec q RMS
AVSFLD: variable 1 file = ligand_dock.biased.dlg.pdb filetype = ascii offset = 5 stride = 12
AVSFLD: variable 2 file = ligand_dock.biased.dlg.pdb filetype = ascii offset = 6 stride = 12
AVSFLD: variable 3 file = ligand_dock.biased.dlg.pdb filetype = ascii offset = 7 stride = 12
AVSFLD: variable 4 file = ligand_dock.biased.dlg.pdb filetype = ascii offset = 8 stride = 12
AVSFLD: variable 5 file = ligand_dock.biased.dlg.pdb filetype = ascii offset = 9 stride = 12
AVSFLD: variable 6 file = ligand_dock.biased.dlg.pdb filetype = ascii offset = 10 stride = 12
AVSFLD: variable 7 file = ligand_dock.biased.dlg.pdb filetype = ascii offset = 11 stride = 12
AVSFLD: # end of file

>>> Closing the docking parameter file (DPF)...
This docking finished at:			10:14 50" a.m., 11/08/2024


________________________________________________________________________________

autodock4: Successful Completion on "ThinkStation-P620"

Real= 11m 34.42s,  CPU= 11m 34.16s,  System= 0.18s
________________________________________________________________________________

