REMARK  Name = 
REMARK  9 active torsions:
REMARK  status: ('A' for Active; 'I' for Inactive)
REMARK    1  A    between atoms: C_2  and  C_10
REMARK    2  A    between atoms: N_3  and  C_4
REMARK    3  A    between atoms: C_10  and  C_11
REMARK    4  A    between atoms: C_11  and  C_12
REMARK    5  A    between atoms: C_12  and  C_13
REMARK    6  A    between atoms: C_13  and  C_14
REMARK    7  A    between atoms: C_14  and  C_15
REMARK    8  A    between atoms: C_15  and  C_16
REMARK    9  A    between atoms: N_17  and  O_18
REMARK                            x       y       z     vdW  Elec       q    Type
REMARK                         _______ _______ _______ _____ _____    ______ ____
ROOT
ATOM      1  C   UNL     1      -0.673   1.437  -1.738  0.00  0.00     0.000 C 
ENDROOT
BRANCH   1   3
ATOM      2  O   UNL     1      -2.357  -0.133  -2.365  0.00  0.00     0.000 OA
ATOM      3  C   UNL     1      -1.967   0.713  -1.515  0.00  0.00     0.000 C 
ATOM      4  N   UNL     1      -2.749   0.987  -0.342  0.00  0.00     0.000 N 
ATOM      5  H   UNL     1      -2.499   1.762   0.211  0.00  0.00     0.000 HD
BRANCH   4   6
ATOM      6  C   UNL     1      -3.875   0.196   0.072  0.00  0.00     0.000 A 
ATOM      7  C   UNL     1      -3.883  -1.204  -0.077  0.00  0.00     0.000 A 
ATOM      8  C   UNL     1      -4.982  -1.952   0.357  0.00  0.00     0.000 A 
ATOM      9  C   UNL     1      -6.073  -1.315   0.954  0.00  0.00     0.000 A 
ATOM     10  C   UNL     1      -6.063   0.072   1.125  0.00  0.00     0.000 A 
ATOM     11  C   UNL     1      -4.966   0.824   0.694  0.00  0.00     0.000 A 
ATOM     23  CM  UNL     1      -4.974  -0.563   0.521  1.00  0.00     0.000 AC
ENDBRANCH   4   6
ENDBRANCH   1   3
BRANCH   1  12
ATOM     12  C   UNL     1       0.460   0.754  -0.966  0.00  0.00     0.000 C 
BRANCH  12  13
ATOM     13  C   UNL     1       1.794   1.483  -1.185  0.00  0.00     0.000 C 
BRANCH  13  14
ATOM     14  C   UNL     1       2.938   0.880  -0.355  0.00  0.00     0.000 C 
BRANCH  14  15
ATOM     15  C   UNL     1       3.410  -0.479  -0.903  0.00  0.00     0.000 C 
BRANCH  15  16
ATOM     16  C   UNL     1       4.656  -0.998  -0.172  0.00  0.00     0.000 C 
BRANCH  16  17
ATOM     17  C   UNL     1       4.348  -1.390   1.244  0.00  0.00     0.000 C 
ATOM     18  N   UNL     1       4.609  -0.485   2.320  0.00  0.00     0.000 N 
ATOM     19  O   UNL     1       3.828  -2.514   1.481  0.00  0.00     0.000 OA
ATOM     20  H   UNL     1       5.017   0.391   2.132  0.00  0.00     0.000 HD
BRANCH  18  21
ATOM     21  O   UNL     1       4.300  -0.823   3.594  0.00  0.00     0.000 OA
ATOM     22  H   UNL     1       3.909  -1.710   3.607  0.00  0.00     0.000 HD
ENDBRANCH  18  21
ENDBRANCH  16  17
ENDBRANCH  15  16
ENDBRANCH  14  15
ENDBRANCH  13  14
ENDBRANCH  12  13
ENDBRANCH   1  12
TORSDOF 9