          AutoDock 4.2 Release 4.2.6   
         (C) 1989-2012 The Scripps Research Institute
        AutoDock comes with ABSOLUTELY NO WARRANTY.
        AutoDock is free software, and you are welcome
        to redistribute it under certain conditions;
        for details type 'autodock4 -C'

                     main.cc  $Revision: 1.213 $

                   Compiled on Feb 20 2022 at 09:48:33


This file was created at:			6:39 07" p.m., 11/08/2024
                   on host:		"ThinkStation-P620"
Current Working Directory = "/home/antonio/Documenti/buccheri/IDROSSAMICO HDAC/HDAC 8/P (copia)/Ligand_6"

      ________________________________________________________________

                   SETTING UP DEFAULT PARAMETER LIBRARY
      ________________________________________________________________


Random number generator was seeded with values 358156, 1731087547.
Docking parameter file (DPF) used for this docking:		ligand_dock.biased.dpf
DPF> parameter_file ad4_arom_params.dat

Using read_parameter_library() to try to open and read "ad4_arom_params.dat".

DPF> autodock_parameter_version 4.2       # used by autodock to validate parameter set

	Autodock parameter version 4.2.
DPF> outlev 1                             # diagnostic output level

Output Level = 1  ADT-COMPATIBLE OUTPUT DURING DOCKING.
DPF> intelec                              # calculate internal electrostatics

Electrostatic energies will be calculated for all non-bonds between moving atoms.
DPF> seed pid time                        # seeds for random generator

Random number generator was seeded with values 358156, 1731087547.
DPF> ligand_types A C HD OA N AC

WARNING: pairwise distance, Rij, 0.00, is not a very reasonable value for the equilibrium separation of two atoms! (0.90 Angstroms <= Rij <= 6.00 Angstroms)

Perhaps you meant to use "intnbp_coeffs" instead of "intnbp_r_eps"?

DPF> fld receptor.maps.fld                # grid_data_file

Opening Grid Map Dimensions file:		receptor.maps.fld
Grid Point Spacing =				0.375 Angstroms

Even Number of User-specified Grid Points =	70 x-points
						70 y-points
						70 z-points

Coordinates of Central Grid Point of Maps =	(36.691, 12.592, 124.207)
Macromolecule file used to create Grid Maps =	receptor.pdbqt
Grid Parameter file used to create Grid Maps =	receptor.gpf
Minimum coordinates in grid = (23.566, -0.533, 111.082)
Maximum coordinates in grid = (49.816, 25.717, 137.332)

DPF> map receptor.A.map                   # atom-specific affinity map

DPF> map receptor.C.map                   # atom-specific affinity map

DPF> map receptor.HD.map                  # atom-specific affinity map

DPF> map receptor.OA.biased.map

DPF> map receptor.N.map                   # atom-specific affinity map

DPF> map receptor.AC.biased.map

DPF> elecmap receptor.e.map               # electrostatics map

DPF> desolvmap receptor.d.map             # desolvation map

DPF> move ligand.dum.pdbqt

1,4-interactions will be _ignored_ in the non-bonded internal energy calculation.

Ligand PDBQT file = "ligand.dum.pdbqt"

INPUT LIGAND PDBQT FILE:
________________________

INPUT-LIGAND-PDBQT: REMARK  Name = 
INPUT-LIGAND-PDBQT: REMARK  9 active torsions:
INPUT-LIGAND-PDBQT: REMARK  status: ('A' for Active; 'I' for Inactive)
INPUT-LIGAND-PDBQT: REMARK    1  A    between atoms: C_2  and  C_10
INPUT-LIGAND-PDBQT: REMARK    2  A    between atoms: N_3  and  C_4
INPUT-LIGAND-PDBQT: REMARK    3  A    between atoms: C_10  and  C_11
INPUT-LIGAND-PDBQT: REMARK    4  A    between atoms: C_11  and  C_12
INPUT-LIGAND-PDBQT: REMARK    5  A    between atoms: C_12  and  C_13
INPUT-LIGAND-PDBQT: REMARK    6  A    between atoms: C_13  and  C_14
INPUT-LIGAND-PDBQT: REMARK    7  A    between atoms: C_14  and  C_15
INPUT-LIGAND-PDBQT: REMARK    8  A    between atoms: C_15  and  C_16
INPUT-LIGAND-PDBQT: REMARK    9  A    between atoms: N_17  and  O_18
INPUT-LIGAND-PDBQT: REMARK                            x       y       z     vdW  Elec       q    Type
INPUT-LIGAND-PDBQT: REMARK                         _______ _______ _______ _____ _____    ______ ____
INPUT-LIGAND-PDBQT: ROOT
INPUT-LIGAND-PDBQT: ATOM      1  C   UNL     1      -0.673   1.437  -1.738  0.00  0.00     0.000 C 
INPUT-LIGAND-PDBQT: ENDROOT
INPUT-LIGAND-PDBQT: BRANCH   1   3
INPUT-LIGAND-PDBQT: ATOM      2  O   UNL     1      -2.357  -0.133  -2.365  0.00  0.00     0.000 OA
INPUT-LIGAND-PDBQT: ATOM      3  C   UNL     1      -1.967   0.713  -1.515  0.00  0.00     0.000 C 
INPUT-LIGAND-PDBQT: ATOM      4  N   UNL     1      -2.749   0.987  -0.342  0.00  0.00     0.000 N 
INPUT-LIGAND-PDBQT: ATOM      5  H   UNL     1      -2.499   1.762   0.211  0.00  0.00     0.000 HD
INPUT-LIGAND-PDBQT: BRANCH   4   6
INPUT-LIGAND-PDBQT: ATOM      6  C   UNL     1      -3.875   0.196   0.072  0.00  0.00     0.000 A 
INPUT-LIGAND-PDBQT: ATOM      7  C   UNL     1      -3.883  -1.204  -0.077  0.00  0.00     0.000 A 
INPUT-LIGAND-PDBQT: ATOM      8  C   UNL     1      -4.982  -1.952   0.357  0.00  0.00     0.000 A 
INPUT-LIGAND-PDBQT: ATOM      9  C   UNL     1      -6.073  -1.315   0.954  0.00  0.00     0.000 A 
INPUT-LIGAND-PDBQT: ATOM     10  C   UNL     1      -6.063   0.072   1.125  0.00  0.00     0.000 A 
INPUT-LIGAND-PDBQT: ATOM     11  C   UNL     1      -4.966   0.824   0.694  0.00  0.00     0.000 A 
INPUT-LIGAND-PDBQT: ATOM     23  CM  UNL     1      -4.974  -0.563   0.521  1.00  0.00     0.000 AC
INPUT-LIGAND-PDBQT: ENDBRANCH   4   6
INPUT-LIGAND-PDBQT: ENDBRANCH   1   3
INPUT-LIGAND-PDBQT: BRANCH   1  12
INPUT-LIGAND-PDBQT: ATOM     12  C   UNL     1       0.460   0.754  -0.966  0.00  0.00     0.000 C 
INPUT-LIGAND-PDBQT: BRANCH  12  13
INPUT-LIGAND-PDBQT: ATOM     13  C   UNL     1       1.794   1.483  -1.185  0.00  0.00     0.000 C 
INPUT-LIGAND-PDBQT: BRANCH  13  14
INPUT-LIGAND-PDBQT: ATOM     14  C   UNL     1       2.938   0.880  -0.355  0.00  0.00     0.000 C 
INPUT-LIGAND-PDBQT: BRANCH  14  15
INPUT-LIGAND-PDBQT: ATOM     15  C   UNL     1       3.410  -0.479  -0.903  0.00  0.00     0.000 C 
INPUT-LIGAND-PDBQT: BRANCH  15  16
INPUT-LIGAND-PDBQT: ATOM     16  C   UNL     1       4.656  -0.998  -0.172  0.00  0.00     0.000 C 
INPUT-LIGAND-PDBQT: BRANCH  16  17
INPUT-LIGAND-PDBQT: ATOM     17  C   UNL     1       4.348  -1.390   1.244  0.00  0.00     0.000 C 
INPUT-LIGAND-PDBQT: ATOM     18  N   UNL     1       4.609  -0.485   2.320  0.00  0.00     0.000 N 
INPUT-LIGAND-PDBQT: ATOM     19  O   UNL     1       3.828  -2.514   1.481  0.00  0.00     0.000 OA
INPUT-LIGAND-PDBQT: ATOM     20  H   UNL     1       5.017   0.391   2.132  0.00  0.00     0.000 HD
INPUT-LIGAND-PDBQT: BRANCH  18  21
INPUT-LIGAND-PDBQT: ATOM     21  O   UNL     1       4.300  -0.823   3.594  0.00  0.00     0.000 OA
INPUT-LIGAND-PDBQT: ATOM     22  H   UNL     1       3.909  -1.710   3.607  0.00  0.00     0.000 HD
INPUT-LIGAND-PDBQT: ENDBRANCH  18  21
INPUT-LIGAND-PDBQT: ENDBRANCH  16  17
INPUT-LIGAND-PDBQT: ENDBRANCH  15  16
INPUT-LIGAND-PDBQT: ENDBRANCH  14  15
INPUT-LIGAND-PDBQT: ENDBRANCH  13  14
INPUT-LIGAND-PDBQT: ENDBRANCH  12  13
INPUT-LIGAND-PDBQT: ENDBRANCH   1  12
INPUT-LIGAND-PDBQT: TORSDOF 9________________________________________________________________________________

Total charge on ligand                               =	+0.000 e
REMARK  Name = 
REMARK  9 active torsions:
REMARK  status: ('A' for Active; 'I' for Inactive)
REMARK    1  A    between atoms: C_2  and  C_10
REMARK    2  A    between atoms: N_3  and  C_4
REMARK    3  A    between atoms: C_10  and  C_11
REMARK    4  A    between atoms: C_11  and  C_12
REMARK    5  A    between atoms: C_12  and  C_13
REMARK    6  A    between atoms: C_13  and  C_14
REMARK    7  A    between atoms: C_14  and  C_15
REMARK    8  A    between atoms: C_15  and  C_16
REMARK    9  A    between atoms: N_17  and  O_18
REMARK                            x       y       z     vdW  Elec       q    Type
REMARK                         _______ _______ _______ _____ _____    ______ ____


Number of Rotatable Bonds in Small Molecule =	9 torsions
Number of atoms in ligand:  23

Number of non-hydrogen atoms in ligand:  20

Number of vibrational degrees of freedom of ligand:  63


Number of torsional degrees of freedom = 9
Estimated loss of torsional free energy upon binding = +2.6847 kcal/mol


DPF> about -0.037 -0.159 0.371            # small molecule center

Small molecule center of rotation =	(-0.037, -0.159, +0.371)

DPF> tran0 random                         # initial coordinates/A or random

Initial translation =			(45.353, 11.262, 133.624) Angstroms
DPF> quaternion0 random                   # initial orientation

Each run will begin with a new, random initial orientation.
Initial quaternion,  (x,y,z,w) =	( 0.659, 0.081, 0.443, 0.602 ),
DPF> dihe0 random                         # initial dihedrals (relative) or random

DPF> torsdof 9                            # torsional degrees of freedom

Number of torsional degrees of freedom = 9
Free energy coefficient for torsional degrees of freedom = 0.2983 as specified in parameter library "ad4_arom_params.dat".

Estimated loss of torsional free energy upon binding = +2.6847 kcal/mol

DPF> rmstol 2.0                           # cluster_tolerance/A

Maximum RMS tolerance for conformational cluster analysis = 2.00 Angstroms
DPF> extnrg 1000.0                        # external grid energy

External grid energy (beyond grid map walls) = 1000.00

DPF> e0max 0.0 10000                      # max initial energy; max number of retries

Using user-specified maximum number of retries for simanneal initialization, 10000 retries.
If the simanneal initial energy is greater than e0max, 0.000,
then a new, random initial state will be created.

DPF> ga_pop_size 150                      # number of individuals in population

A population of 150 individuals will be used
DPF> ga_num_evals 2500000                 # maximum number of energy evaluations

There will be at most 2500000 function evaluations used.
DPF> ga_num_generations 27000             # maximum number of generations

The GA will run for at most 27000 generations.
DPF> ga_elitism 1                         # number of top individuals to survive to next generation

The 1 best will be preserved each GA generation.
DPF> ga_mutation_rate 0.02                # rate of gene mutation

The mutation rate is 0.020000.
DPF> ga_crossover_rate 0.8                # rate of crossover

The crossover rate is 0.800000.
DPF> ga_window_size 10                    # 

The GA's selection window is 10 generations.
DPF> ga_cauchy_alpha 0.0                  # Alpha parameter of Cauchy distribution

The alpha parameter (for the Cauchy distribution) is being set to 0.000000.
DPF> ga_cauchy_beta 1.0                   # Beta parameter Cauchy distribution

The beta parameter (for the Cauchy distribution) is being set to 1.000000.
DPF> set_ga                               # set the above parameters for GA or LGA

DPF> sw_max_its 300                       # iterations of Solis & Wets local search

Solis & Wets algorithms will perform at most 300 iterations.
DPF> sw_max_succ 4                        # consecutive successes before changing rho

Solis & Wets algorithms expand rho every 4 in a row successes.
DPF> sw_max_fail 4                        # consecutive failures before changing rho

Solis & Wets algorithms contract rho every 4 in a row failures.
DPF> sw_rho 1.0                           # size of local search space to sample

rho is set to 1.000000.
DPF> sw_lb_rho 0.01                       # lower bound on rho

rho will never get smaller than 0.010000.
DPF> ls_search_freq 0.06                  # probability of performing local search on individual

Local search will be performed with frequency 0.060000.
DPF> set_psw1                             # set the above pseudo-Solis & Wets parameters

Creating a new Local Search object using the pseudo-Solis-Wets algorithm (pSW1) with the current settings.

DPF> unbound_model bound                  # state of unbound ligand

DPF> ga_run 100                           # do this many hybrid GA-LS runs

centering ligand on specified point: -0.037 -0.159 0.371
Furthest true ligand atom from "about" center is 6.173 Angstroms (maxrad).
Number of requested GA dockings = 100 runs
Unbound model to be used is 'same as bound' [AutoDock 4.2 default].

	BEGINNING GENETIC ALGORITHM DOCKING 1 of 100
Run: 1 Seed: 1434268021 727234352 [ Run 1 of 100 GA/GALS ]
Beginning LAMARCKIAN GENETIC ALGORITHM (LGA), with a maximum of 2500000 energy evaluations.

Final-Value: -13.361


	FINAL GENETIC ALGORITHM DOCKED STATE
	_______________________________________________


Detailed state:  trans 36.511 13.830 122.380 quatxyzw -0.736181 0.293698 0.013708 0.609582 center -0.037 -0.159 0.371 ntor 9 -174.0231 -124.4503 -179.8395 130.9116 -177.2727 61.1615 -41.7833 -143.5077 144.2449
State:	 36.511  13.830 122.380  -0.929  0.370  0.017 104.881   -174.02 -124.45 -179.84  130.91 -177.27   61.16  -41.78 -143.51  144.24

DOCKED: MODEL        1
DOCKED: USER    Run = 1
DOCKED: USER    DPF = ligand_dock.biased.dpf
DOCKED: USER  
DOCKED: USER    Estimated Free Energy of Binding    =   -9.67 kcal/mol  [=(1)+(2)+(3)-(4)]
DOCKED: USER    Estimated Inhibition Constant, Ki   =   81.39 nM (nanomolar)  [Temperature = 298.15 K]
DOCKED: USER    
DOCKED: USER    (1) Final Intermolecular Energy     =  -12.36 kcal/mol
DOCKED: USER        vdW + Hbond + desolv Energy     =  -12.36 kcal/mol
DOCKED: USER        Electrostatic Energy            =   +0.00 kcal/mol
DOCKED: USER    (2) Final Total Internal Energy     =   -1.01 kcal/mol
DOCKED: USER    (3) Torsional Free Energy           =   +2.68 kcal/mol
DOCKED: USER    (4) Unbound System's Energy  [=(2)] =   -1.01 kcal/mol
DOCKED: USER    
DOCKED: USER    
DOCKED: USER    NEWDPF move ligand.dum.pdbqt
DOCKED: USER    NEWDPF about -0.037000 -0.159000 0.371000
DOCKED: USER    NEWDPF tran0 36.511408 13.830468 122.379601
DOCKED: USER    NEWDPF quaternion0 -0.736181 0.293698 0.013708 0.609582
DOCKED: USER    NEWDPF axisangle0 -0.928674 0.370493 0.017292 104.881395
DOCKED: USER    NEWDPF quat0 -0.928674 0.370493 0.017292 104.881395
DOCKED: USER    NEWDPF dihe0 -174.02 -124.45 -179.84 130.91 -177.27 61.16 -41.78 -143.51 144.24 
DOCKED: USER  keepresnum = 1 
DOCKED: USER  
DOCKED: REMARK  Name = 
DOCKED: REMARK  9 active torsions:
DOCKED: REMARK  status: ('A' for Active; 'I' for Inactive)
DOCKED: REMARK    1  A    between atoms: C_2  and  C_10
DOCKED: REMARK    2  A    between atoms: N_3  and  C_4
DOCKED: REMARK    3  A    between atoms: C_10  and  C_11
DOCKED: REMARK    4  A    between atoms: C_11  and  C_12
DOCKED: REMARK    5  A    between atoms: C_12  and  C_13
DOCKED: REMARK    6  A    between atoms: C_13  and  C_14
DOCKED: REMARK    7  A    between atoms: C_14  and  C_15
DOCKED: REMARK    8  A    between atoms: C_15  and  C_16
DOCKED: REMARK    9  A    between atoms: N_17  and  O_18
DOCKED: REMARK                            x       y       z     vdW  Elec       q    Type
DOCKED: REMARK                         _______ _______ _______ _____ _____    ______ ____
DOCKED: USER                              x       y       z     vdW  Elec       q    Type
DOCKED: USER                           _______ _______ _______ _____ _____    ______ ____
DOCKED: ROOT
DOCKED: ATOM      1  C   UNL     1      36.120  15.857 124.151 -0.35 -0.00    +0.000 C 
DOCKED: ENDROOT
DOCKED: BRANCH   1   3
DOCKED: ATOM      2  O   UNL     1      34.011  16.216 123.093 -0.51 -0.00    +0.000 OA
DOCKED: ATOM      3  C   UNL     1      35.266  16.301 123.001 -0.39 -0.00    +0.000 C 
DOCKED: ATOM      4  N   UNL     1      35.880  16.817 121.809 -0.23 -0.00    +0.000 N 
DOCKED: ATOM      5  H   UNL     1      36.854  16.718 121.710 +0.00 -0.00    +0.000 HD
DOCKED: BRANCH   4   6
DOCKED: ATOM      6  C   UNL     1      35.155  17.470 120.754 -0.21 -0.00    +0.000 A 
DOCKED: ATOM      7  C   UNL     1      35.499  17.280 119.402 -0.12 -0.00    +0.000 A 
DOCKED: ATOM      8  C   UNL     1      34.761  17.908 118.393 -0.15 -0.00    +0.000 A 
DOCKED: ATOM      9  C   UNL     1      33.670  18.717 118.722 -0.22 -0.00    +0.000 A 
DOCKED: ATOM     10  C   UNL     1      33.310  18.893 120.060 -0.28 -0.00    +0.000 A 
DOCKED: ATOM     11  C   UNL     1      34.043  18.266 121.072 -0.29 -0.00    +0.000 A 
DOCKED: ATOM     12  CM  UNL     1      34.406  18.089 119.734 +0.00 -0.00    +0.000 AC
DOCKED: ENDBRANCH   4   6
DOCKED: ENDBRANCH   1   3
DOCKED: BRANCH   1  12
DOCKED: ATOM     13  C   UNL     1      37.049  14.720 123.717 -0.34 -0.00    +0.000 C 
DOCKED: BRANCH  12  13
DOCKED: ATOM     14  C   UNL     1      36.354  13.796 122.706 -0.45 -0.00    +0.000 C 
DOCKED: BRANCH  13  14
DOCKED: ATOM     15  C   UNL     1      37.254  13.451 121.509 -0.45 -0.00    +0.000 C 
DOCKED: BRANCH  14  15
DOCKED: ATOM     16  C   UNL     1      37.225  11.951 121.164 -0.53 -0.00    +0.000 C 
DOCKED: BRANCH  15  16
DOCKED: ATOM     17  C   UNL     1      36.380  11.143 122.159 -0.64 -0.00    +0.000 C 
DOCKED: BRANCH  16  17
DOCKED: ATOM     18  C   UNL     1      36.725   9.682 122.126 -0.68 -0.00    +0.000 C 
DOCKED: ATOM     19  N   UNL     1      36.834   8.936 123.341 -0.61 -0.00    +0.000 N 
DOCKED: ATOM     20  O   UNL     1      36.891   9.105 121.017 -2.67 -0.00    +0.000 OA
DOCKED: ATOM     21  H   UNL     1      36.705   9.389 124.205 -0.48 -0.00    +0.000 HD
DOCKED: BRANCH  18  21
DOCKED: ATOM     22  O   UNL     1      37.111   7.611 123.312 -2.24 -0.00    +0.000 OA
DOCKED: ATOM     23  H   UNL     1      37.055   7.249 124.209 -0.51 -0.00    +0.000 HD
DOCKED: ENDBRANCH  18  21
DOCKED: ENDBRANCH  16  17
DOCKED: ENDBRANCH  15  16
DOCKED: ENDBRANCH  14  15
DOCKED: ENDBRANCH  13  14
DOCKED: ENDBRANCH  12  13
DOCKED: ENDBRANCH   1  12
DOCKED: TORSDOF 9DOCKED: TER
DOCKED: ENDMDL
________________________________________________________________________________


	BEGINNING GENETIC ALGORITHM DOCKING 2 of 100
Run: 2 Seed: 1782344443 964898572 [ Run 2 of 100 GA/GALS ]
Beginning LAMARCKIAN GENETIC ALGORITHM (LGA), with a maximum of 2500000 energy evaluations.

Final-Value: -13.147


	FINAL GENETIC ALGORITHM DOCKED STATE
	_______________________________________________


Detailed state:  trans 37.495 10.688 124.303 quatxyzw 0.058170 -0.130015 0.384578 -0.912037 center -0.037 -0.159 0.371 ntor 9 4.1758 174.3877 -129.0697 -127.6810 -47.4811 92.3027 130.5165 33.1275 10.6649
State:	 37.495  10.688 124.303   0.142 -0.317  0.938 -48.423      4.18  174.39 -129.07 -127.68  -47.48   92.30  130.52   33.13   10.66

DOCKED: MODEL        2
DOCKED: USER    Run = 2
DOCKED: USER    DPF = ligand_dock.biased.dpf
DOCKED: USER  
DOCKED: USER    Estimated Free Energy of Binding    =   -9.06 kcal/mol  [=(1)+(2)+(3)-(4)]
DOCKED: USER    Estimated Inhibition Constant, Ki   =  228.46 nM (nanomolar)  [Temperature = 298.15 K]
DOCKED: USER    
DOCKED: USER    (1) Final Intermolecular Energy     =  -11.74 kcal/mol
DOCKED: USER        vdW + Hbond + desolv Energy     =  -11.74 kcal/mol
DOCKED: USER        Electrostatic Energy            =   +0.00 kcal/mol
DOCKED: USER    (2) Final Total Internal Energy     =   -1.40 kcal/mol
DOCKED: USER    (3) Torsional Free Energy           =   +2.68 kcal/mol
DOCKED: USER    (4) Unbound System's Energy  [=(2)] =   -1.40 kcal/mol
DOCKED: USER    
DOCKED: USER    
DOCKED: USER    NEWDPF move ligand.dum.pdbqt
DOCKED: USER    NEWDPF about -0.037000 -0.159000 0.371000
DOCKED: USER    NEWDPF tran0 37.495497 10.687915 124.303105
DOCKED: USER    NEWDPF quaternion0 0.058170 -0.130015 0.384578 -0.912037
DOCKED: USER    NEWDPF axisangle0 0.141842 -0.317027 0.937750 -48.423199
DOCKED: USER    NEWDPF quat0 0.141842 -0.317027 0.937750 -48.423199
DOCKED: USER    NEWDPF dihe0 4.18 174.39 -129.07 -127.68 -47.48 92.30 130.52 33.13 10.66 
DOCKED: USER  keepresnum = 1 
DOCKED: USER  
DOCKED: REMARK  Name = 
DOCKED: REMARK  9 active torsions:
DOCKED: REMARK  status: ('A' for Active; 'I' for Inactive)
DOCKED: REMARK    1  A    between atoms: C_2  and  C_10
DOCKED: REMARK    2  A    between atoms: N_3  and  C_4
DOCKED: REMARK    3  A    between atoms: C_10  and  C_11
DOCKED: REMARK    4  A    between atoms: C_11  and  C_12
DOCKED: REMARK    5  A    between atoms: C_12  and  C_13
DOCKED: REMARK    6  A    between atoms: C_13  and  C_14
DOCKED: REMARK    7  A    between atoms: C_14  and  C_15
DOCKED: REMARK    8  A    between atoms: C_15  and  C_16
DOCKED: REMARK    9  A    between atoms: N_17  and  O_18
DOCKED: REMARK                            x       y       z     vdW  Elec       q    Type
DOCKED: REMARK                         _______ _______ _______ _____ _____    ______ ____
DOCKED: USER                              x       y       z     vdW  Elec       q    Type
DOCKED: USER                           _______ _______ _______ _____ _____    ______ ____
DOCKED: ROOT
DOCKED: ATOM      1  C   UNL     1      36.331  11.799 122.110 -0.60 -0.00    +0.000 C 
DOCKED: ENDROOT
DOCKED: BRANCH   1   3
DOCKED: ATOM      2  O   UNL     1      36.789   9.530 121.529 -2.15 -0.00    +0.000 OA
DOCKED: ATOM      3  C   UNL     1      35.940  10.360 121.955 -0.47 -0.00    +0.000 C 
DOCKED: ATOM      4  N   UNL     1      34.608   9.939 122.290 -0.57 -0.00    +0.000 N 
DOCKED: ATOM      5  H   UNL     1      33.932  10.634 122.461 -0.27 -0.00    +0.000 HD
DOCKED: BRANCH   4   6
DOCKED: ATOM      6  C   UNL     1      34.205   8.564 122.389 -0.61 -0.00    +0.000 A 
DOCKED: ATOM      7  C   UNL     1      33.672   7.873 121.284 -0.58 -0.00    +0.000 A 
DOCKED: ATOM      8  C   UNL     1      33.310   6.527 121.402 -0.43 -0.00    +0.000 A 
DOCKED: ATOM      9  C   UNL     1      33.489   5.856 122.615 -0.59 -0.00    +0.000 A 
DOCKED: ATOM     10  C   UNL     1      34.037   6.529 123.710 -0.66 -0.00    +0.000 A 
DOCKED: ATOM     11  C   UNL     1      34.401   7.874 123.597 -0.54 -0.00    +0.000 A 
DOCKED: ATOM     12  CM  UNL     1      33.852   7.204 122.500 +0.00 -0.00    +0.000 AC
DOCKED: ENDBRANCH   4   6
DOCKED: ENDBRANCH   1   3
DOCKED: BRANCH   1  12
DOCKED: ATOM     13  C   UNL     1      37.432  11.941 123.166 -0.50 -0.00    +0.000 C 
DOCKED: BRANCH  12  13
DOCKED: ATOM     14  C   UNL     1      37.661  13.416 123.528 -0.39 -0.00    +0.000 C 
DOCKED: BRANCH  13  14
DOCKED: ATOM     15  C   UNL     1      37.921  14.293 122.293 -0.45 -0.00    +0.000 C 
DOCKED: BRANCH  14  15
DOCKED: ATOM     16  C   UNL     1      37.794  15.796 122.600 -0.32 -0.00    +0.000 C 
DOCKED: BRANCH  15  16
DOCKED: ATOM     17  C   UNL     1      39.047  16.580 122.188 -0.22 -0.00    +0.000 C 
DOCKED: BRANCH  16  17
DOCKED: ATOM     18  C   UNL     1      40.276  16.071 122.882 -0.31 -0.00    +0.000 C 
DOCKED: ATOM     19  N   UNL     1      40.904  14.860 122.451 -0.49 -0.00    +0.000 N 
DOCKED: ATOM     20  O   UNL     1      40.775  16.732 123.833 -0.60 -0.00    +0.000 OA
DOCKED: ATOM     21  H   UNL     1      40.511  14.345 121.710 -0.03 -0.00    +0.000 HD
DOCKED: BRANCH  18  21
DOCKED: ATOM     22  O   UNL     1      42.032  14.417 123.054 -0.90 -0.00    +0.000 OA
DOCKED: ATOM     23  H   UNL     1      42.249  14.997 123.799 -0.07 +0.00    +0.000 HD
DOCKED: ENDBRANCH  18  21
DOCKED: ENDBRANCH  16  17
DOCKED: ENDBRANCH  15  16
DOCKED: ENDBRANCH  14  15
DOCKED: ENDBRANCH  13  14
DOCKED: ENDBRANCH  12  13
DOCKED: ENDBRANCH   1  12
DOCKED: TORSDOF 9DOCKED: TER
DOCKED: ENDMDL
________________________________________________________________________________


	BEGINNING GENETIC ALGORITHM DOCKING 3 of 100
Run: 3 Seed: 1844129587 495330286 [ Run 3 of 100 GA/GALS ]
Beginning LAMARCKIAN GENETIC ALGORITHM (LGA), with a maximum of 2500000 energy evaluations.

Final-Value: -13.110


	FINAL GENETIC ALGORITHM DOCKED STATE
	_______________________________________________


Detailed state:  trans 36.103 15.529 120.958 quatxyzw -0.789335 0.281419 0.202880 0.506550 center -0.037 -0.159 0.371 ntor 9 14.2627 -133.2385 -145.8304 84.7582 -72.2242 73.2097 -28.5740 -45.8844 50.7313
State:	 36.103  15.529 120.958  -0.915  0.326  0.235 119.131     14.26 -133.24 -145.83   84.76  -72.22   73.21  -28.57  -45.88   50.73

DOCKED: MODEL        3
DOCKED: USER    Run = 3
DOCKED: USER    DPF = ligand_dock.biased.dpf
DOCKED: USER  
DOCKED: USER    Estimated Free Energy of Binding    =   -9.17 kcal/mol  [=(1)+(2)+(3)-(4)]
DOCKED: USER    Estimated Inhibition Constant, Ki   =  189.05 nM (nanomolar)  [Temperature = 298.15 K]
DOCKED: USER    
DOCKED: USER    (1) Final Intermolecular Energy     =  -11.86 kcal/mol
DOCKED: USER        vdW + Hbond + desolv Energy     =  -11.86 kcal/mol
DOCKED: USER        Electrostatic Energy            =   +0.00 kcal/mol
DOCKED: USER    (2) Final Total Internal Energy     =   -1.25 kcal/mol
DOCKED: USER    (3) Torsional Free Energy           =   +2.68 kcal/mol
DOCKED: USER    (4) Unbound System's Energy  [=(2)] =   -1.25 kcal/mol
DOCKED: USER    
DOCKED: USER    
DOCKED: USER    NEWDPF move ligand.dum.pdbqt
DOCKED: USER    NEWDPF about -0.037000 -0.159000 0.371000
DOCKED: USER    NEWDPF tran0 36.103299 15.529291 120.957543
DOCKED: USER    NEWDPF quaternion0 -0.789335 0.281419 0.202880 0.506550
DOCKED: USER    NEWDPF axisangle0 -0.915479 0.326392 0.235302 119.131420
DOCKED: USER    NEWDPF quat0 -0.915479 0.326392 0.235302 119.131420
DOCKED: USER    NEWDPF dihe0 14.26 -133.24 -145.83 84.76 -72.22 73.21 -28.57 -45.88 50.73 
DOCKED: USER  keepresnum = 1 
DOCKED: USER  
DOCKED: REMARK  Name = 
DOCKED: REMARK  9 active torsions:
DOCKED: REMARK  status: ('A' for Active; 'I' for Inactive)
DOCKED: REMARK    1  A    between atoms: C_2  and  C_10
DOCKED: REMARK    2  A    between atoms: N_3  and  C_4
DOCKED: REMARK    3  A    between atoms: C_10  and  C_11
DOCKED: REMARK    4  A    between atoms: C_11  and  C_12
DOCKED: REMARK    5  A    between atoms: C_12  and  C_13
DOCKED: REMARK    6  A    between atoms: C_13  and  C_14
DOCKED: REMARK    7  A    between atoms: C_14  and  C_15
DOCKED: REMARK    8  A    between atoms: C_15  and  C_16
DOCKED: REMARK    9  A    between atoms: N_17  and  O_18
DOCKED: REMARK                            x       y       z     vdW  Elec       q    Type
DOCKED: REMARK                         _______ _______ _______ _____ _____    ______ ____
DOCKED: USER                              x       y       z     vdW  Elec       q    Type
DOCKED: USER                           _______ _______ _______ _____ _____    ______ ____
DOCKED: ROOT
DOCKED: ATOM      1  C   UNL     1      36.516  16.864 123.292 -0.30 -0.00    +0.000 C 
DOCKED: ENDROOT
DOCKED: BRANCH   1   3
DOCKED: ATOM      2  O   UNL     1      35.553  19.012 122.898 -0.29 -0.00    +0.000 OA
DOCKED: ATOM      3  C   UNL     1      35.571  17.790 122.585 -0.29 -0.00    +0.000 C 
DOCKED: ATOM      4  N   UNL     1      34.699  17.282 121.564 -0.29 -0.00    +0.000 N 
DOCKED: ATOM      5  H   UNL     1      34.624  16.305 121.462 +0.01 -0.00    +0.000 HD
DOCKED: BRANCH   4   6
DOCKED: ATOM      6  C   UNL     1      33.927  18.114 120.683 -0.28 -0.00    +0.000 A 
DOCKED: ATOM      7  C   UNL     1      32.529  18.217 120.808 -0.36 -0.00    +0.000 A 
DOCKED: ATOM      8  C   UNL     1      31.805  19.054 119.952 -0.40 -0.00    +0.000 A 
DOCKED: ATOM      9  C   UNL     1      32.469  19.805 118.978 -0.25 -0.00    +0.000 A 
DOCKED: ATOM     10  C   UNL     1      33.859  19.724 118.862 -0.19 -0.00    +0.000 A 
DOCKED: ATOM     11  C   UNL     1      34.587  18.890 119.716 -0.22 -0.00    +0.000 A 
DOCKED: ATOM     12  CM  UNL     1      33.196  18.968 119.833 +0.00 -0.00    +0.000 AC
DOCKED: ENDBRANCH   4   6
DOCKED: ENDBRANCH   1   3
DOCKED: BRANCH   1  12
DOCKED: ATOM     13  C   UNL     1      37.072  15.823 122.315 -0.30 -0.00    +0.000 C 
DOCKED: BRANCH  12  13
DOCKED: ATOM     14  C   UNL     1      36.916  14.402 122.877 -0.47 -0.00    +0.000 C 
DOCKED: BRANCH  13  14
DOCKED: ATOM     15  C   UNL     1      36.690  13.355 121.775 -0.37 -0.00    +0.000 C 
DOCKED: BRANCH  14  15
DOCKED: ATOM     16  C   UNL     1      37.326  11.995 122.117 -0.49 -0.00    +0.000 C 
DOCKED: BRANCH  15  16
DOCKED: ATOM     17  C   UNL     1      36.291  10.983 122.628 -0.69 -0.00    +0.000 C 
DOCKED: BRANCH  16  17
DOCKED: ATOM     18  C   UNL     1      36.719   9.568 122.365 -0.71 -0.00    +0.000 C 
DOCKED: ATOM     19  N   UNL     1      36.712   8.601 123.418 -0.64 -0.00    +0.000 N 
DOCKED: ATOM     20  O   UNL     1      37.058   9.225 121.200 -2.73 -0.00    +0.000 OA
DOCKED: ATOM     21  H   UNL     1      36.449   8.872 124.327 -0.32 -0.00    +0.000 HD
DOCKED: BRANCH  18  21
DOCKED: ATOM     22  O   UNL     1      37.064   7.316 123.175 -2.12 -0.00    +0.000 OA
DOCKED: ATOM     23  H   UNL     1      37.503   7.259 122.313 -0.16 -0.00    +0.000 HD
DOCKED: ENDBRANCH  18  21
DOCKED: ENDBRANCH  16  17
DOCKED: ENDBRANCH  15  16
DOCKED: ENDBRANCH  14  15
DOCKED: ENDBRANCH  13  14
DOCKED: ENDBRANCH  12  13
DOCKED: ENDBRANCH   1  12
DOCKED: TORSDOF 9DOCKED: TER
DOCKED: ENDMDL
________________________________________________________________________________


	BEGINNING GENETIC ALGORITHM DOCKING 4 of 100
Run: 4 Seed: 1200378452 216679616 [ Run 4 of 100 GA/GALS ]
Beginning LAMARCKIAN GENETIC ALGORITHM (LGA), with a maximum of 2500000 energy evaluations.

Final-Value: -13.853


	FINAL GENETIC ALGORITHM DOCKED STATE
	_______________________________________________


Detailed state:  trans 36.958 14.093 121.601 quatxyzw 0.402330 -0.914500 -0.024232 -0.035122 center -0.037 -0.159 0.371 ntor 9 8.1125 -129.8374 -137.1492 -172.9949 150.4207 -151.5589 62.5115 -66.8018 -125.1222
State:	 36.958  14.093 121.601   0.403 -0.915 -0.024 -175.974      8.11 -129.84 -137.15 -172.99  150.42 -151.56   62.51  -66.80 -125.12

DOCKED: MODEL        4
DOCKED: USER    Run = 4
DOCKED: USER    DPF = ligand_dock.biased.dpf
DOCKED: USER  
DOCKED: USER    Estimated Free Energy of Binding    =   -9.67 kcal/mol  [=(1)+(2)+(3)-(4)]
DOCKED: USER    Estimated Inhibition Constant, Ki   =   81.90 nM (nanomolar)  [Temperature = 298.15 K]
DOCKED: USER    
DOCKED: USER    (1) Final Intermolecular Energy     =  -12.35 kcal/mol
DOCKED: USER        vdW + Hbond + desolv Energy     =  -12.35 kcal/mol
DOCKED: USER        Electrostatic Energy            =   +0.00 kcal/mol
DOCKED: USER    (2) Final Total Internal Energy     =   -1.50 kcal/mol
DOCKED: USER    (3) Torsional Free Energy           =   +2.68 kcal/mol
DOCKED: USER    (4) Unbound System's Energy  [=(2)] =   -1.50 kcal/mol
DOCKED: USER    
DOCKED: USER    
DOCKED: USER    NEWDPF move ligand.dum.pdbqt
DOCKED: USER    NEWDPF about -0.037000 -0.159000 0.371000
DOCKED: USER    NEWDPF tran0 36.957578 14.092508 121.600877
DOCKED: USER    NEWDPF quaternion0 0.402330 -0.914500 -0.024232 -0.035122
DOCKED: USER    NEWDPF axisangle0 0.402578 -0.915064 -0.024247 -175.974472
DOCKED: USER    NEWDPF quat0 0.402578 -0.915064 -0.024247 -175.974472
DOCKED: USER    NEWDPF dihe0 8.11 -129.84 -137.15 -172.99 150.42 -151.56 62.51 -66.80 -125.12 
DOCKED: USER  keepresnum = 1 
DOCKED: USER  
DOCKED: REMARK  Name = 
DOCKED: REMARK  9 active torsions:
DOCKED: REMARK  status: ('A' for Active; 'I' for Inactive)
DOCKED: REMARK    1  A    between atoms: C_2  and  C_10
DOCKED: REMARK    2  A    between atoms: N_3  and  C_4
DOCKED: REMARK    3  A    between atoms: C_10  and  C_11
DOCKED: REMARK    4  A    between atoms: C_11  and  C_12
DOCKED: REMARK    5  A    between atoms: C_12  and  C_13
DOCKED: REMARK    6  A    between atoms: C_13  and  C_14
DOCKED: REMARK    7  A    between atoms: C_14  and  C_15
DOCKED: REMARK    8  A    between atoms: C_15  and  C_16
DOCKED: REMARK    9  A    between atoms: N_17  and  O_18
DOCKED: REMARK                            x       y       z     vdW  Elec       q    Type
DOCKED: REMARK                         _______ _______ _______ _____ _____    ______ ____
DOCKED: USER                              x       y       z     vdW  Elec       q    Type
DOCKED: USER                           _______ _______ _______ _____ _____    ______ ____
DOCKED: ROOT
DOCKED: ATOM      1  C   UNL     1      36.391  15.605 123.790 -0.41 -0.00    +0.000 C 
DOCKED: ENDROOT
DOCKED: BRANCH   1   3
DOCKED: ATOM      2  O   UNL     1      38.338  16.921 124.203 -0.28 -0.00    +0.000 OA
DOCKED: ATOM      3  C   UNL     1      37.776  16.074 123.457 -0.31 -0.00    +0.000 C 
DOCKED: ATOM      4  N   UNL     1      38.448  15.559 122.297 -0.28 -0.00    +0.000 N 
DOCKED: ATOM      5  H   UNL     1      37.923  15.030 121.654 +0.00 -0.00    +0.000 HD
DOCKED: BRANCH   4   6
DOCKED: ATOM      6  C   UNL     1      39.842  15.772 122.020 -0.28 -0.00    +0.000 A 
DOCKED: ATOM      7  C   UNL     1      40.268  16.760 121.111 -0.14 -0.00    +0.000 A 
DOCKED: ATOM      8  C   UNL     1      41.632  16.961 120.879 -0.14 -0.00    +0.000 A 
DOCKED: ATOM      9  C   UNL     1      42.581  16.193 121.557 -0.29 -0.00    +0.000 A 
DOCKED: ATOM     10  C   UNL     1      42.167  15.225 122.477 -0.44 -0.00    +0.000 A 
DOCKED: ATOM     11  C   UNL     1      40.804  15.020 122.714 -0.44 -0.00    +0.000 A 
DOCKED: ATOM     12  CM  UNL     1      41.216  15.988 121.793 +0.00 -0.00    +0.000 AC
DOCKED: ENDBRANCH   4   6
DOCKED: ENDBRANCH   1   3
DOCKED: BRANCH   1  12
DOCKED: ATOM     13  C   UNL     1      36.064  14.321 123.022 -0.42 -0.00    +0.000 C 
DOCKED: BRANCH  12  13
DOCKED: ATOM     14  C   UNL     1      37.124  13.239 123.280 -0.58 -0.00    +0.000 C 
DOCKED: BRANCH  13  14
DOCKED: ATOM     15  C   UNL     1      37.811  12.767 121.990 -0.40 -0.00    +0.000 C 
DOCKED: BRANCH  14  15
DOCKED: ATOM     16  C   UNL     1      36.944  11.779 121.189 -0.53 -0.00    +0.000 C 
DOCKED: BRANCH  15  16
DOCKED: ATOM     17  C   UNL     1      36.141  10.841 122.101 -0.60 -0.00    +0.000 C 
DOCKED: BRANCH  16  17
DOCKED: ATOM     18  C   UNL     1      36.738   9.464 122.149 -0.70 -0.00    +0.000 C 
DOCKED: ATOM     19  N   UNL     1      36.935   8.803 123.401 -0.62 -0.00    +0.000 N 
DOCKED: ATOM     20  O   UNL     1      37.039   8.877 121.074 -2.70 -0.00    +0.000 OA
DOCKED: ATOM     21  H   UNL     1      36.701   9.265 124.239 -0.44 -0.00    +0.000 HD
DOCKED: BRANCH  18  21
DOCKED: ATOM     22  O   UNL     1      37.441   7.548 123.445 -2.09 -0.00    +0.000 OA
DOCKED: ATOM     23  H   UNL     1      37.736   7.288 122.559 -0.28 -0.00    +0.000 HD
DOCKED: ENDBRANCH  18  21
DOCKED: ENDBRANCH  16  17
DOCKED: ENDBRANCH  15  16
DOCKED: ENDBRANCH  14  15
DOCKED: ENDBRANCH  13  14
DOCKED: ENDBRANCH  12  13
DOCKED: ENDBRANCH   1  12
DOCKED: TORSDOF 9DOCKED: TER
DOCKED: ENDMDL
________________________________________________________________________________


	BEGINNING GENETIC ALGORITHM DOCKING 5 of 100
Run: 5 Seed: 336979702 1060796298 [ Run 5 of 100 GA/GALS ]
Beginning LAMARCKIAN GENETIC ALGORITHM (LGA), with a maximum of 2500000 energy evaluations.

Final-Value: -13.841


	FINAL GENETIC ALGORITHM DOCKED STATE
	_______________________________________________


Detailed state:  trans 36.396 13.457 123.698 quatxyzw 0.109733 0.361685 -0.669116 -0.639864 center -0.037 -0.159 0.371 ntor 9 -177.4367 92.4184 20.4334 174.3771 99.4334 -35.4994 24.4120 -149.4109 -180.0000
State:	 36.396  13.457 123.698   0.143  0.471 -0.871 -100.437   -177.44   92.42   20.43  174.38   99.43  -35.50   24.41 -149.41 -180.00

DOCKED: MODEL        5
DOCKED: USER    Run = 5
DOCKED: USER    DPF = ligand_dock.biased.dpf
DOCKED: USER  
DOCKED: USER    Estimated Free Energy of Binding    =  -10.38 kcal/mol  [=(1)+(2)+(3)-(4)]
DOCKED: USER    Estimated Inhibition Constant, Ki   =   24.77 nM (nanomolar)  [Temperature = 298.15 K]
DOCKED: USER    
DOCKED: USER    (1) Final Intermolecular Energy     =  -13.06 kcal/mol
DOCKED: USER        vdW + Hbond + desolv Energy     =  -13.06 kcal/mol
DOCKED: USER        Electrostatic Energy            =   +0.00 kcal/mol
DOCKED: USER    (2) Final Total Internal Energy     =   -0.78 kcal/mol
DOCKED: USER    (3) Torsional Free Energy           =   +2.68 kcal/mol
DOCKED: USER    (4) Unbound System's Energy  [=(2)] =   -0.78 kcal/mol
DOCKED: USER    
DOCKED: USER    
DOCKED: USER    NEWDPF move ligand.dum.pdbqt
DOCKED: USER    NEWDPF about -0.037000 -0.159000 0.371000
DOCKED: USER    NEWDPF tran0 36.395619 13.456949 123.697913
DOCKED: USER    NEWDPF quaternion0 0.109733 0.361685 -0.669116 -0.639864
DOCKED: USER    NEWDPF axisangle0 0.142791 0.470645 -0.870692 -100.436570
DOCKED: USER    NEWDPF quat0 0.142791 0.470645 -0.870692 -100.436570
DOCKED: USER    NEWDPF dihe0 -177.44 92.42 20.43 174.38 99.43 -35.50 24.41 -149.41 -180.00 
DOCKED: USER  keepresnum = 1 
DOCKED: USER  
DOCKED: REMARK  Name = 
DOCKED: REMARK  9 active torsions:
DOCKED: REMARK  status: ('A' for Active; 'I' for Inactive)
DOCKED: REMARK    1  A    between atoms: C_2  and  C_10
DOCKED: REMARK    2  A    between atoms: N_3  and  C_4
DOCKED: REMARK    3  A    between atoms: C_10  and  C_11
DOCKED: REMARK    4  A    between atoms: C_11  and  C_12
DOCKED: REMARK    5  A    between atoms: C_12  and  C_13
DOCKED: REMARK    6  A    between atoms: C_13  and  C_14
DOCKED: REMARK    7  A    between atoms: C_14  and  C_15
DOCKED: REMARK    8  A    between atoms: C_15  and  C_16
DOCKED: REMARK    9  A    between atoms: N_17  and  O_18
DOCKED: REMARK                            x       y       z     vdW  Elec       q    Type
DOCKED: REMARK                         _______ _______ _______ _____ _____    ______ ____
DOCKED: USER                              x       y       z     vdW  Elec       q    Type
DOCKED: USER                           _______ _______ _______ _____ _____    ______ ____
DOCKED: ROOT
DOCKED: ATOM      1  C   UNL     1      37.322  15.396 122.031 -0.31 -0.00    +0.000 C 
DOCKED: ENDROOT
DOCKED: BRANCH   1   3
DOCKED: ATOM      2  O   UNL     1      37.801  16.582 124.046 -0.28 -0.00    +0.000 OA
DOCKED: ATOM      3  C   UNL     1      36.919  16.204 123.228 -0.33 -0.00    +0.000 C 
DOCKED: ATOM      4  N   UNL     1      35.538  16.540 123.434 -0.34 -0.00    +0.000 N 
DOCKED: ATOM      5  H   UNL     1      34.864  16.095 122.871 -0.02 -0.00    +0.000 HD
DOCKED: BRANCH   4   6
DOCKED: ATOM      6  C   UNL     1      35.081  17.487 124.414 -0.33 -0.00    +0.000 A 
DOCKED: ATOM      7  C   UNL     1      35.533  18.820 124.412 -0.22 -0.00    +0.000 A 
DOCKED: ATOM      8  C   UNL     1      35.054  19.727 125.362 -0.18 -0.00    +0.000 A 
DOCKED: ATOM      9  C   UNL     1      34.113  19.318 126.311 -0.21 -0.00    +0.000 A 
DOCKED: ATOM     10  C   UNL     1      33.644  18.002 126.306 -0.32 -0.00    +0.000 A 
DOCKED: ATOM     11  C   UNL     1      34.119  17.092 125.357 -0.40 -0.00    +0.000 A 
DOCKED: ATOM     12  CM  UNL     1      34.591  18.408 125.361 -0.32 -0.00    +0.000 AC
DOCKED: ENDBRANCH   4   6
DOCKED: ENDBRANCH   1   3
DOCKED: BRANCH   1  12
DOCKED: ATOM     13  C   UNL     1      36.749  13.979 122.126 -0.37 -0.00    +0.000 C 
DOCKED: BRANCH  12  13
DOCKED: ATOM     14  C   UNL     1      35.933  13.800 123.415 -0.55 -0.00    +0.000 C 
DOCKED: BRANCH  13  14
DOCKED: ATOM     15  C   UNL     1      35.774  12.324 123.811 -0.50 -0.00    +0.000 C 
DOCKED: BRANCH  14  15
DOCKED: ATOM     16  C   UNL     1      37.042  11.498 123.527 -0.67 -0.00    +0.000 C 
DOCKED: BRANCH  15  16
DOCKED: ATOM     17  C   UNL     1      37.066  10.947 122.094 -0.55 -0.00    +0.000 C 
DOCKED: BRANCH  16  17
DOCKED: ATOM     18  C   UNL     1      37.042   9.446 122.075 -0.63 -0.00    +0.000 C 
DOCKED: ATOM     19  N   UNL     1      37.112   8.704 123.295 -0.65 -0.00    +0.000 N 
DOCKED: ATOM     20  O   UNL     1      36.931   8.838 120.976 -2.67 -0.00    +0.000 OA
DOCKED: ATOM     21  H   UNL     1      37.201   9.181 124.152 -0.57 -0.00    +0.000 HD
DOCKED: BRANCH  18  21
DOCKED: ATOM     22  O   UNL     1      37.055   7.351 123.282 -2.13 -0.00    +0.000 OA
DOCKED: ATOM     23  H   UNL     1      37.075   7.018 124.193 -0.49 -0.00    +0.000 HD
DOCKED: ENDBRANCH  18  21
DOCKED: ENDBRANCH  16  17
DOCKED: ENDBRANCH  15  16
DOCKED: ENDBRANCH  14  15
DOCKED: ENDBRANCH  13  14
DOCKED: ENDBRANCH  12  13
DOCKED: ENDBRANCH   1  12
DOCKED: TORSDOF 9DOCKED: TER
DOCKED: ENDMDL
________________________________________________________________________________


	BEGINNING GENETIC ALGORITHM DOCKING 6 of 100
Run: 6 Seed: 1961889060 369143294 [ Run 6 of 100 GA/GALS ]
Beginning LAMARCKIAN GENETIC ALGORITHM (LGA), with a maximum of 2500000 energy evaluations.

Final-Value: -14.263


	FINAL GENETIC ALGORITHM DOCKED STATE
	_______________________________________________


Detailed state:  trans 35.492 12.372 121.225 quatxyzw -0.706293 -0.684927 -0.141366 -0.109732 center -0.037 -0.159 0.371 ntor 9 4.3408 -9.8575 -95.0467 -134.0054 53.8238 152.2748 105.5676 -162.1589 82.0234
State:	 35.492  12.372 121.225  -0.711 -0.689 -0.142 -167.400      4.34   -9.86  -95.05 -134.01   53.82  152.27  105.57 -162.16   82.02

DOCKED: MODEL        6
DOCKED: USER    Run = 6
DOCKED: USER    DPF = ligand_dock.biased.dpf
DOCKED: USER  
DOCKED: USER    Estimated Free Energy of Binding    =  -10.27 kcal/mol  [=(1)+(2)+(3)-(4)]
DOCKED: USER    Estimated Inhibition Constant, Ki   =   29.54 nM (nanomolar)  [Temperature = 298.15 K]
DOCKED: USER    
DOCKED: USER    (1) Final Intermolecular Energy     =  -12.96 kcal/mol
DOCKED: USER        vdW + Hbond + desolv Energy     =  -12.96 kcal/mol
DOCKED: USER        Electrostatic Energy            =   +0.00 kcal/mol
DOCKED: USER    (2) Final Total Internal Energy     =   -1.31 kcal/mol
DOCKED: USER    (3) Torsional Free Energy           =   +2.68 kcal/mol
DOCKED: USER    (4) Unbound System's Energy  [=(2)] =   -1.31 kcal/mol
DOCKED: USER    
DOCKED: USER    
DOCKED: USER    NEWDPF move ligand.dum.pdbqt
DOCKED: USER    NEWDPF about -0.037000 -0.159000 0.371000
DOCKED: USER    NEWDPF tran0 35.492165 12.372227 121.224877
DOCKED: USER    NEWDPF quaternion0 -0.706293 -0.684927 -0.141366 -0.109732
DOCKED: USER    NEWDPF axisangle0 -0.710584 -0.689088 -0.142225 -167.400254
DOCKED: USER    NEWDPF quat0 -0.710584 -0.689088 -0.142225 -167.400254
DOCKED: USER    NEWDPF dihe0 4.34 -9.86 -95.05 -134.01 53.82 152.27 105.57 -162.16 82.02 
DOCKED: USER  keepresnum = 1 
DOCKED: USER  
DOCKED: REMARK  Name = 
DOCKED: REMARK  9 active torsions:
DOCKED: REMARK  status: ('A' for Active; 'I' for Inactive)
DOCKED: REMARK    1  A    between atoms: C_2  and  C_10
DOCKED: REMARK    2  A    between atoms: N_3  and  C_4
DOCKED: REMARK    3  A    between atoms: C_10  and  C_11
DOCKED: REMARK    4  A    between atoms: C_11  and  C_12
DOCKED: REMARK    5  A    between atoms: C_12  and  C_13
DOCKED: REMARK    6  A    between atoms: C_13  and  C_14
DOCKED: REMARK    7  A    between atoms: C_14  and  C_15
DOCKED: REMARK    8  A    between atoms: C_15  and  C_16
DOCKED: REMARK    9  A    between atoms: N_17  and  O_18
DOCKED: REMARK                            x       y       z     vdW  Elec       q    Type
DOCKED: REMARK                         _______ _______ _______ _____ _____    ______ ____
DOCKED: USER                              x       y       z     vdW  Elec       q    Type
DOCKED: USER                           _______ _______ _______ _____ _____    ______ ____
DOCKED: ROOT
DOCKED: ATOM      1  C   UNL     1      36.968  10.981 123.038 -0.65 -0.00    +0.000 C 
DOCKED: ENDROOT
DOCKED: BRANCH   1   3
DOCKED: ATOM      2  O   UNL     1      36.714   9.362 121.304 -2.44 -0.00    +0.000 OA
DOCKED: ATOM      3  C   UNL     1      36.228   9.874 122.348 -0.69 -0.00    +0.000 C 
DOCKED: ATOM      4  N   UNL     1      34.977   9.409 122.879 -0.58 -0.00    +0.000 N 
DOCKED: ATOM      5  H   UNL     1      34.552   9.936 123.593 -0.48 -0.00    +0.000 HD
DOCKED: BRANCH   4   6
DOCKED: ATOM      6  C   UNL     1      34.309   8.219 122.428 -0.62 -0.00    +0.000 A 
DOCKED: ATOM      7  C   UNL     1      33.944   8.049 121.079 -0.56 -0.00    +0.000 A 
DOCKED: ATOM      8  C   UNL     1      33.317   6.870 120.662 -0.38 -0.00    +0.000 A 
DOCKED: ATOM      9  C   UNL     1      33.063   5.848 121.581 -0.31 -0.00    +0.000 A 
DOCKED: ATOM     10  C   UNL     1      33.442   6.001 122.917 -0.52 -0.00    +0.000 A 
DOCKED: ATOM     11  C   UNL     1      34.070   7.177 123.338 -0.67 -0.00    +0.000 A 
DOCKED: ATOM     12  CM  UNL     1      33.691   7.027 122.001 +0.00 -0.00    +0.000 AC
DOCKED: ENDBRANCH   4   6
DOCKED: ENDBRANCH   1   3
DOCKED: BRANCH   1  12
DOCKED: ATOM     13  C   UNL     1      36.349  12.337 122.685 -0.62 -0.00    +0.000 C 
DOCKED: BRANCH  12  13
DOCKED: ATOM     14  C   UNL     1      37.135  13.027 121.561 -0.49 -0.00    +0.000 C 
DOCKED: BRANCH  13  14
DOCKED: ATOM     15  C   UNL     1      38.432  13.679 122.063 -0.36 -0.00    +0.000 C 
DOCKED: BRANCH  14  15
DOCKED: ATOM     16  C   UNL     1      38.631  15.100 121.504 -0.33 -0.00    +0.000 C 
DOCKED: BRANCH  15  16
DOCKED: ATOM     17  C   UNL     1      40.052  15.317 120.964 -0.26 -0.00    +0.000 C 
DOCKED: BRANCH  16  17
DOCKED: ATOM     18  C   UNL     1      41.080  15.239 122.055 -0.45 -0.00    +0.000 C 
DOCKED: ATOM     19  N   UNL     1      41.735  16.423 122.519 -0.34 -0.00    +0.000 N 
DOCKED: ATOM     20  O   UNL     1      41.344  14.126 122.585 -1.07 +0.00    +0.000 OA
DOCKED: ATOM     21  H   UNL     1      41.528  17.290 122.102 +0.00 -0.00    +0.000 HD
DOCKED: BRANCH  18  21
DOCKED: ATOM     22  O   UNL     1      42.638  16.360 123.527 -1.08 +0.00    +0.000 OA
DOCKED: ATOM     23  H   UNL     1      42.777  15.434 123.778 -0.07 +0.00    +0.000 HD
DOCKED: ENDBRANCH  18  21
DOCKED: ENDBRANCH  16  17
DOCKED: ENDBRANCH  15  16
DOCKED: ENDBRANCH  14  15
DOCKED: ENDBRANCH  13  14
DOCKED: ENDBRANCH  12  13
DOCKED: ENDBRANCH   1  12
DOCKED: TORSDOF 9DOCKED: TER
DOCKED: ENDMDL
________________________________________________________________________________


	BEGINNING GENETIC ALGORITHM DOCKING 7 of 100
Run: 7 Seed: 1939007362 990263662 [ Run 7 of 100 GA/GALS ]
Beginning LAMARCKIAN GENETIC ALGORITHM (LGA), with a maximum of 2500000 energy evaluations.

Final-Value: -12.930


	FINAL GENETIC ALGORITHM DOCKED STATE
	_______________________________________________


Detailed state:  trans 37.362 16.120 123.999 quatxyzw -0.628505 0.508728 -0.359555 -0.465723 center -0.037 -0.159 0.371 ntor 9 -12.6393 122.6749 -151.6222 68.1224 -89.5099 101.0444 -6.7041 -116.3732 -26.1420
State:	 37.362  16.120 123.999  -0.710  0.575 -0.406 -124.486    -12.64  122.67 -151.62   68.12  -89.51  101.04   -6.70 -116.37  -26.14

DOCKED: MODEL        7
DOCKED: USER    Run = 7
DOCKED: USER    DPF = ligand_dock.biased.dpf
DOCKED: USER  
DOCKED: USER    Estimated Free Energy of Binding    =   -9.03 kcal/mol  [=(1)+(2)+(3)-(4)]
DOCKED: USER    Estimated Inhibition Constant, Ki   =  240.77 nM (nanomolar)  [Temperature = 298.15 K]
DOCKED: USER    
DOCKED: USER    (1) Final Intermolecular Energy     =  -11.71 kcal/mol
DOCKED: USER        vdW + Hbond + desolv Energy     =  -11.71 kcal/mol
DOCKED: USER        Electrostatic Energy            =   +0.00 kcal/mol
DOCKED: USER    (2) Final Total Internal Energy     =   -1.22 kcal/mol
DOCKED: USER    (3) Torsional Free Energy           =   +2.68 kcal/mol
DOCKED: USER    (4) Unbound System's Energy  [=(2)] =   -1.22 kcal/mol
DOCKED: USER    
DOCKED: USER    
DOCKED: USER    NEWDPF move ligand.dum.pdbqt
DOCKED: USER    NEWDPF about -0.037000 -0.159000 0.371000
DOCKED: USER    NEWDPF tran0 37.361913 16.119715 123.999270
DOCKED: USER    NEWDPF quaternion0 -0.628505 0.508728 -0.359555 -0.465723
DOCKED: USER    NEWDPF axisangle0 -0.710231 0.574879 -0.406308 -124.485921
DOCKED: USER    NEWDPF quat0 -0.710231 0.574879 -0.406308 -124.485921
DOCKED: USER    NEWDPF dihe0 -12.64 122.67 -151.62 68.12 -89.51 101.04 -6.70 -116.37 -26.14 
DOCKED: USER  keepresnum = 1 
DOCKED: USER  
DOCKED: REMARK  Name = 
DOCKED: REMARK  9 active torsions:
DOCKED: REMARK  status: ('A' for Active; 'I' for Inactive)
DOCKED: REMARK    1  A    between atoms: C_2  and  C_10
DOCKED: REMARK    2  A    between atoms: N_3  and  C_4
DOCKED: REMARK    3  A    between atoms: C_10  and  C_11
DOCKED: REMARK    4  A    between atoms: C_11  and  C_12
DOCKED: REMARK    5  A    between atoms: C_12  and  C_13
DOCKED: REMARK    6  A    between atoms: C_13  and  C_14
DOCKED: REMARK    7  A    between atoms: C_14  and  C_15
DOCKED: REMARK    8  A    between atoms: C_15  and  C_16
DOCKED: REMARK    9  A    between atoms: N_17  and  O_18
DOCKED: REMARK                            x       y       z     vdW  Elec       q    Type
DOCKED: REMARK                         _______ _______ _______ _____ _____    ______ ____
DOCKED: USER                              x       y       z     vdW  Elec       q    Type
DOCKED: USER                           _______ _______ _______ _____ _____    ______ ____
DOCKED: ROOT
DOCKED: ATOM      1  C   UNL     1      34.781  16.199 123.144 -0.43 -0.00    +0.000 C 
DOCKED: ENDROOT
DOCKED: BRANCH   1   3
DOCKED: ATOM      2  O   UNL     1      34.501  18.568 123.186 -0.26 -0.00    +0.000 OA
DOCKED: ATOM      3  C   UNL     1      34.918  17.544 123.792 -0.39 -0.00    +0.000 C 
DOCKED: ATOM      4  N   UNL     1      35.521  17.655 125.091 -0.28 -0.00    +0.000 N 
DOCKED: ATOM      5  H   UNL     1      35.978  16.865 125.459 -0.01 -0.00    +0.000 HD
DOCKED: BRANCH   4   6
DOCKED: ATOM      6  C   UNL     1      35.496  18.853 125.885 -0.19 -0.00    +0.000 A 
DOCKED: ATOM      7  C   UNL     1      36.676  19.562 126.182 -0.12 -0.00    +0.000 A 
DOCKED: ATOM      8  C   UNL     1      36.620  20.738 126.936 -0.06 -0.00    +0.000 A 
DOCKED: ATOM      9  C   UNL     1      35.390  21.224 127.387 -0.05 -0.00    +0.000 A 
DOCKED: ATOM     10  C   UNL     1      34.212  20.538 127.078 -0.11 -0.00    +0.000 A 
DOCKED: ATOM     11  C   UNL     1      34.263  19.363 126.323 -0.20 -0.00    +0.000 A 
DOCKED: ATOM     12  CM  UNL     1      35.443  20.046 126.632 +0.00 -0.00    +0.000 AC
DOCKED: ENDBRANCH   4   6
DOCKED: ENDBRANCH   1   3
DOCKED: BRANCH   1  12
DOCKED: ATOM     13  C   UNL     1      35.957  15.297 123.531 -0.48 -0.00    +0.000 C 
DOCKED: BRANCH  12  13
DOCKED: ATOM     14  C   UNL     1      35.563  13.815 123.458 -0.49 -0.00    +0.000 C 
DOCKED: BRANCH  13  14
DOCKED: ATOM     15  C   UNL     1      36.773  12.877 123.590 -0.61 -0.00    +0.000 C 
DOCKED: BRANCH  14  15
DOCKED: ATOM     16  C   UNL     1      36.363  11.394 123.662 -0.68 -0.00    +0.000 C 
DOCKED: BRANCH  15  16
DOCKED: ATOM     17  C   UNL     1      36.145  10.785 122.270 -0.65 -0.00    +0.000 C 
DOCKED: BRANCH  16  17
DOCKED: ATOM     18  C   UNL     1      36.745   9.413 122.163 -0.70 -0.00    +0.000 C 
DOCKED: ATOM     19  N   UNL     1      36.932   8.610 123.331 -0.67 -0.00    +0.000 N 
DOCKED: ATOM     20  O   UNL     1      37.058   8.956 121.030 -2.71 -0.00    +0.000 OA
DOCKED: ATOM     21  H   UNL     1      36.689   8.970 124.214 -0.45 -0.00    +0.000 HD
DOCKED: BRANCH  18  21
DOCKED: ATOM     22  O   UNL     1      37.441   7.359 123.232 -1.96 -0.00    +0.000 OA
DOCKED: ATOM     23  H   UNL     1      37.440   7.083 122.303 -0.21 -0.00    +0.000 HD
DOCKED: ENDBRANCH  18  21
DOCKED: ENDBRANCH  16  17
DOCKED: ENDBRANCH  15  16
DOCKED: ENDBRANCH  14  15
DOCKED: ENDBRANCH  13  14
DOCKED: ENDBRANCH  12  13
DOCKED: ENDBRANCH   1  12
DOCKED: TORSDOF 9DOCKED: TER
DOCKED: ENDMDL
________________________________________________________________________________


	BEGINNING GENETIC ALGORITHM DOCKING 8 of 100
Run: 8 Seed: 2033983041 1985687551 [ Run 8 of 100 GA/GALS ]
Beginning LAMARCKIAN GENETIC ALGORITHM (LGA), with a maximum of 2500000 energy evaluations.

Final-Value: -14.130


	FINAL GENETIC ALGORITHM DOCKED STATE
	_______________________________________________


Detailed state:  trans 35.412 15.172 122.133 quatxyzw -0.050295 -0.801537 -0.360444 -0.474435 center -0.037 -0.159 0.371 ntor 9 -13.9538 -153.5802 -128.6140 -169.9212 111.8695 -167.8116 158.0207 -66.8505 -81.1048
State:	 35.412  15.172 122.133  -0.057 -0.911 -0.409 -123.355    -13.95 -153.58 -128.61 -169.92  111.87 -167.81  158.02  -66.85  -81.10

DOCKED: MODEL        8
DOCKED: USER    Run = 8
DOCKED: USER    DPF = ligand_dock.biased.dpf
DOCKED: USER  
DOCKED: USER    Estimated Free Energy of Binding    =   -9.65 kcal/mol  [=(1)+(2)+(3)-(4)]
DOCKED: USER    Estimated Inhibition Constant, Ki   =   84.67 nM (nanomolar)  [Temperature = 298.15 K]
DOCKED: USER    
DOCKED: USER    (1) Final Intermolecular Energy     =  -12.33 kcal/mol
DOCKED: USER        vdW + Hbond + desolv Energy     =  -12.33 kcal/mol
DOCKED: USER        Electrostatic Energy            =   +0.00 kcal/mol
DOCKED: USER    (2) Final Total Internal Energy     =   -1.80 kcal/mol
DOCKED: USER    (3) Torsional Free Energy           =   +2.68 kcal/mol
DOCKED: USER    (4) Unbound System's Energy  [=(2)] =   -1.80 kcal/mol
DOCKED: USER    
DOCKED: USER    
DOCKED: USER    NEWDPF move ligand.dum.pdbqt
DOCKED: USER    NEWDPF about -0.037000 -0.159000 0.371000
DOCKED: USER    NEWDPF tran0 35.411779 15.172036 122.133263
DOCKED: USER    NEWDPF quaternion0 -0.050295 -0.801537 -0.360444 -0.474435
DOCKED: USER    NEWDPF axisangle0 -0.057135 -0.910537 -0.409461 -123.354801
DOCKED: USER    NEWDPF quat0 -0.057135 -0.910537 -0.409461 -123.354801
DOCKED: USER    NEWDPF dihe0 -13.95 -153.58 -128.61 -169.92 111.87 -167.81 158.02 -66.85 -81.10 
DOCKED: USER  keepresnum = 1 
DOCKED: USER  
DOCKED: REMARK  Name = 
DOCKED: REMARK  9 active torsions:
DOCKED: REMARK  status: ('A' for Active; 'I' for Inactive)
DOCKED: REMARK    1  A    between atoms: C_2  and  C_10
DOCKED: REMARK    2  A    between atoms: N_3  and  C_4
DOCKED: REMARK    3  A    between atoms: C_10  and  C_11
DOCKED: REMARK    4  A    between atoms: C_11  and  C_12
DOCKED: REMARK    5  A    between atoms: C_12  and  C_13
DOCKED: REMARK    6  A    between atoms: C_13  and  C_14
DOCKED: REMARK    7  A    between atoms: C_14  and  C_15
DOCKED: REMARK    8  A    between atoms: C_15  and  C_16
DOCKED: REMARK    9  A    between atoms: N_17  and  O_18
DOCKED: REMARK                            x       y       z     vdW  Elec       q    Type
DOCKED: REMARK                         _______ _______ _______ _____ _____    ______ ____
DOCKED: USER                              x       y       z     vdW  Elec       q    Type
DOCKED: USER                           _______ _______ _______ _____ _____    ______ ____
DOCKED: ROOT
DOCKED: ATOM      1  C   UNL     1      37.960  15.192 123.084 -0.38 -0.00    +0.000 C 
DOCKED: ENDROOT
DOCKED: BRANCH   1   3
DOCKED: ATOM      2  O   UNL     1      39.379  15.063 121.170 -0.34 -0.00    +0.000 OA
DOCKED: ATOM      3  C   UNL     1      38.198  15.138 121.605 -0.32 -0.00    +0.000 C 
DOCKED: ATOM      4  N   UNL     1      37.084  15.172 120.698 -0.23 -0.00    +0.000 N 
DOCKED: ATOM      5  H   UNL     1      36.197  15.393 121.062 -0.01 -0.00    +0.000 HD
DOCKED: BRANCH   4   6
DOCKED: ATOM      6  C   UNL     1      37.190  14.901 119.291 -0.24 -0.00    +0.000 A 
DOCKED: ATOM      7  C   UNL     1      37.423  15.932 118.361 -0.14 -0.00    +0.000 A 
DOCKED: ATOM      8  C   UNL     1      37.545  15.638 116.999 -0.14 -0.00    +0.000 A 
DOCKED: ATOM      9  C   UNL     1      37.451  14.316 116.555 -0.29 -0.00    +0.000 A 
DOCKED: ATOM     10  C   UNL     1      37.242  13.285 117.475 -0.35 -0.00    +0.000 A 
DOCKED: ATOM     11  C   UNL     1      37.120  13.574 118.837 -0.38 -0.00    +0.000 A 
DOCKED: ATOM     12  CM  UNL     1      37.328  14.608 117.919 +0.00 -0.00    +0.000 AC
DOCKED: ENDBRANCH   4   6
DOCKED: ENDBRANCH   1   3
DOCKED: BRANCH   1  12
DOCKED: ATOM     13  C   UNL     1      36.495  14.877 123.401 -0.47 -0.00    +0.000 C 
DOCKED: BRANCH  12  13
DOCKED: ATOM     14  C   UNL     1      36.327  13.412 123.832 -0.57 -0.00    +0.000 C 
DOCKED: BRANCH  13  14
DOCKED: ATOM     15  C   UNL     1      37.428  12.502 123.266 -0.58 -0.00    +0.000 C 
DOCKED: BRANCH  14  15
DOCKED: ATOM     16  C   UNL     1      37.008  11.814 121.955 -0.58 -0.00    +0.000 C 
DOCKED: BRANCH  15  16
DOCKED: ATOM     17  C   UNL     1      36.013  10.670 122.193 -0.61 -0.00    +0.000 C 
DOCKED: BRANCH  16  17
DOCKED: ATOM     18  C   UNL     1      36.685   9.328 122.147 -0.71 -0.00    +0.000 C 
DOCKED: ATOM     19  N   UNL     1      36.863   8.564 123.342 -0.67 -0.00    +0.000 N 
DOCKED: ATOM     20  O   UNL     1      37.069   8.861 121.040 -2.70 -0.00    +0.000 OA
DOCKED: ATOM     21  H   UNL     1      36.565   8.933 124.205 -0.41 -0.00    +0.000 HD
DOCKED: BRANCH  18  21
DOCKED: ATOM     22  O   UNL     1      37.438   7.340 123.298 -1.95 -0.00    +0.000 OA
DOCKED: ATOM     23  H   UNL     1      37.471   7.032 122.379 -0.24 -0.00    +0.000 HD
DOCKED: ENDBRANCH  18  21
DOCKED: ENDBRANCH  16  17
DOCKED: ENDBRANCH  15  16
DOCKED: ENDBRANCH  14  15
DOCKED: ENDBRANCH  13  14
DOCKED: ENDBRANCH  12  13
DOCKED: ENDBRANCH   1  12
DOCKED: TORSDOF 9DOCKED: TER
DOCKED: ENDMDL
________________________________________________________________________________


	BEGINNING GENETIC ALGORITHM DOCKING 9 of 100
Run: 9 Seed: 707033669 1150841318 [ Run 9 of 100 GA/GALS ]
Beginning LAMARCKIAN GENETIC ALGORITHM (LGA), with a maximum of 2500000 energy evaluations.

Final-Value: -13.611


	FINAL GENETIC ALGORITHM DOCKED STATE
	_______________________________________________


Detailed state:  trans 36.411 11.668 119.647 quatxyzw 0.696943 0.687160 0.087235 -0.185666 center -0.037 -0.159 0.371 ntor 9 2.4081 165.5044 -120.4192 -180.0000 -170.1094 -157.7677 54.3149 -179.8991 73.1630
State:	 36.411  11.668 119.647   0.709  0.699  0.089 -158.600      2.41  165.50 -120.42 -180.00 -170.11 -157.77   54.31 -179.90   73.16

DOCKED: MODEL        9
DOCKED: USER    Run = 9
DOCKED: USER    DPF = ligand_dock.biased.dpf
DOCKED: USER  
DOCKED: USER    Estimated Free Energy of Binding    =   -9.49 kcal/mol  [=(1)+(2)+(3)-(4)]
DOCKED: USER    Estimated Inhibition Constant, Ki   =  109.80 nM (nanomolar)  [Temperature = 298.15 K]
DOCKED: USER    
DOCKED: USER    (1) Final Intermolecular Energy     =  -12.18 kcal/mol
DOCKED: USER        vdW + Hbond + desolv Energy     =  -12.18 kcal/mol
DOCKED: USER        Electrostatic Energy            =   +0.00 kcal/mol
DOCKED: USER    (2) Final Total Internal Energy     =   -1.43 kcal/mol
DOCKED: USER    (3) Torsional Free Energy           =   +2.68 kcal/mol
DOCKED: USER    (4) Unbound System's Energy  [=(2)] =   -1.43 kcal/mol
DOCKED: USER    
DOCKED: USER    
DOCKED: USER    NEWDPF move ligand.dum.pdbqt
DOCKED: USER    NEWDPF about -0.037000 -0.159000 0.371000
DOCKED: USER    NEWDPF tran0 36.410571 11.667792 119.647425
DOCKED: USER    NEWDPF quaternion0 0.696943 0.687160 0.087235 -0.185666
DOCKED: USER    NEWDPF axisangle0 0.709275 0.699319 0.088778 -158.600100
DOCKED: USER    NEWDPF quat0 0.709275 0.699319 0.088778 -158.600100
DOCKED: USER    NEWDPF dihe0 2.41 165.50 -120.42 -180.00 -170.11 -157.77 54.31 -179.90 73.16 
DOCKED: USER  keepresnum = 1 
DOCKED: USER  
DOCKED: REMARK  Name = 
DOCKED: REMARK  9 active torsions:
DOCKED: REMARK  status: ('A' for Active; 'I' for Inactive)
DOCKED: REMARK    1  A    between atoms: C_2  and  C_10
DOCKED: REMARK    2  A    between atoms: N_3  and  C_4
DOCKED: REMARK    3  A    between atoms: C_10  and  C_11
DOCKED: REMARK    4  A    between atoms: C_11  and  C_12
DOCKED: REMARK    5  A    between atoms: C_12  and  C_13
DOCKED: REMARK    6  A    between atoms: C_13  and  C_14
DOCKED: REMARK    7  A    between atoms: C_14  and  C_15
DOCKED: REMARK    8  A    between atoms: C_15  and  C_16
DOCKED: REMARK    9  A    between atoms: N_17  and  O_18
DOCKED: REMARK                            x       y       z     vdW  Elec       q    Type
DOCKED: REMARK                         _______ _______ _______ _____ _____    ______ ____
DOCKED: USER                              x       y       z     vdW  Elec       q    Type
DOCKED: USER                           _______ _______ _______ _____ _____    ______ ____
DOCKED: ROOT
DOCKED: ATOM      1  C   UNL     1      37.067  11.352 122.268 -0.57 -0.00    +0.000 C 
DOCKED: ENDROOT
DOCKED: BRANCH   1   3
DOCKED: ATOM      2  O   UNL     1      37.022   9.218 121.202 -2.73 -0.00    +0.000 OA
DOCKED: ATOM      3  C   UNL     1      36.429  10.030 121.963 -0.60 -0.00    +0.000 C 
DOCKED: ATOM      4  N   UNL     1      35.154   9.701 122.535 -0.60 -0.00    +0.000 N 
DOCKED: ATOM      5  H   UNL     1      34.650  10.415 122.987 -0.28 -0.00    +0.000 HD
DOCKED: BRANCH   4   6
DOCKED: ATOM      6  C   UNL     1      34.570   8.388 122.486 -0.61 -0.00    +0.000 A 
DOCKED: ATOM      7  C   UNL     1      33.854   7.945 121.358 -0.58 -0.00    +0.000 A 
DOCKED: ATOM      8  C   UNL     1      33.317   6.654 121.328 -0.43 -0.00    +0.000 A 
DOCKED: ATOM      9  C   UNL     1      33.500   5.792 122.412 -0.57 -0.00    +0.000 A 
DOCKED: ATOM     10  C   UNL     1      34.229   6.217 123.526 -0.65 -0.00    +0.000 A 
DOCKED: ATOM     11  C   UNL     1      34.768   7.507 123.561 -0.62 -0.00    +0.000 A 
DOCKED: ATOM     12  CM  UNL     1      34.040   7.083 122.446 +0.00 -0.00    +0.000 AC
DOCKED: ENDBRANCH   4   6
DOCKED: ENDBRANCH   1   3
DOCKED: BRANCH   1  12
DOCKED: ATOM     13  C   UNL     1      36.772  12.358 121.151 -0.50 -0.00    +0.000 C 
DOCKED: BRANCH  12  13
DOCKED: ATOM     14  C   UNL     1      38.021  12.613 120.295 -0.45 -0.00    +0.000 C 
DOCKED: BRANCH  13  14
DOCKED: ATOM     15  C   UNL     1      38.321  14.111 120.122 -0.31 -0.00    +0.000 C 
DOCKED: BRANCH  14  15
DOCKED: ATOM     16  C   UNL     1      37.526  14.740 118.964 -0.27 -0.00    +0.000 C 
DOCKED: BRANCH  15  16
DOCKED: ATOM     17  C   UNL     1      36.564  13.739 118.309 -0.41 -0.00    +0.000 C 
DOCKED: BRANCH  16  17
DOCKED: ATOM     18  C   UNL     1      37.000  13.377 116.918 -0.40 -0.00    +0.000 C 
DOCKED: ATOM     19  N   UNL     1      38.191  12.615 116.707 -0.41 -0.00    +0.000 N 
DOCKED: ATOM     20  O   UNL     1      36.292  13.722 115.933 -0.38 -0.00    +0.000 OA
DOCKED: ATOM     21  H   UNL     1      38.743  12.349 117.478 -0.08 -0.00    +0.000 HD
DOCKED: BRANCH  18  21
DOCKED: ATOM     22  O   UNL     1      38.567  12.258 115.457 -0.67 -0.00    +0.000 OA
DOCKED: ATOM     23  H   UNL     1      37.943  12.627 114.814 -0.05 -0.00    +0.000 HD
DOCKED: ENDBRANCH  18  21
DOCKED: ENDBRANCH  16  17
DOCKED: ENDBRANCH  15  16
DOCKED: ENDBRANCH  14  15
DOCKED: ENDBRANCH  13  14
DOCKED: ENDBRANCH  12  13
DOCKED: ENDBRANCH   1  12
DOCKED: TORSDOF 9DOCKED: TER
DOCKED: ENDMDL
________________________________________________________________________________


	BEGINNING GENETIC ALGORITHM DOCKING 10 of 100
Run: 10 Seed: 405922112 524967901 [ Run 10 of 100 GA/GALS ]
Beginning LAMARCKIAN GENETIC ALGORITHM (LGA), with a maximum of 2500000 energy evaluations.

Final-Value: -13.872


	FINAL GENETIC ALGORITHM DOCKED STATE
	_______________________________________________


Detailed state:  trans 37.143 14.169 121.661 quatxyzw 0.153226 0.512633 -0.508480 -0.674668 center -0.037 -0.159 0.371 ntor 9 8.4424 -96.7216 13.7254 169.3256 109.1953 -163.8447 35.2980 -136.6409 136.6675
State:	 37.143  14.169 121.661   0.208  0.695 -0.689 -95.143      8.44  -96.72   13.73  169.33  109.20 -163.84   35.30 -136.64  136.67

DOCKED: MODEL       10
DOCKED: USER    Run = 10
DOCKED: USER    DPF = ligand_dock.biased.dpf
DOCKED: USER  
DOCKED: USER    Estimated Free Energy of Binding    =   -9.75 kcal/mol  [=(1)+(2)+(3)-(4)]
DOCKED: USER    Estimated Inhibition Constant, Ki   =   71.63 nM (nanomolar)  [Temperature = 298.15 K]
DOCKED: USER    
DOCKED: USER    (1) Final Intermolecular Energy     =  -12.43 kcal/mol
DOCKED: USER        vdW + Hbond + desolv Energy     =  -12.43 kcal/mol
DOCKED: USER        Electrostatic Energy            =   +0.00 kcal/mol
DOCKED: USER    (2) Final Total Internal Energy     =   -1.44 kcal/mol
DOCKED: USER    (3) Torsional Free Energy           =   +2.68 kcal/mol
DOCKED: USER    (4) Unbound System's Energy  [=(2)] =   -1.44 kcal/mol
DOCKED: USER    
DOCKED: USER    
DOCKED: USER    NEWDPF move ligand.dum.pdbqt
DOCKED: USER    NEWDPF about -0.037000 -0.159000 0.371000
DOCKED: USER    NEWDPF tran0 37.142651 14.169186 121.660933
DOCKED: USER    NEWDPF quaternion0 0.153226 0.512633 -0.508480 -0.674668
DOCKED: USER    NEWDPF axisangle0 0.207589 0.694511 -0.688884 -95.143220
DOCKED: USER    NEWDPF quat0 0.207589 0.694511 -0.688884 -95.143220
DOCKED: USER    NEWDPF dihe0 8.44 -96.72 13.73 169.33 109.20 -163.84 35.30 -136.64 136.67 
DOCKED: USER  keepresnum = 1 
DOCKED: USER  
DOCKED: REMARK  Name = 
DOCKED: REMARK  9 active torsions:
DOCKED: REMARK  status: ('A' for Active; 'I' for Inactive)
DOCKED: REMARK    1  A    between atoms: C_2  and  C_10
DOCKED: REMARK    2  A    between atoms: N_3  and  C_4
DOCKED: REMARK    3  A    between atoms: C_10  and  C_11
DOCKED: REMARK    4  A    between atoms: C_11  and  C_12
DOCKED: REMARK    5  A    between atoms: C_12  and  C_13
DOCKED: REMARK    6  A    between atoms: C_13  and  C_14
DOCKED: REMARK    7  A    between atoms: C_14  and  C_15
DOCKED: REMARK    8  A    between atoms: C_15  and  C_16
DOCKED: REMARK    9  A    between atoms: N_17  and  O_18
DOCKED: REMARK                            x       y       z     vdW  Elec       q    Type
DOCKED: REMARK                         _______ _______ _______ _____ _____    ______ ____
DOCKED: USER                              x       y       z     vdW  Elec       q    Type
DOCKED: USER                           _______ _______ _______ _____ _____    ______ ____
DOCKED: ROOT
DOCKED: ATOM      1  C   UNL     1      37.385  16.737 120.796 -0.16 -0.00    +0.000 C 
DOCKED: ENDROOT
DOCKED: BRANCH   1   3
DOCKED: ATOM      2  O   UNL     1      37.752  17.461 123.040 -0.19 -0.00    +0.000 OA
DOCKED: ATOM      3  C   UNL     1      36.950  16.943 122.216 -0.21 -0.00    +0.000 C 
DOCKED: ATOM      4  N   UNL     1      35.630  16.552 122.625 -0.30 -0.00    +0.000 N 
DOCKED: ATOM      5  H   UNL     1      35.095  16.007 122.004 -0.02 -0.00    +0.000 HD
DOCKED: BRANCH   4   6
DOCKED: ATOM      6  C   UNL     1      35.045  16.908 123.889 -0.38 -0.00    +0.000 A 
DOCKED: ATOM      7  C   UNL     1      35.026  18.242 124.339 -0.29 -0.00    +0.000 A 
DOCKED: ATOM      8  C   UNL     1      34.428  18.564 125.561 -0.28 -0.00    +0.000 A 
DOCKED: ATOM      9  C   UNL     1      33.834  17.566 126.337 -0.34 -0.00    +0.000 A 
DOCKED: ATOM     10  C   UNL     1      33.830  16.242 125.887 -0.32 -0.00    +0.000 A 
DOCKED: ATOM     11  C   UNL     1      34.425  15.915 124.664 -0.51 -0.00    +0.000 A 
DOCKED: ATOM     12  CM  UNL     1      34.431  17.239 125.113 -0.34 -0.00    +0.000 AC
DOCKED: ENDBRANCH   4   6
DOCKED: ENDBRANCH   1   3
DOCKED: BRANCH   1  12
DOCKED: ATOM     13  C   UNL     1      37.175  15.278 120.381 -0.24 -0.00    +0.000 C 
DOCKED: BRANCH  12  13
DOCKED: ATOM     14  C   UNL     1      37.631  14.318 121.489 -0.39 -0.00    +0.000 C 
DOCKED: BRANCH  13  14
DOCKED: ATOM     15  C   UNL     1      38.174  12.992 120.934 -0.44 -0.00    +0.000 C 
DOCKED: BRANCH  14  15
DOCKED: ATOM     16  C   UNL     1      37.078  11.920 120.794 -0.51 -0.00    +0.000 C 
DOCKED: BRANCH  15  16
DOCKED: ATOM     17  C   UNL     1      36.717  11.280 122.141 -0.63 -0.00    +0.000 C 
DOCKED: BRANCH  16  17
DOCKED: ATOM     18  C   UNL     1      36.925   9.793 122.126 -0.62 -0.00    +0.000 C 
DOCKED: ATOM     19  N   UNL     1      36.942   9.051 123.348 -0.60 -0.00    +0.000 N 
DOCKED: ATOM     20  O   UNL     1      37.057   9.193 121.025 -2.73 -0.00    +0.000 OA
DOCKED: ATOM     21  H   UNL     1      36.841   9.523 124.206 -0.52 -0.00    +0.000 HD
DOCKED: BRANCH  18  21
DOCKED: ATOM     22  O   UNL     1      37.095   7.706 123.334 -2.30 -0.00    +0.000 OA
DOCKED: ATOM     23  H   UNL     1      37.313   7.415 122.436 -0.12 -0.00    +0.000 HD
DOCKED: ENDBRANCH  18  21
DOCKED: ENDBRANCH  16  17
DOCKED: ENDBRANCH  15  16
DOCKED: ENDBRANCH  14  15
DOCKED: ENDBRANCH  13  14
DOCKED: ENDBRANCH  12  13
DOCKED: ENDBRANCH   1  12
DOCKED: TORSDOF 9DOCKED: TER
DOCKED: ENDMDL
________________________________________________________________________________


	BEGINNING GENETIC ALGORITHM DOCKING 11 of 100
Run: 11 Seed: 1971929602 1253479766 [ Run 11 of 100 GA/GALS ]
Beginning LAMARCKIAN GENETIC ALGORITHM (LGA), with a maximum of 2500000 energy evaluations.

Final-Value: -13.004


	FINAL GENETIC ALGORITHM DOCKED STATE
	_______________________________________________


Detailed state:  trans 35.566 11.877 119.862 quatxyzw -0.691266 -0.719309 0.063342 -0.027073 center -0.037 -0.159 0.371 ntor 9 -4.5136 179.9613 -158.7209 -155.4821 172.0344 -180.0000 46.4941 -165.2755 67.9100
State:	 35.566  11.877 119.862  -0.692 -0.720  0.063 -176.897     -4.51  179.96 -158.72 -155.48  172.03 -180.00   46.49 -165.28   67.91

DOCKED: MODEL       11
DOCKED: USER    Run = 11
DOCKED: USER    DPF = ligand_dock.biased.dpf
DOCKED: USER  
DOCKED: USER    Estimated Free Energy of Binding    =   -8.86 kcal/mol  [=(1)+(2)+(3)-(4)]
DOCKED: USER    Estimated Inhibition Constant, Ki   =  318.88 nM (nanomolar)  [Temperature = 298.15 K]
DOCKED: USER    
DOCKED: USER    (1) Final Intermolecular Energy     =  -11.55 kcal/mol
DOCKED: USER        vdW + Hbond + desolv Energy     =  -11.55 kcal/mol
DOCKED: USER        Electrostatic Energy            =   +0.00 kcal/mol
DOCKED: USER    (2) Final Total Internal Energy     =   -1.46 kcal/mol
DOCKED: USER    (3) Torsional Free Energy           =   +2.68 kcal/mol
DOCKED: USER    (4) Unbound System's Energy  [=(2)] =   -1.46 kcal/mol
DOCKED: USER    
DOCKED: USER    
DOCKED: USER    NEWDPF move ligand.dum.pdbqt
DOCKED: USER    NEWDPF about -0.037000 -0.159000 0.371000
DOCKED: USER    NEWDPF tran0 35.566237 11.877425 119.861941
DOCKED: USER    NEWDPF quaternion0 -0.691266 -0.719309 0.063342 -0.027073
DOCKED: USER    NEWDPF axisangle0 -0.691520 -0.719573 0.063365 -176.897237
DOCKED: USER    NEWDPF quat0 -0.691520 -0.719573 0.063365 -176.897237
DOCKED: USER    NEWDPF dihe0 -4.51 179.96 -158.72 -155.48 172.03 -180.00 46.49 -165.28 67.91 
DOCKED: USER  keepresnum = 1 
DOCKED: USER  
DOCKED: REMARK  Name = 
DOCKED: REMARK  9 active torsions:
DOCKED: REMARK  status: ('A' for Active; 'I' for Inactive)
DOCKED: REMARK    1  A    between atoms: C_2  and  C_10
DOCKED: REMARK    2  A    between atoms: N_3  and  C_4
DOCKED: REMARK    3  A    between atoms: C_10  and  C_11
DOCKED: REMARK    4  A    between atoms: C_11  and  C_12
DOCKED: REMARK    5  A    between atoms: C_12  and  C_13
DOCKED: REMARK    6  A    between atoms: C_13  and  C_14
DOCKED: REMARK    7  A    between atoms: C_14  and  C_15
DOCKED: REMARK    8  A    between atoms: C_15  and  C_16
DOCKED: REMARK    9  A    between atoms: N_17  and  O_18
DOCKED: REMARK                            x       y       z     vdW  Elec       q    Type
DOCKED: REMARK                         _______ _______ _______ _____ _____    ______ ____
DOCKED: USER                              x       y       z     vdW  Elec       q    Type
DOCKED: USER                           _______ _______ _______ _____ _____    ______ ____
DOCKED: ROOT
DOCKED: ATOM      1  C   UNL     1      37.442  11.414 121.777 -0.25 -0.00    +0.000 C 
DOCKED: ENDROOT
DOCKED: BRANCH   1   3
DOCKED: ATOM      2  O   UNL     1      37.105   9.246 120.838 -2.69 -0.00    +0.000 OA
DOCKED: ATOM      3  C   UNL     1      36.752  10.084 121.712 -0.47 -0.00    +0.000 C 
DOCKED: ATOM      4  N   UNL     1      35.699   9.777 122.639 -0.60 -0.00    +0.000 N 
DOCKED: ATOM      5  H   UNL     1      35.342  10.508 123.194 -0.12 -0.00    +0.000 HD
DOCKED: BRANCH   4   6
DOCKED: ATOM      6  C   UNL     1      35.135   8.466 122.804 -0.60 -0.00    +0.000 A 
DOCKED: ATOM      7  C   UNL     1      33.762   8.226 122.603 -0.62 -0.00    +0.000 A 
DOCKED: ATOM      8  C   UNL     1      33.244   6.935 122.747 -0.55 -0.00    +0.000 A 
DOCKED: ATOM      9  C   UNL     1      34.089   5.872 123.076 -0.53 -0.00    +0.000 A 
DOCKED: ATOM     10  C   UNL     1      35.457   6.098 123.256 -0.63 -0.00    +0.000 A 
DOCKED: ATOM     11  C   UNL     1      35.980   7.387 123.112 -0.69 -0.00    +0.000 A 
DOCKED: ATOM     12  CM  UNL     1      34.612   7.164 122.933 +0.00 -0.00    +0.000 AC
DOCKED: ENDBRANCH   4   6
DOCKED: ENDBRANCH   1   3
DOCKED: BRANCH   1  12
DOCKED: ATOM     13  C   UNL     1      36.619  12.478 121.045 -0.41 -0.00    +0.000 C 
DOCKED: BRANCH  12  13
DOCKED: ATOM     14  C   UNL     1      37.339  12.954 119.774 -0.47 -0.00    +0.000 C 
DOCKED: BRANCH  13  14
DOCKED: ATOM     15  C   UNL     1      37.269  14.479 119.594 -0.31 -0.00    +0.000 C 
DOCKED: BRANCH  14  15
DOCKED: ATOM     16  C   UNL     1      36.305  14.895 118.469 -0.26 -0.00    +0.000 C 
DOCKED: BRANCH  15  16
DOCKED: ATOM     17  C   UNL     1      35.922  13.714 117.566 -0.37 -0.00    +0.000 C 
DOCKED: BRANCH  16  17
DOCKED: ATOM     18  C   UNL     1      36.916  13.513 116.460 -0.37 -0.00    +0.000 C 
DOCKED: ATOM     19  N   UNL     1      38.125  12.787 116.695 -0.41 -0.00    +0.000 N 
DOCKED: ATOM     20  O   UNL     1      36.668  13.963 115.309 -0.33 -0.00    +0.000 OA
DOCKED: ATOM     21  H   UNL     1      38.318  12.439 117.596 -0.13 -0.00    +0.000 HD
DOCKED: BRANCH  18  21
DOCKED: ATOM     22  O   UNL     1      39.007  12.574 115.690 -0.67 -0.00    +0.000 OA
DOCKED: ATOM     23  H   UNL     1      38.640  12.915 114.861 -0.04 -0.00    +0.000 HD
DOCKED: ENDBRANCH  18  21
DOCKED: ENDBRANCH  16  17
DOCKED: ENDBRANCH  15  16
DOCKED: ENDBRANCH  14  15
DOCKED: ENDBRANCH  13  14
DOCKED: ENDBRANCH  12  13
DOCKED: ENDBRANCH   1  12
DOCKED: TORSDOF 9DOCKED: TER
DOCKED: ENDMDL
________________________________________________________________________________


	BEGINNING GENETIC ALGORITHM DOCKING 12 of 100
Run: 12 Seed: 356380215 464612078 [ Run 12 of 100 GA/GALS ]
Beginning LAMARCKIAN GENETIC ALGORITHM (LGA), with a maximum of 2500000 energy evaluations.

Final-Value: -14.249


	FINAL GENETIC ALGORITHM DOCKED STATE
	_______________________________________________


Detailed state:  trans 36.904 14.294 123.178 quatxyzw 0.097837 0.497140 0.305000 0.806384 center -0.037 -0.159 0.371 ntor 9 -179.0122 68.1788 77.4801 42.0829 -106.2217 155.1396 -29.5106 179.3843 175.7142
State:	 36.904  14.294 123.178   0.165  0.841  0.516 72.512   -179.01   68.18   77.48   42.08 -106.22  155.14  -29.51  179.38  175.71

DOCKED: MODEL       12
DOCKED: USER    Run = 12
DOCKED: USER    DPF = ligand_dock.biased.dpf
DOCKED: USER  
DOCKED: USER    Estimated Free Energy of Binding    =  -10.18 kcal/mol  [=(1)+(2)+(3)-(4)]
DOCKED: USER    Estimated Inhibition Constant, Ki   =   34.25 nM (nanomolar)  [Temperature = 298.15 K]
DOCKED: USER    
DOCKED: USER    (1) Final Intermolecular Energy     =  -12.87 kcal/mol
DOCKED: USER        vdW + Hbond + desolv Energy     =  -12.87 kcal/mol
DOCKED: USER        Electrostatic Energy            =   +0.00 kcal/mol
DOCKED: USER    (2) Final Total Internal Energy     =   -1.38 kcal/mol
DOCKED: USER    (3) Torsional Free Energy           =   +2.68 kcal/mol
DOCKED: USER    (4) Unbound System's Energy  [=(2)] =   -1.38 kcal/mol
DOCKED: USER    
DOCKED: USER    
DOCKED: USER    NEWDPF move ligand.dum.pdbqt
DOCKED: USER    NEWDPF about -0.037000 -0.159000 0.371000
DOCKED: USER    NEWDPF tran0 36.904400 14.293860 123.178375
DOCKED: USER    NEWDPF quaternion0 0.097837 0.497140 0.305000 0.806384
DOCKED: USER    NEWDPF axisangle0 0.165435 0.840626 0.515732 72.511804
DOCKED: USER    NEWDPF quat0 0.165435 0.840626 0.515732 72.511804
DOCKED: USER    NEWDPF dihe0 -179.01 68.18 77.48 42.08 -106.22 155.14 -29.51 179.38 175.71 
DOCKED: USER  keepresnum = 1 
DOCKED: USER  
DOCKED: REMARK  Name = 
DOCKED: REMARK  9 active torsions:
DOCKED: REMARK  status: ('A' for Active; 'I' for Inactive)
DOCKED: REMARK    1  A    between atoms: C_2  and  C_10
DOCKED: REMARK    2  A    between atoms: N_3  and  C_4
DOCKED: REMARK    3  A    between atoms: C_10  and  C_11
DOCKED: REMARK    4  A    between atoms: C_11  and  C_12
DOCKED: REMARK    5  A    between atoms: C_12  and  C_13
DOCKED: REMARK    6  A    between atoms: C_13  and  C_14
DOCKED: REMARK    7  A    between atoms: C_14  and  C_15
DOCKED: REMARK    8  A    between atoms: C_15  and  C_16
DOCKED: REMARK    9  A    between atoms: N_17  and  O_18
DOCKED: REMARK                            x       y       z     vdW  Elec       q    Type
DOCKED: REMARK                         _______ _______ _______ _____ _____    ______ ____
DOCKED: USER                              x       y       z     vdW  Elec       q    Type
DOCKED: USER                           _______ _______ _______ _____ _____    ______ ____
DOCKED: ROOT
DOCKED: ATOM      1  C   UNL     1      39.206  14.841 121.837 -0.39 -0.00    +0.000 C 
DOCKED: ENDROOT
DOCKED: BRANCH   1   3
DOCKED: ATOM      2  O   UNL     1      37.356  15.814 120.687 -0.21 -0.00    +0.000 OA
DOCKED: ATOM      3  C   UNL     1      38.201  14.879 120.725 -0.30 -0.00    +0.000 C 
DOCKED: ATOM      4  N   UNL     1      38.206  13.855 119.718 -0.29 -0.00    +0.000 N 
DOCKED: ATOM      5  H   UNL     1      38.768  13.061 119.868 -0.13 -0.00    +0.000 HD
DOCKED: BRANCH   4   6
DOCKED: ATOM      6  C   UNL     1      37.441  13.923 118.503 -0.33 -0.00    +0.000 A 
DOCKED: ATOM      7  C   UNL     1      38.067  14.004 117.245 -0.25 -0.00    +0.000 A 
DOCKED: ATOM      8  C   UNL     1      37.298  14.044 116.077 -0.32 -0.00    +0.000 A 
DOCKED: ATOM      9  C   UNL     1      35.904  13.990 116.153 -0.29 -0.00    +0.000 A 
DOCKED: ATOM     10  C   UNL     1      35.276  13.888 117.397 -0.28 -0.00    +0.000 A 
DOCKED: ATOM     11  C   UNL     1      36.041  13.847 118.567 -0.21 -0.00    +0.000 A 
DOCKED: ATOM     12  CM  UNL     1      36.671  13.949 117.324 +0.00 -0.00    +0.000 AC
DOCKED: ENDBRANCH   4   6
DOCKED: ENDBRANCH   1   3
DOCKED: BRANCH   1  12
DOCKED: ATOM     13  C   UNL     1      38.593  14.207 123.089 -0.38 -0.00    +0.000 C 
DOCKED: BRANCH  12  13
DOCKED: ATOM     14  C   UNL     1      37.104  13.896 122.876 -0.52 -0.00    +0.000 C 
DOCKED: BRANCH  13  14
DOCKED: ATOM     15  C   UNL     1      36.652  12.637 123.633 -0.64 -0.00    +0.000 C 
DOCKED: BRANCH  14  15
DOCKED: ATOM     16  C   UNL     1      35.844  11.674 122.743 -0.59 -0.00    +0.000 C 
DOCKED: BRANCH  15  16
DOCKED: ATOM     17  C   UNL     1      36.703  11.052 121.633 -0.54 -0.00    +0.000 C 
DOCKED: BRANCH  16  17
DOCKED: ATOM     18  C   UNL     1      36.922   9.583 121.856 -0.61 -0.00    +0.000 C 
DOCKED: ATOM     19  N   UNL     1      36.942   9.046 123.181 -0.65 -0.00    +0.000 N 
DOCKED: ATOM     20  O   UNL     1      37.059   8.816 120.865 -2.69 -0.00    +0.000 OA
DOCKED: ATOM     21  H   UNL     1      36.836   9.648 123.953 -0.46 -0.00    +0.000 HD
DOCKED: BRANCH  18  21
DOCKED: ATOM     22  O   UNL     1      37.104   7.717 123.383 -2.29 -0.00    +0.000 OA
DOCKED: ATOM     23  H   UNL     1      37.078   7.529 124.333 -0.48 -0.00    +0.000 HD
DOCKED: ENDBRANCH  18  21
DOCKED: ENDBRANCH  16  17
DOCKED: ENDBRANCH  15  16
DOCKED: ENDBRANCH  14  15
DOCKED: ENDBRANCH  13  14
DOCKED: ENDBRANCH  12  13
DOCKED: ENDBRANCH   1  12
DOCKED: TORSDOF 9DOCKED: TER
DOCKED: ENDMDL
________________________________________________________________________________


	BEGINNING GENETIC ALGORITHM DOCKING 13 of 100
Run: 13 Seed: 1859021609 1900159903 [ Run 13 of 100 GA/GALS ]
Beginning LAMARCKIAN GENETIC ALGORITHM (LGA), with a maximum of 2500000 energy evaluations.

Final-Value: -13.889


	FINAL GENETIC ALGORITHM DOCKED STATE
	_______________________________________________


Detailed state:  trans 35.974 11.154 124.680 quatxyzw -0.174283 -0.412268 0.405628 -0.796948 center -0.037 -0.159 0.371 ntor 9 1.5211 145.7693 179.8282 -28.9437 -74.2985 -176.5643 -175.8412 -37.6259 8.4441
State:	 35.974  11.154 124.680  -0.289 -0.683  0.672 -74.321      1.52  145.77  179.83  -28.94  -74.30 -176.56 -175.84  -37.63    8.44

DOCKED: MODEL       13
DOCKED: USER    Run = 13
DOCKED: USER    DPF = ligand_dock.biased.dpf
DOCKED: USER  
DOCKED: USER    Estimated Free Energy of Binding    =   -9.60 kcal/mol  [=(1)+(2)+(3)-(4)]
DOCKED: USER    Estimated Inhibition Constant, Ki   =   91.23 nM (nanomolar)  [Temperature = 298.15 K]
DOCKED: USER    
DOCKED: USER    (1) Final Intermolecular Energy     =  -12.29 kcal/mol
DOCKED: USER        vdW + Hbond + desolv Energy     =  -12.29 kcal/mol
DOCKED: USER        Electrostatic Energy            =   +0.00 kcal/mol
DOCKED: USER    (2) Final Total Internal Energy     =   -1.60 kcal/mol
DOCKED: USER    (3) Torsional Free Energy           =   +2.68 kcal/mol
DOCKED: USER    (4) Unbound System's Energy  [=(2)] =   -1.60 kcal/mol
DOCKED: USER    
DOCKED: USER    
DOCKED: USER    NEWDPF move ligand.dum.pdbqt
DOCKED: USER    NEWDPF about -0.037000 -0.159000 0.371000
DOCKED: USER    NEWDPF tran0 35.973819 11.153569 124.680347
DOCKED: USER    NEWDPF quaternion0 -0.174283 -0.412268 0.405628 -0.796948
DOCKED: USER    NEWDPF axisangle0 -0.288526 -0.682509 0.671516 -74.320662
DOCKED: USER    NEWDPF quat0 -0.288526 -0.682509 0.671516 -74.320662
DOCKED: USER    NEWDPF dihe0 1.52 145.77 179.83 -28.94 -74.30 -176.56 -175.84 -37.63 8.44 
DOCKED: USER  keepresnum = 1 
DOCKED: USER  
DOCKED: REMARK  Name = 
DOCKED: REMARK  9 active torsions:
DOCKED: REMARK  status: ('A' for Active; 'I' for Inactive)
DOCKED: REMARK    1  A    between atoms: C_2  and  C_10
DOCKED: REMARK    2  A    between atoms: N_3  and  C_4
DOCKED: REMARK    3  A    between atoms: C_10  and  C_11
DOCKED: REMARK    4  A    between atoms: C_11  and  C_12
DOCKED: REMARK    5  A    between atoms: C_12  and  C_13
DOCKED: REMARK    6  A    between atoms: C_13  and  C_14
DOCKED: REMARK    7  A    between atoms: C_14  and  C_15
DOCKED: REMARK    8  A    between atoms: C_15  and  C_16
DOCKED: REMARK    9  A    between atoms: N_17  and  O_18
DOCKED: REMARK                            x       y       z     vdW  Elec       q    Type
DOCKED: REMARK                         _______ _______ _______ _____ _____    ______ ____
DOCKED: USER                              x       y       z     vdW  Elec       q    Type
DOCKED: USER                           _______ _______ _______ _____ _____    ______ ____
DOCKED: ROOT
DOCKED: ATOM      1  C   UNL     1      36.645  11.744 122.111 -0.61 -0.00    +0.000 C 
DOCKED: ENDROOT
DOCKED: BRANCH   1   3
DOCKED: ATOM      2  O   UNL     1      37.067   9.581 121.198 -2.43 -0.00    +0.000 OA
DOCKED: ATOM      3  C   UNL     1      36.402  10.267 122.021 -0.60 -0.00    +0.000 C 
DOCKED: ATOM      4  N   UNL     1      35.421   9.649 122.867 -0.60 -0.00    +0.000 N 
DOCKED: ATOM      5  H   UNL     1      34.813  10.233 123.375 -0.40 -0.00    +0.000 HD
DOCKED: BRANCH   4   6
DOCKED: ATOM      6  C   UNL     1      35.274   8.227 123.015 -0.61 -0.00    +0.000 A 
DOCKED: ATOM      7  C   UNL     1      34.006   7.630 123.151 -0.63 -0.00    +0.000 A 
DOCKED: ATOM      8  C   UNL     1      33.890   6.242 123.270 -0.67 -0.00    +0.000 A 
DOCKED: ATOM      9  C   UNL     1      35.032   5.437 123.240 -0.45 -0.00    +0.000 A 
DOCKED: ATOM     10  C   UNL     1      36.292   6.020 123.083 -0.54 -0.00    +0.000 A 
DOCKED: ATOM     11  C   UNL     1      36.413   7.408 122.963 -0.70 -0.00    +0.000 A 
DOCKED: ATOM     12  CM  UNL     1      35.152   6.827 123.120 +0.00 -0.00    +0.000 AC
DOCKED: ENDBRANCH   4   6
DOCKED: ENDBRANCH   1   3
DOCKED: BRANCH   1  12
DOCKED: ATOM     13  C   UNL     1      36.747  12.179 123.576 -0.68 -0.00    +0.000 C 
DOCKED: BRANCH  12  13
DOCKED: ATOM     14  C   UNL     1      36.787  13.710 123.696 -0.48 -0.00    +0.000 C 
DOCKED: BRANCH  13  14
DOCKED: ATOM     15  C   UNL     1      36.702  14.410 122.330 -0.38 -0.00    +0.000 C 
DOCKED: BRANCH  14  15
DOCKED: ATOM     16  C   UNL     1      38.066  14.945 121.858 -0.36 -0.00    +0.000 C 
DOCKED: BRANCH  15  16
DOCKED: ATOM     17  C   UNL     1      38.742  14.003 120.852 -0.35 -0.00    +0.000 C 
DOCKED: BRANCH  16  17
DOCKED: ATOM     18  C   UNL     1      37.754  13.425 119.880 -0.42 -0.00    +0.000 C 
DOCKED: ATOM     19  N   UNL     1      36.816  14.271 119.210 -0.30 -0.00    +0.000 N 
DOCKED: ATOM     20  O   UNL     1      37.774  12.189 119.632 -0.54 -0.00    +0.000 OA
DOCKED: ATOM     21  H   UNL     1      36.802  15.236 119.407 -0.01 -0.00    +0.000 HD
DOCKED: BRANCH  18  21
DOCKED: ATOM     22  O   UNL     1      35.948  13.757 118.307 -0.43 -0.00    +0.000 OA
DOCKED: ATOM     23  H   UNL     1      36.075  12.798 118.247 -0.11 -0.00    +0.000 HD
DOCKED: ENDBRANCH  18  21
DOCKED: ENDBRANCH  16  17
DOCKED: ENDBRANCH  15  16
DOCKED: ENDBRANCH  14  15
DOCKED: ENDBRANCH  13  14
DOCKED: ENDBRANCH  12  13
DOCKED: ENDBRANCH   1  12
DOCKED: TORSDOF 9DOCKED: TER
DOCKED: ENDMDL
________________________________________________________________________________


	BEGINNING GENETIC ALGORITHM DOCKING 14 of 100
Run: 14 Seed: 607396136 1860203221 [ Run 14 of 100 GA/GALS ]
Beginning LAMARCKIAN GENETIC ALGORITHM (LGA), with a maximum of 2500000 energy evaluations.

Final-Value: -13.959


	FINAL GENETIC ALGORITHM DOCKED STATE
	_______________________________________________


Detailed state:  trans 38.182 12.274 120.980 quatxyzw 0.403995 -0.397172 0.213602 -0.795875 center -0.037 -0.159 0.371 ntor 9 -161.6440 139.1066 -169.8301 0.7599 -134.2828 69.1750 61.0797 -178.3752 125.9083
State:	 38.182  12.274 120.980   0.667 -0.656  0.353 -74.524   -161.64  139.11 -169.83    0.76 -134.28   69.18   61.08 -178.38  125.91

DOCKED: MODEL       14
DOCKED: USER    Run = 14
DOCKED: USER    DPF = ligand_dock.biased.dpf
DOCKED: USER  
DOCKED: USER    Estimated Free Energy of Binding    =  -10.19 kcal/mol  [=(1)+(2)+(3)-(4)]
DOCKED: USER    Estimated Inhibition Constant, Ki   =   33.79 nM (nanomolar)  [Temperature = 298.15 K]
DOCKED: USER    
DOCKED: USER    (1) Final Intermolecular Energy     =  -12.88 kcal/mol
DOCKED: USER        vdW + Hbond + desolv Energy     =  -12.88 kcal/mol
DOCKED: USER        Electrostatic Energy            =   +0.00 kcal/mol
DOCKED: USER    (2) Final Total Internal Energy     =   -1.08 kcal/mol
DOCKED: USER    (3) Torsional Free Energy           =   +2.68 kcal/mol
DOCKED: USER    (4) Unbound System's Energy  [=(2)] =   -1.08 kcal/mol
DOCKED: USER    
DOCKED: USER    
DOCKED: USER    NEWDPF move ligand.dum.pdbqt
DOCKED: USER    NEWDPF about -0.037000 -0.159000 0.371000
DOCKED: USER    NEWDPF tran0 38.182222 12.274208 120.979748
DOCKED: USER    NEWDPF quaternion0 0.403995 -0.397172 0.213602 -0.795875
DOCKED: USER    NEWDPF axisangle0 0.667251 -0.655983 0.352793 -74.524120
DOCKED: USER    NEWDPF quat0 0.667251 -0.655983 0.352793 -74.524120
DOCKED: USER    NEWDPF dihe0 -161.64 139.11 -169.83 0.76 -134.28 69.18 61.08 -178.38 125.91 
DOCKED: USER  keepresnum = 1 
DOCKED: USER  
DOCKED: REMARK  Name = 
DOCKED: REMARK  9 active torsions:
DOCKED: REMARK  status: ('A' for Active; 'I' for Inactive)
DOCKED: REMARK    1  A    between atoms: C_2  and  C_10
DOCKED: REMARK    2  A    between atoms: N_3  and  C_4
DOCKED: REMARK    3  A    between atoms: C_10  and  C_11
DOCKED: REMARK    4  A    between atoms: C_11  and  C_12
DOCKED: REMARK    5  A    between atoms: C_12  and  C_13
DOCKED: REMARK    6  A    between atoms: C_13  and  C_14
DOCKED: REMARK    7  A    between atoms: C_14  and  C_15
DOCKED: REMARK    8  A    between atoms: C_15  and  C_16
DOCKED: REMARK    9  A    between atoms: N_17  and  O_18
DOCKED: REMARK                            x       y       z     vdW  Elec       q    Type
DOCKED: REMARK                         _______ _______ _______ _____ _____    ______ ____
DOCKED: USER                              x       y       z     vdW  Elec       q    Type
DOCKED: USER                           _______ _______ _______ _____ _____    ______ ____
DOCKED: ROOT
DOCKED: ATOM      1  C   UNL     1      37.719  14.906 120.468 -0.28 -0.00    +0.000 C 
DOCKED: ENDROOT
DOCKED: BRANCH   1   3
DOCKED: ATOM      2  O   UNL     1      36.270  13.595 119.099 -0.38 -0.00    +0.000 OA
DOCKED: ATOM      3  C   UNL     1      37.328  14.278 119.164 -0.34 -0.00    +0.000 C 
DOCKED: ATOM      4  N   UNL     1      38.156  14.458 118.004 -0.24 -0.00    +0.000 N 
DOCKED: ATOM      5  H   UNL     1      39.048  14.855 118.129 -0.09 -0.00    +0.000 HD
DOCKED: BRANCH   4   6
DOCKED: ATOM      6  C   UNL     1      37.759  14.092 116.673 -0.32 -0.00    +0.000 A 
DOCKED: ATOM      7  C   UNL     1      38.613  13.357 115.828 -0.45 -0.00    +0.000 A 
DOCKED: ATOM      8  C   UNL     1      38.192  12.993 114.545 -0.34 -0.00    +0.000 A 
DOCKED: ATOM      9  C   UNL     1      36.915  13.345 114.100 -0.32 -0.00    +0.000 A 
DOCKED: ATOM     10  C   UNL     1      36.053  14.055 114.940 -0.26 -0.00    +0.000 A 
DOCKED: ATOM     11  C   UNL     1      36.469  14.420 116.224 -0.27 -0.00    +0.000 A 
DOCKED: ATOM     12  CM  UNL     1      37.333  13.710 115.385 +0.00 -0.00    +0.000 AC
DOCKED: ENDBRANCH   4   6
DOCKED: ENDBRANCH   1   3
DOCKED: BRANCH   1  12
DOCKED: ATOM     13  C   UNL     1      38.488  13.902 121.333 -0.40 -0.00    +0.000 C 
DOCKED: BRANCH  12  13
DOCKED: ATOM     14  C   UNL     1      37.688  12.603 121.514 -0.46 -0.00    +0.000 C 
DOCKED: BRANCH  13  14
DOCKED: ATOM     15  C   UNL     1      37.432  12.270 122.992 -0.55 -0.00    +0.000 C 
DOCKED: BRANCH  14  15
DOCKED: ATOM     16  C   UNL     1      36.035  11.668 123.226 -0.69 -0.00    +0.000 C 
DOCKED: BRANCH  15  16
DOCKED: ATOM     17  C   UNL     1      35.625  10.700 122.108 -0.52 -0.00    +0.000 C 
DOCKED: BRANCH  16  17
DOCKED: ATOM     18  C   UNL     1      36.435   9.437 122.140 -0.69 -0.00    +0.000 C 
DOCKED: ATOM     19  N   UNL     1      36.737   8.801 123.385 -0.61 -0.00    +0.000 N 
DOCKED: ATOM     20  O   UNL     1      36.826   8.918 121.059 -2.65 -0.00    +0.000 OA
DOCKED: ATOM     21  H   UNL     1      36.433   9.210 124.228 -0.37 -0.00    +0.000 HD
DOCKED: BRANCH  18  21
DOCKED: ATOM     22  O   UNL     1      37.438   7.643 123.414 -2.14 -0.00    +0.000 OA
DOCKED: ATOM     23  H   UNL     1      37.308   7.208 124.271 -0.51 -0.00    +0.000 HD
DOCKED: ENDBRANCH  18  21
DOCKED: ENDBRANCH  16  17
DOCKED: ENDBRANCH  15  16
DOCKED: ENDBRANCH  14  15
DOCKED: ENDBRANCH  13  14
DOCKED: ENDBRANCH  12  13
DOCKED: ENDBRANCH   1  12
DOCKED: TORSDOF 9DOCKED: TER
DOCKED: ENDMDL
________________________________________________________________________________


	BEGINNING GENETIC ALGORITHM DOCKING 15 of 100
Run: 15 Seed: 1587627617 1680659418 [ Run 15 of 100 GA/GALS ]
Beginning LAMARCKIAN GENETIC ALGORITHM (LGA), with a maximum of 2500000 energy evaluations.

Final-Value: -13.787


	FINAL GENETIC ALGORITHM DOCKED STATE
	_______________________________________________


Detailed state:  trans 35.315 14.789 122.090 quatxyzw -0.094206 -0.708449 -0.493914 -0.495251 center -0.037 -0.159 0.371 ntor 9 28.5413 28.5091 39.5878 -4.2014 -69.9012 -61.2676 87.7183 -111.2558 -38.7274
State:	 35.315  14.789 122.090  -0.108 -0.815 -0.569 -120.627     28.54   28.51   39.59   -4.20  -69.90  -61.27   87.72 -111.26  -38.73

DOCKED: MODEL       15
DOCKED: USER    Run = 15
DOCKED: USER    DPF = ligand_dock.biased.dpf
DOCKED: USER  
DOCKED: USER    Estimated Free Energy of Binding    =   -9.33 kcal/mol  [=(1)+(2)+(3)-(4)]
DOCKED: USER    Estimated Inhibition Constant, Ki   =  143.93 nM (nanomolar)  [Temperature = 298.15 K]
DOCKED: USER    
DOCKED: USER    (1) Final Intermolecular Energy     =  -12.02 kcal/mol
DOCKED: USER        vdW + Hbond + desolv Energy     =  -12.02 kcal/mol
DOCKED: USER        Electrostatic Energy            =   +0.00 kcal/mol
DOCKED: USER    (2) Final Total Internal Energy     =   -1.77 kcal/mol
DOCKED: USER    (3) Torsional Free Energy           =   +2.68 kcal/mol
DOCKED: USER    (4) Unbound System's Energy  [=(2)] =   -1.77 kcal/mol
DOCKED: USER    
DOCKED: USER    
DOCKED: USER    NEWDPF move ligand.dum.pdbqt
DOCKED: USER    NEWDPF about -0.037000 -0.159000 0.371000
DOCKED: USER    NEWDPF tran0 35.315146 14.789363 122.090450
DOCKED: USER    NEWDPF quaternion0 -0.094206 -0.708449 -0.493914 -0.495251
DOCKED: USER    NEWDPF axisangle0 -0.108438 -0.815481 -0.568534 -120.627374
DOCKED: USER    NEWDPF quat0 -0.108438 -0.815481 -0.568534 -120.627374
DOCKED: USER    NEWDPF dihe0 28.54 28.51 39.59 -4.20 -69.90 -61.27 87.72 -111.26 -38.73 
DOCKED: USER  keepresnum = 1 
DOCKED: USER  
DOCKED: REMARK  Name = 
DOCKED: REMARK  9 active torsions:
DOCKED: REMARK  status: ('A' for Active; 'I' for Inactive)
DOCKED: REMARK    1  A    between atoms: C_2  and  C_10
DOCKED: REMARK    2  A    between atoms: N_3  and  C_4
DOCKED: REMARK    3  A    between atoms: C_10  and  C_11
DOCKED: REMARK    4  A    between atoms: C_11  and  C_12
DOCKED: REMARK    5  A    between atoms: C_12  and  C_13
DOCKED: REMARK    6  A    between atoms: C_13  and  C_14
DOCKED: REMARK    7  A    between atoms: C_14  and  C_15
DOCKED: REMARK    8  A    between atoms: C_15  and  C_16
DOCKED: REMARK    9  A    between atoms: N_17  and  O_18
DOCKED: REMARK                            x       y       z     vdW  Elec       q    Type
DOCKED: REMARK                         _______ _______ _______ _____ _____    ______ ____
DOCKED: USER                              x       y       z     vdW  Elec       q    Type
DOCKED: USER                           _______ _______ _______ _____ _____    ______ ____
DOCKED: ROOT
DOCKED: ATOM      1  C   UNL     1      37.905  14.132 122.598 -0.48 -0.00    +0.000 C 
DOCKED: ENDROOT
DOCKED: BRANCH   1   3
DOCKED: ATOM      2  O   UNL     1      38.929  15.056 120.651 -0.28 -0.00    +0.000 OA
DOCKED: ATOM      3  C   UNL     1      37.955  14.411 121.126 -0.36 -0.00    +0.000 C 
DOCKED: ATOM      4  N   UNL     1      36.899  13.946 120.272 -0.28 -0.00    +0.000 N 
DOCKED: ATOM      5  H   UNL     1      36.083  13.593 120.694 +0.03 -0.00    +0.000 HD
DOCKED: BRANCH   4   6
DOCKED: ATOM      6  C   UNL     1      36.963  13.965 118.836 -0.34 -0.00    +0.000 A 
DOCKED: ATOM      7  C   UNL     1      37.711  13.010 118.122 -0.21 -0.00    +0.000 A 
DOCKED: ATOM      8  C   UNL     1      37.737  13.037 116.724 -0.34 -0.00    +0.000 A 
DOCKED: ATOM      9  C   UNL     1      37.007  14.004 116.028 -0.32 -0.00    +0.000 A 
DOCKED: ATOM     10  C   UNL     1      36.244  14.942 116.729 -0.23 -0.00    +0.000 A 
DOCKED: ATOM     11  C   UNL     1      36.215  14.918 118.127 -0.24 -0.00    +0.000 A 
DOCKED: ATOM     12  CM  UNL     1      36.979  13.980 117.428 +0.00 -0.00    +0.000 AC
DOCKED: ENDBRANCH   4   6
DOCKED: ENDBRANCH   1   3
DOCKED: BRANCH   1  12
DOCKED: ATOM     13  C   UNL     1      36.453  14.003 123.068 -0.52 -0.00    +0.000 C 
DOCKED: BRANCH  12  13
DOCKED: ATOM     14  C   UNL     1      36.308  12.888 124.114 -0.44 -0.00    +0.000 C 
DOCKED: BRANCH  13  14
DOCKED: ATOM     15  C   UNL     1      35.859  11.555 123.495 -0.66 -0.00    +0.000 C 
DOCKED: BRANCH  14  15
DOCKED: ATOM     16  C   UNL     1      35.937  11.564 121.958 -0.48 -0.00    +0.000 C 
DOCKED: BRANCH  15  16
DOCKED: ATOM     17  C   UNL     1      37.155  10.788 121.435 -0.36 -0.00    +0.000 C 
DOCKED: BRANCH  16  17
DOCKED: ATOM     18  C   UNL     1      37.065   9.326 121.762 -0.64 -0.00    +0.000 C 
DOCKED: ATOM     19  N   UNL     1      37.182   8.877 123.115 -0.63 -0.00    +0.000 N 
DOCKED: ATOM     20  O   UNL     1      36.857   8.492 120.840 -2.33 -0.00    +0.000 OA
DOCKED: ATOM     21  H   UNL     1      37.347   9.530 123.833 -0.45 -0.00    +0.000 HD
DOCKED: BRANCH  18  21
DOCKED: ATOM     22  O   UNL     1      37.067   7.562 123.416 -2.22 -0.00    +0.000 OA
DOCKED: ATOM     23  H   UNL     1      37.354   7.031 122.658 -0.23 -0.00    +0.000 HD
DOCKED: ENDBRANCH  18  21
DOCKED: ENDBRANCH  16  17
DOCKED: ENDBRANCH  15  16
DOCKED: ENDBRANCH  14  15
DOCKED: ENDBRANCH  13  14
DOCKED: ENDBRANCH  12  13
DOCKED: ENDBRANCH   1  12
DOCKED: TORSDOF 9DOCKED: TER
DOCKED: ENDMDL
________________________________________________________________________________


	BEGINNING GENETIC ALGORITHM DOCKING 16 of 100
Run: 16 Seed: 1525485824 828725422 [ Run 16 of 100 GA/GALS ]
Beginning LAMARCKIAN GENETIC ALGORITHM (LGA), with a maximum of 2500000 energy evaluations.

Final-Value: -14.240


	FINAL GENETIC ALGORITHM DOCKED STATE
	_______________________________________________


Detailed state:  trans 34.871 12.069 121.212 quatxyzw 0.626389 0.749705 -0.054051 0.206538 center -0.037 -0.159 0.371 ntor 9 -103.7746 6.2576 -159.3247 179.2145 66.1355 77.8377 -178.1309 -147.9166 -4.3454
State:	 34.871  12.069 121.212   0.640  0.766 -0.055 156.161   -103.77    6.26 -159.32  179.21   66.14   77.84 -178.13 -147.92   -4.35

DOCKED: MODEL       16
DOCKED: USER    Run = 16
DOCKED: USER    DPF = ligand_dock.biased.dpf
DOCKED: USER  
DOCKED: USER    Estimated Free Energy of Binding    =  -10.72 kcal/mol  [=(1)+(2)+(3)-(4)]
DOCKED: USER    Estimated Inhibition Constant, Ki   =   13.99 nM (nanomolar)  [Temperature = 298.15 K]
DOCKED: USER    
DOCKED: USER    (1) Final Intermolecular Energy     =  -13.40 kcal/mol
DOCKED: USER        vdW + Hbond + desolv Energy     =  -13.40 kcal/mol
DOCKED: USER        Electrostatic Energy            =   +0.00 kcal/mol
DOCKED: USER    (2) Final Total Internal Energy     =   -0.84 kcal/mol
DOCKED: USER    (3) Torsional Free Energy           =   +2.68 kcal/mol
DOCKED: USER    (4) Unbound System's Energy  [=(2)] =   -0.84 kcal/mol
DOCKED: USER    
DOCKED: USER    
DOCKED: USER    NEWDPF move ligand.dum.pdbqt
DOCKED: USER    NEWDPF about -0.037000 -0.159000 0.371000
DOCKED: USER    NEWDPF tran0 34.871456 12.069009 121.212141
DOCKED: USER    NEWDPF quaternion0 0.626389 0.749705 -0.054051 0.206538
DOCKED: USER    NEWDPF axisangle0 0.640192 0.766226 -0.055242 156.160861
DOCKED: USER    NEWDPF quat0 0.640192 0.766226 -0.055242 156.160861
DOCKED: USER    NEWDPF dihe0 -103.77 6.26 -159.32 179.21 66.14 77.84 -178.13 -147.92 -4.35 
DOCKED: USER  keepresnum = 1 
DOCKED: USER  
DOCKED: REMARK  Name = 
DOCKED: REMARK  9 active torsions:
DOCKED: REMARK  status: ('A' for Active; 'I' for Inactive)
DOCKED: REMARK    1  A    between atoms: C_2  and  C_10
DOCKED: REMARK    2  A    between atoms: N_3  and  C_4
DOCKED: REMARK    3  A    between atoms: C_10  and  C_11
DOCKED: REMARK    4  A    between atoms: C_11  and  C_12
DOCKED: REMARK    5  A    between atoms: C_12  and  C_13
DOCKED: REMARK    6  A    between atoms: C_13  and  C_14
DOCKED: REMARK    7  A    between atoms: C_14  and  C_15
DOCKED: REMARK    8  A    between atoms: C_15  and  C_16
DOCKED: REMARK    9  A    between atoms: N_17  and  O_18
DOCKED: REMARK                            x       y       z     vdW  Elec       q    Type
DOCKED: REMARK                         _______ _______ _______ _____ _____    ______ ____
DOCKED: USER                              x       y       z     vdW  Elec       q    Type
DOCKED: USER                           _______ _______ _______ _____ _____    ______ ____
DOCKED: ROOT
DOCKED: ATOM      1  C   UNL     1      37.213  11.417 122.433 -0.46 -0.00    +0.000 C 
DOCKED: ENDROOT
DOCKED: BRANCH   1   3
DOCKED: ATOM      2  O   UNL     1      37.065   9.386 121.189 -2.59 -0.00    +0.000 OA
DOCKED: ATOM      3  C   UNL     1      36.634  10.061 122.163 -0.66 -0.00    +0.000 C 
DOCKED: ATOM      4  N   UNL     1      35.596   9.543 123.010 -0.61 -0.00    +0.000 N 
DOCKED: ATOM      5  H   UNL     1      35.174  10.157 123.654 -0.28 -0.00    +0.000 HD
DOCKED: BRANCH   4   6
DOCKED: ATOM      6  C   UNL     1      35.138   8.181 122.974 -0.61 -0.00    +0.000 A 
DOCKED: ATOM      7  C   UNL     1      33.789   7.868 122.719 -0.64 -0.00    +0.000 A 
DOCKED: ATOM      8  C   UNL     1      33.375   6.533 122.665 -0.64 -0.00    +0.000 A 
DOCKED: ATOM      9  C   UNL     1      34.301   5.503 122.850 -0.23 -0.00    +0.000 A 
DOCKED: ATOM     10  C   UNL     1      35.645   5.806 123.081 -0.62 -0.00    +0.000 A 
DOCKED: ATOM     11  C   UNL     1      36.064   7.139 123.135 -0.68 -0.00    +0.000 A 
DOCKED: ATOM     12  CM  UNL     1      34.719   6.838 122.904 +0.00 -0.00    +0.000 AC
DOCKED: ENDBRANCH   4   6
DOCKED: ENDBRANCH   1   3
DOCKED: BRANCH   1  12
DOCKED: ATOM     13  C   UNL     1      36.149  12.501 122.237 -0.30 -0.00    +0.000 C 
DOCKED: BRANCH  12  13
DOCKED: ATOM     14  C   UNL     1      36.695  13.885 122.615 -0.48 -0.00    +0.000 C 
DOCKED: BRANCH  13  14
DOCKED: ATOM     15  C   UNL     1      38.142  13.827 123.129 -0.47 -0.00    +0.000 C 
DOCKED: BRANCH  14  15
DOCKED: ATOM     16  C   UNL     1      38.923  15.122 122.839 -0.33 -0.00    +0.000 C 
DOCKED: BRANCH  15  16
DOCKED: ATOM     17  C   UNL     1      40.164  14.868 121.973 -0.42 -0.00    +0.000 C 
DOCKED: BRANCH  16  17
DOCKED: ATOM     18  C   UNL     1      41.434  15.095 122.740 -0.55 -0.00    +0.000 C 
DOCKED: ATOM     19  N   UNL     1      42.061  16.380 122.742 -0.40 -0.00    +0.000 N 
DOCKED: ATOM     20  O   UNL     1      41.934  14.152 123.411 -0.94 -0.00    +0.000 OA
DOCKED: ATOM     21  H   UNL     1      41.670  17.114 122.215 +0.00 -0.00    +0.000 HD
DOCKED: BRANCH  18  21
DOCKED: ATOM     22  O   UNL     1      43.188  16.596 123.461 -0.87 -0.00    +0.000 OA
DOCKED: ATOM     23  H   UNL     1      42.968  17.093 124.264 -0.61 -0.00    +0.000 HD
DOCKED: ENDBRANCH  18  21
DOCKED: ENDBRANCH  16  17
DOCKED: ENDBRANCH  15  16
DOCKED: ENDBRANCH  14  15
DOCKED: ENDBRANCH  13  14
DOCKED: ENDBRANCH  12  13
DOCKED: ENDBRANCH   1  12
DOCKED: TORSDOF 9DOCKED: TER
DOCKED: ENDMDL
________________________________________________________________________________


	BEGINNING GENETIC ALGORITHM DOCKING 17 of 100
Run: 17 Seed: 1247141948 229609027 [ Run 17 of 100 GA/GALS ]
Beginning LAMARCKIAN GENETIC ALGORITHM (LGA), with a maximum of 2500000 energy evaluations.

Final-Value: -13.295


	FINAL GENETIC ALGORITHM DOCKED STATE
	_______________________________________________


Detailed state:  trans 34.764 14.673 122.034 quatxyzw 0.760564 0.048530 -0.489070 -0.424262 center -0.037 -0.159 0.371 ntor 9 -0.1993 177.3009 179.4777 97.1629 132.7216 121.8048 -172.9010 152.9881 62.2800
State:	 34.764  14.673 122.034   0.840  0.054 -0.540 -129.792     -0.20  177.30  179.48   97.16  132.72  121.80 -172.90  152.99   62.28

DOCKED: MODEL       17
DOCKED: USER    Run = 17
DOCKED: USER    DPF = ligand_dock.biased.dpf
DOCKED: USER  
DOCKED: USER    Estimated Free Energy of Binding    =   -9.32 kcal/mol  [=(1)+(2)+(3)-(4)]
DOCKED: USER    Estimated Inhibition Constant, Ki   =  148.05 nM (nanomolar)  [Temperature = 298.15 K]
DOCKED: USER    
DOCKED: USER    (1) Final Intermolecular Energy     =  -12.00 kcal/mol
DOCKED: USER        vdW + Hbond + desolv Energy     =  -12.00 kcal/mol
DOCKED: USER        Electrostatic Energy            =   +0.00 kcal/mol
DOCKED: USER    (2) Final Total Internal Energy     =   -1.29 kcal/mol
DOCKED: USER    (3) Torsional Free Energy           =   +2.68 kcal/mol
DOCKED: USER    (4) Unbound System's Energy  [=(2)] =   -1.29 kcal/mol
DOCKED: USER    
DOCKED: USER    
DOCKED: USER    NEWDPF move ligand.dum.pdbqt
DOCKED: USER    NEWDPF about -0.037000 -0.159000 0.371000
DOCKED: USER    NEWDPF tran0 34.763581 14.673452 122.033694
DOCKED: USER    NEWDPF quaternion0 0.760564 0.048530 -0.489070 -0.424262
DOCKED: USER    NEWDPF axisangle0 0.839901 0.053592 -0.540087 -129.792066
DOCKED: USER    NEWDPF quat0 0.839901 0.053592 -0.540087 -129.792066
DOCKED: USER    NEWDPF dihe0 -0.20 177.30 179.48 97.16 132.72 121.80 -172.90 152.99 62.28 
DOCKED: USER  keepresnum = 1 
DOCKED: USER  
DOCKED: REMARK  Name = 
DOCKED: REMARK  9 active torsions:
DOCKED: REMARK  status: ('A' for Active; 'I' for Inactive)
DOCKED: REMARK    1  A    between atoms: C_2  and  C_10
DOCKED: REMARK    2  A    between atoms: N_3  and  C_4
DOCKED: REMARK    3  A    between atoms: C_10  and  C_11
DOCKED: REMARK    4  A    between atoms: C_11  and  C_12
DOCKED: REMARK    5  A    between atoms: C_12  and  C_13
DOCKED: REMARK    6  A    between atoms: C_13  and  C_14
DOCKED: REMARK    7  A    between atoms: C_14  and  C_15
DOCKED: REMARK    8  A    between atoms: C_15  and  C_16
DOCKED: REMARK    9  A    between atoms: N_17  and  O_18
DOCKED: REMARK                            x       y       z     vdW  Elec       q    Type
DOCKED: REMARK                         _______ _______ _______ _____ _____    ______ ____
DOCKED: USER                              x       y       z     vdW  Elec       q    Type
DOCKED: USER                           _______ _______ _______ _____ _____    ______ ____
DOCKED: ROOT
DOCKED: ATOM      1  C   UNL     1      36.697  15.338 123.828 -0.37 -0.00    +0.000 C 
DOCKED: ENDROOT
DOCKED: BRANCH   1   3
DOCKED: ATOM      2  O   UNL     1      34.390  15.520 124.411 -0.65 -0.00    +0.000 OA
DOCKED: ATOM      3  C   UNL     1      35.518  16.085 124.375 -0.41 -0.00    +0.000 C 
DOCKED: ATOM      4  N   UNL     1      35.679  17.430 124.851 -0.29 -0.00    +0.000 N 
DOCKED: ATOM      5  H   UNL     1      36.527  17.891 124.658 -0.01 -0.00    +0.000 HD
DOCKED: BRANCH   4   6
DOCKED: ATOM      6  C   UNL     1      34.674  18.143 125.591 -0.29 -0.00    +0.000 A 
DOCKED: ATOM      7  C   UNL     1      34.466  19.523 125.404 -0.19 -0.00    +0.000 A 
DOCKED: ATOM      8  C   UNL     1      33.465  20.187 126.120 -0.15 -0.00    +0.000 A 
DOCKED: ATOM      9  C   UNL     1      32.656  19.482 127.015 -0.22 -0.00    +0.000 A 
DOCKED: ATOM     10  C   UNL     1      32.843  18.108 127.190 -0.25 -0.00    +0.000 A 
DOCKED: ATOM     11  C   UNL     1      33.842  17.439 126.475 -0.34 -0.00    +0.000 A 
DOCKED: ATOM     12  CM  UNL     1      33.657  18.813 126.300 -0.03 -0.00    +0.000 AC
DOCKED: ENDBRANCH   4   6
DOCKED: ENDBRANCH   1   3
DOCKED: BRANCH   1  12
DOCKED: ATOM     13  C   UNL     1      36.406  14.850 122.405 -0.28 -0.00    +0.000 C 
DOCKED: BRANCH  12  13
DOCKED: ATOM     14  C   UNL     1      36.441  13.317 122.330 -0.38 -0.00    +0.000 C 
DOCKED: BRANCH  13  14
DOCKED: ATOM     15  C   UNL     1      36.670  12.665 123.703 -0.63 -0.00    +0.000 C 
DOCKED: BRANCH  14  15
DOCKED: ATOM     16  C   UNL     1      37.067  11.181 123.591 -0.62 -0.00    +0.000 C 
DOCKED: BRANCH  15  16
DOCKED: ATOM     17  C   UNL     1      36.062  10.373 122.758 -0.69 -0.00    +0.000 C 
DOCKED: BRANCH  16  17
DOCKED: ATOM     18  C   UNL     1      36.610   9.030 122.373 -0.74 -0.00    +0.000 C 
DOCKED: ATOM     19  N   UNL     1      36.603   7.949 123.309 -0.72 -0.00    +0.000 N 
DOCKED: ATOM     20  O   UNL     1      37.053   8.848 121.207 -2.69 -0.00    +0.000 OA
DOCKED: ATOM     21  H   UNL     1      36.259   8.095 124.220 -0.20 -0.00    +0.000 HD
DOCKED: BRANCH  18  21
DOCKED: ATOM     22  O   UNL     1      37.065   6.727 122.953 -1.49 -0.00    +0.000 OA
DOCKED: ATOM     23  H   UNL     1      37.362   6.750 122.030 -0.35 -0.00    +0.000 HD
DOCKED: ENDBRANCH  18  21
DOCKED: ENDBRANCH  16  17
DOCKED: ENDBRANCH  15  16
DOCKED: ENDBRANCH  14  15
DOCKED: ENDBRANCH  13  14
DOCKED: ENDBRANCH  12  13
DOCKED: ENDBRANCH   1  12
DOCKED: TORSDOF 9DOCKED: TER
DOCKED: ENDMDL
________________________________________________________________________________


	BEGINNING GENETIC ALGORITHM DOCKING 18 of 100
Run: 18 Seed: 553552864 1298194463 [ Run 18 of 100 GA/GALS ]
Beginning LAMARCKIAN GENETIC ALGORITHM (LGA), with a maximum of 2500000 energy evaluations.

Final-Value: -13.110


	FINAL GENETIC ALGORITHM DOCKED STATE
	_______________________________________________


Detailed state:  trans 38.503 15.309 123.516 quatxyzw 0.089817 -0.022908 0.974523 0.204237 center -0.037 -0.159 0.371 ntor 9 19.1361 175.7000 -151.6481 78.4582 105.2870 178.4906 -27.9734 1.2663 -17.0861
State:	 38.503  15.309 123.516   0.092 -0.023  0.996 156.430     19.14  175.70 -151.65   78.46  105.29  178.49  -27.97    1.27  -17.09

DOCKED: MODEL       18
DOCKED: USER    Run = 18
DOCKED: USER    DPF = ligand_dock.biased.dpf
DOCKED: USER  
DOCKED: USER    Estimated Free Energy of Binding    =   -9.18 kcal/mol  [=(1)+(2)+(3)-(4)]
DOCKED: USER    Estimated Inhibition Constant, Ki   =  187.97 nM (nanomolar)  [Temperature = 298.15 K]
DOCKED: USER    
DOCKED: USER    (1) Final Intermolecular Energy     =  -11.86 kcal/mol
DOCKED: USER        vdW + Hbond + desolv Energy     =  -11.86 kcal/mol
DOCKED: USER        Electrostatic Energy            =   +0.00 kcal/mol
DOCKED: USER    (2) Final Total Internal Energy     =   -1.25 kcal/mol
DOCKED: USER    (3) Torsional Free Energy           =   +2.68 kcal/mol
DOCKED: USER    (4) Unbound System's Energy  [=(2)] =   -1.25 kcal/mol
DOCKED: USER    
DOCKED: USER    
DOCKED: USER    NEWDPF move ligand.dum.pdbqt
DOCKED: USER    NEWDPF about -0.037000 -0.159000 0.371000
DOCKED: USER    NEWDPF tran0 38.502957 15.308935 123.516219
DOCKED: USER    NEWDPF quaternion0 0.089817 -0.022908 0.974523 0.204237
DOCKED: USER    NEWDPF axisangle0 0.091751 -0.023401 0.995507 156.430289
DOCKED: USER    NEWDPF quat0 0.091751 -0.023401 0.995507 156.430289
DOCKED: USER    NEWDPF dihe0 19.14 175.70 -151.65 78.46 105.29 178.49 -27.97 1.27 -17.09 
DOCKED: USER  keepresnum = 1 
DOCKED: USER  
DOCKED: REMARK  Name = 
DOCKED: REMARK  9 active torsions:
DOCKED: REMARK  status: ('A' for Active; 'I' for Inactive)
DOCKED: REMARK    1  A    between atoms: C_2  and  C_10
DOCKED: REMARK    2  A    between atoms: N_3  and  C_4
DOCKED: REMARK    3  A    between atoms: C_10  and  C_11
DOCKED: REMARK    4  A    between atoms: C_11  and  C_12
DOCKED: REMARK    5  A    between atoms: C_12  and  C_13
DOCKED: REMARK    6  A    between atoms: C_13  and  C_14
DOCKED: REMARK    7  A    between atoms: C_14  and  C_15
DOCKED: REMARK    8  A    between atoms: C_15  and  C_16
DOCKED: REMARK    9  A    between atoms: N_17  and  O_18
DOCKED: REMARK                            x       y       z     vdW  Elec       q    Type
DOCKED: REMARK                         _______ _______ _______ _____ _____    ______ ____
DOCKED: USER                              x       y       z     vdW  Elec       q    Type
DOCKED: USER                           _______ _______ _______ _____ _____    ______ ____
DOCKED: ROOT
DOCKED: ATOM      1  C   UNL     1      39.315  14.120 121.208 -0.31 -0.00    +0.000 C 
DOCKED: ENDROOT
DOCKED: BRANCH   1   3
DOCKED: ATOM      2  O   UNL     1      40.082  16.251 120.456 -0.18 -0.00    +0.000 OA
DOCKED: ATOM      3  C   UNL     1      40.237  15.302 121.272 -0.30 -0.00    +0.000 C 
DOCKED: ATOM      4  N   UNL     1      41.282  15.344 122.255 -0.43 -0.00    +0.000 N 
DOCKED: ATOM      5  H   UNL     1      41.474  14.522 122.763 -0.06 -0.00    +0.000 HD
DOCKED: BRANCH   4   6
DOCKED: ATOM      6  C   UNL     1      42.065  16.514 122.542 -0.36 -0.00    +0.000 A 
DOCKED: ATOM      7  C   UNL     1      43.445  16.559 122.269 -0.33 -0.00    +0.000 A 
DOCKED: ATOM      8  C   UNL     1      44.178  17.720 122.536 -0.25 -0.00    +0.000 A 
DOCKED: ATOM      9  C   UNL     1      43.541  18.847 123.062 -0.04 -0.00    +0.000 A 
DOCKED: ATOM     10  C   UNL     1      42.167  18.817 123.315 -0.16 -0.00    +0.000 A 
DOCKED: ATOM     11  C   UNL     1      41.430  17.659 123.049 -0.25 -0.00    +0.000 A 
DOCKED: ATOM     12  CM  UNL     1      42.804  17.687 122.796 +0.00 -0.00    +0.000 AC
DOCKED: ENDBRANCH   4   6
DOCKED: ENDBRANCH   1   3
DOCKED: BRANCH   1  12
DOCKED: ATOM     13  C   UNL     1      38.169  14.284 122.210 -0.45 -0.00    +0.000 C 
DOCKED: BRANCH  12  13
DOCKED: ATOM     14  C   UNL     1      37.009  13.332 121.881 -0.47 -0.00    +0.000 C 
DOCKED: BRANCH  13  14
DOCKED: ATOM     15  C   UNL     1      36.250  12.872 123.135 -0.61 -0.00    +0.000 C 
DOCKED: BRANCH  14  15
DOCKED: ATOM     16  C   UNL     1      36.517  11.394 123.474 -0.70 -0.00    +0.000 C 
DOCKED: BRANCH  15  16
DOCKED: ATOM     17  C   UNL     1      35.655  10.441 122.634 -0.67 -0.00    +0.000 C 
DOCKED: BRANCH  16  17
DOCKED: ATOM     18  C   UNL     1      36.368   9.152 122.348 -0.73 -0.00    +0.000 C 
DOCKED: ATOM     19  N   UNL     1      36.455   8.134 123.348 -0.69 -0.00    +0.000 N 
DOCKED: ATOM     20  O   UNL     1      36.867   8.955 121.207 -2.66 -0.00    +0.000 OA
DOCKED: ATOM     21  H   UNL     1      36.066   8.291 124.239 -0.18 -0.00    +0.000 HD
DOCKED: BRANCH  18  21
DOCKED: ATOM     22  O   UNL     1      37.067   6.956 123.081 -1.77 -0.00    +0.000 OA
DOCKED: ATOM     23  H   UNL     1      37.644   7.060 122.309 -0.28 -0.00    +0.000 HD
DOCKED: ENDBRANCH  18  21
DOCKED: ENDBRANCH  16  17
DOCKED: ENDBRANCH  15  16
DOCKED: ENDBRANCH  14  15
DOCKED: ENDBRANCH  13  14
DOCKED: ENDBRANCH  12  13
DOCKED: ENDBRANCH   1  12
DOCKED: TORSDOF 9DOCKED: TER
DOCKED: ENDMDL
________________________________________________________________________________


	BEGINNING GENETIC ALGORITHM DOCKING 19 of 100
Run: 19 Seed: 1716346312 430936325 [ Run 19 of 100 GA/GALS ]
Beginning LAMARCKIAN GENETIC ALGORITHM (LGA), with a maximum of 2500000 energy evaluations.

Final-Value: -12.971


	FINAL GENETIC ALGORITHM DOCKED STATE
	_______________________________________________


Detailed state:  trans 36.465 13.990 121.789 quatxyzw -0.443593 0.082047 0.321768 0.832441 center -0.037 -0.159 0.371 ntor 9 -18.3768 166.4006 -44.5362 18.0303 -60.4491 115.7167 18.0461 179.7348 120.3670
State:	 36.465  13.990 121.789  -0.801  0.148  0.581 67.299    -18.38  166.40  -44.54   18.03  -60.45  115.72   18.05  179.73  120.37

DOCKED: MODEL       19
DOCKED: USER    Run = 19
DOCKED: USER    DPF = ligand_dock.biased.dpf
DOCKED: USER  
DOCKED: USER    Estimated Free Energy of Binding    =   -9.16 kcal/mol  [=(1)+(2)+(3)-(4)]
DOCKED: USER    Estimated Inhibition Constant, Ki   =  194.37 nM (nanomolar)  [Temperature = 298.15 K]
DOCKED: USER    
DOCKED: USER    (1) Final Intermolecular Energy     =  -11.84 kcal/mol
DOCKED: USER        vdW + Hbond + desolv Energy     =  -11.84 kcal/mol
DOCKED: USER        Electrostatic Energy            =   +0.00 kcal/mol
DOCKED: USER    (2) Final Total Internal Energy     =   -1.13 kcal/mol
DOCKED: USER    (3) Torsional Free Energy           =   +2.68 kcal/mol
DOCKED: USER    (4) Unbound System's Energy  [=(2)] =   -1.13 kcal/mol
DOCKED: USER    
DOCKED: USER    
DOCKED: USER    NEWDPF move ligand.dum.pdbqt
DOCKED: USER    NEWDPF about -0.037000 -0.159000 0.371000
DOCKED: USER    NEWDPF tran0 36.465235 13.989994 121.788627
DOCKED: USER    NEWDPF quaternion0 -0.443593 0.082047 0.321768 0.832441
DOCKED: USER    NEWDPF axisangle0 -0.800546 0.148069 0.580690 67.299319
DOCKED: USER    NEWDPF quat0 -0.800546 0.148069 0.580690 67.299319
DOCKED: USER    NEWDPF dihe0 -18.38 166.40 -44.54 18.03 -60.45 115.72 18.05 179.73 120.37 
DOCKED: USER  keepresnum = 1 
DOCKED: USER  
DOCKED: REMARK  Name = 
DOCKED: REMARK  9 active torsions:
DOCKED: REMARK  status: ('A' for Active; 'I' for Inactive)
DOCKED: REMARK    1  A    between atoms: C_2  and  C_10
DOCKED: REMARK    2  A    between atoms: N_3  and  C_4
DOCKED: REMARK    3  A    between atoms: C_10  and  C_11
DOCKED: REMARK    4  A    between atoms: C_11  and  C_12
DOCKED: REMARK    5  A    between atoms: C_12  and  C_13
DOCKED: REMARK    6  A    between atoms: C_13  and  C_14
DOCKED: REMARK    7  A    between atoms: C_14  and  C_15
DOCKED: REMARK    8  A    between atoms: C_15  and  C_16
DOCKED: REMARK    9  A    between atoms: N_17  and  O_18
DOCKED: REMARK                            x       y       z     vdW  Elec       q    Type
DOCKED: REMARK                         _______ _______ _______ _____ _____    ______ ____
DOCKED: USER                              x       y       z     vdW  Elec       q    Type
DOCKED: USER                           _______ _______ _______ _____ _____    ______ ____
DOCKED: ROOT
DOCKED: ATOM      1  C   UNL     1      37.598  16.461 121.896 -0.21 -0.00    +0.000 C 
DOCKED: ENDROOT
DOCKED: BRANCH   1   3
DOCKED: ATOM      2  O   UNL     1      35.310  16.604 122.557 -0.35 -0.00    +0.000 OA
DOCKED: ATOM      3  C   UNL     1      36.161  16.806 121.648 -0.24 -0.00    +0.000 C 
DOCKED: ATOM      4  N   UNL     1      35.764  17.361 120.384 -0.19 -0.00    +0.000 N 
DOCKED: ATOM      5  H   UNL     1      36.418  17.352 119.648 -0.00 -0.00    +0.000 HD
DOCKED: BRANCH   4   6
DOCKED: ATOM      6  C   UNL     1      34.468  17.927 120.129 -0.20 -0.00    +0.000 A 
DOCKED: ATOM      7  C   UNL     1      33.431  17.843 121.078 -0.25 -0.00    +0.000 A 
DOCKED: ATOM      8  C   UNL     1      32.187  18.424 120.815 -0.26 -0.00    +0.000 A 
DOCKED: ATOM      9  C   UNL     1      31.971  19.105 119.614 -0.39 -0.00    +0.000 A 
DOCKED: ATOM     10  C   UNL     1      33.002  19.212 118.677 -0.24 -0.00    +0.000 A 
DOCKED: ATOM     11  C   UNL     1      34.248  18.633 118.936 -0.21 -0.00    +0.000 A 
DOCKED: ATOM     12  CM  UNL     1      33.218  18.524 119.874 +0.00 -0.00    +0.000 AC
DOCKED: ENDBRANCH   4   6
DOCKED: ENDBRANCH   1   3
DOCKED: BRANCH   1  12
DOCKED: ATOM     13  C   UNL     1      37.840  14.969 121.644 -0.33 -0.00    +0.000 C 
DOCKED: BRANCH  12  13
DOCKED: ATOM     14  C   UNL     1      36.966  14.106 122.567 -0.47 -0.00    +0.000 C 
DOCKED: BRANCH  13  14
DOCKED: ATOM     15  C   UNL     1      37.420  12.638 122.604 -0.56 -0.00    +0.000 C 
DOCKED: BRANCH  14  15
DOCKED: ATOM     16  C   UNL     1      36.424  11.733 123.352 -0.70 -0.00    +0.000 C 
DOCKED: BRANCH  15  16
DOCKED: ATOM     17  C   UNL     1      35.736  10.730 122.416 -0.65 -0.00    +0.000 C 
DOCKED: BRANCH  16  17
DOCKED: ATOM     18  C   UNL     1      36.541   9.472 122.260 -0.71 -0.00    +0.000 C 
DOCKED: ATOM     19  N   UNL     1      36.689   8.566 123.356 -0.65 -0.00    +0.000 N 
DOCKED: ATOM     20  O   UNL     1      37.063   9.200 121.145 -2.74 -0.00    +0.000 OA
DOCKED: ATOM     21  H   UNL     1      36.282   8.782 124.226 -0.30 -0.00    +0.000 HD
DOCKED: BRANCH  18  21
DOCKED: ATOM     22  O   UNL     1      37.386   7.415 123.208 -2.02 -0.00    +0.000 OA
DOCKED: ATOM     23  H   UNL     1      37.468   7.207 122.265 -0.17 -0.00    +0.000 HD
DOCKED: ENDBRANCH  18  21
DOCKED: ENDBRANCH  16  17
DOCKED: ENDBRANCH  15  16
DOCKED: ENDBRANCH  14  15
DOCKED: ENDBRANCH  13  14
DOCKED: ENDBRANCH  12  13
DOCKED: ENDBRANCH   1  12
DOCKED: TORSDOF 9DOCKED: TER
DOCKED: ENDMDL
________________________________________________________________________________


	BEGINNING GENETIC ALGORITHM DOCKING 20 of 100
Run: 20 Seed: 1881943423 619957274 [ Run 20 of 100 GA/GALS ]
Beginning LAMARCKIAN GENETIC ALGORITHM (LGA), with a maximum of 2500000 energy evaluations.

Final-Value: -13.258


	FINAL GENETIC ALGORITHM DOCKED STATE
	_______________________________________________


Detailed state:  trans 39.226 12.905 121.989 quatxyzw -0.538654 0.263798 -0.583264 0.547782 center -0.037 -0.159 0.371 ntor 9 4.1989 179.5243 -178.8617 145.2781 -176.9765 31.5175 -172.0965 177.8477 41.3848
State:	 39.226  12.905 121.989  -0.644  0.315 -0.697 113.570      4.20  179.52 -178.86  145.28 -176.98   31.52 -172.10  177.85   41.38

DOCKED: MODEL       20
DOCKED: USER    Run = 20
DOCKED: USER    DPF = ligand_dock.biased.dpf
DOCKED: USER  
DOCKED: USER    Estimated Free Energy of Binding    =   -8.24 kcal/mol  [=(1)+(2)+(3)-(4)]
DOCKED: USER    Estimated Inhibition Constant, Ki   =  919.70 nM (nanomolar)  [Temperature = 298.15 K]
DOCKED: USER    
DOCKED: USER    (1) Final Intermolecular Energy     =  -10.92 kcal/mol
DOCKED: USER        vdW + Hbond + desolv Energy     =  -10.92 kcal/mol
DOCKED: USER        Electrostatic Energy            =   +0.00 kcal/mol
DOCKED: USER    (2) Final Total Internal Energy     =   -2.34 kcal/mol
DOCKED: USER    (3) Torsional Free Energy           =   +2.68 kcal/mol
DOCKED: USER    (4) Unbound System's Energy  [=(2)] =   -2.34 kcal/mol
DOCKED: USER    
DOCKED: USER    
DOCKED: USER    NEWDPF move ligand.dum.pdbqt
DOCKED: USER    NEWDPF about -0.037000 -0.159000 0.371000
DOCKED: USER    NEWDPF tran0 39.225565 12.905047 121.989078
DOCKED: USER    NEWDPF quaternion0 -0.538654 0.263798 -0.583264 0.547782
DOCKED: USER    NEWDPF axisangle0 -0.643845 0.315314 -0.697166 113.570038
DOCKED: USER    NEWDPF quat0 -0.643845 0.315314 -0.697166 113.570038
DOCKED: USER    NEWDPF dihe0 4.20 179.52 -178.86 145.28 -176.98 31.52 -172.10 177.85 41.38 
DOCKED: USER  keepresnum = 1 
DOCKED: USER  
DOCKED: REMARK  Name = 
DOCKED: REMARK  9 active torsions:
DOCKED: REMARK  status: ('A' for Active; 'I' for Inactive)
DOCKED: REMARK    1  A    between atoms: C_2  and  C_10
DOCKED: REMARK    2  A    between atoms: N_3  and  C_4
DOCKED: REMARK    3  A    between atoms: C_10  and  C_11
DOCKED: REMARK    4  A    between atoms: C_11  and  C_12
DOCKED: REMARK    5  A    between atoms: C_12  and  C_13
DOCKED: REMARK    6  A    between atoms: C_13  and  C_14
DOCKED: REMARK    7  A    between atoms: C_14  and  C_15
DOCKED: REMARK    8  A    between atoms: C_15  and  C_16
DOCKED: REMARK    9  A    between atoms: N_17  and  O_18
DOCKED: REMARK                            x       y       z     vdW  Elec       q    Type
DOCKED: REMARK                         _______ _______ _______ _____ _____    ______ ____
DOCKED: USER                              x       y       z     vdW  Elec       q    Type
DOCKED: USER                           _______ _______ _______ _____ _____    ______ ____
DOCKED: ROOT
DOCKED: ATOM      1  C   UNL     1      36.922  14.157 121.265 -0.22 -0.00    +0.000 C 
DOCKED: ENDROOT
DOCKED: BRANCH   1   3
DOCKED: ATOM      2  O   UNL     1      37.470  12.450 119.690 -0.52 -0.00    +0.000 OA
DOCKED: ATOM      3  C   UNL     1      37.432  13.686 119.936 -0.41 -0.00    +0.000 C 
DOCKED: ATOM      4  N   UNL     1      37.873  14.641 118.958 -0.24 -0.00    +0.000 N 
DOCKED: ATOM      5  H   UNL     1      37.983  15.578 119.241 -0.00 -0.00    +0.000 HD
DOCKED: BRANCH   4   6
DOCKED: ATOM      6  C   UNL     1      38.164  14.310 117.590 -0.20 -0.00    +0.000 A 
DOCKED: ATOM      7  C   UNL     1      39.244  14.900 116.906 -0.13 -0.00    +0.000 A 
DOCKED: ATOM      8  C   UNL     1      39.520  14.542 115.583 -0.35 -0.00    +0.000 A 
DOCKED: ATOM      9  C   UNL     1      38.733  13.585 114.937 -0.36 -0.00    +0.000 A 
DOCKED: ATOM     10  C   UNL     1      37.673  12.979 115.616 -0.34 -0.00    +0.000 A 
DOCKED: ATOM     11  C   UNL     1      37.394  13.333 116.940 -0.37 -0.00    +0.000 A 
DOCKED: ATOM     12  CM  UNL     1      38.455  13.941 116.262 +0.00 -0.00    +0.000 AC
DOCKED: ENDBRANCH   4   6
DOCKED: ENDBRANCH   1   3
DOCKED: BRANCH   1  12
DOCKED: ATOM     13  C   UNL     1      38.019  14.044 122.328 -0.47 -0.00    +0.000 C 
DOCKED: BRANCH  12  13
DOCKED: ATOM     14  C   UNL     1      37.450  13.513 123.652 -0.31 -0.00    +0.000 C 
DOCKED: BRANCH  13  14
DOCKED: ATOM     15  C   UNL     1      35.964  13.135 123.546 -0.61 -0.00    +0.000 C 
DOCKED: BRANCH  14  15
DOCKED: ATOM     16  C   UNL     1      35.747  11.613 123.489 -0.62 -0.00    +0.000 C 
DOCKED: BRANCH  15  16
DOCKED: ATOM     17  C   UNL     1      37.072  10.838 123.461 -0.59 -0.00    +0.000 C 
DOCKED: BRANCH  16  17
DOCKED: ATOM     18  C   UNL     1      36.972   9.593 122.628 -0.63 -0.00    +0.000 C 
DOCKED: ATOM     19  N   UNL     1      37.109   9.659 121.206 -0.54 -0.00    +0.000 N 
DOCKED: ATOM     20  O   UNL     1      36.797   8.479 123.191 -1.81 -0.00    +0.000 OA
DOCKED: ATOM     21  H   UNL     1      37.244  10.531 120.769 -0.03 -0.00    +0.000 HD
DOCKED: BRANCH  18  21
DOCKED: ATOM     22  O   UNL     1      37.053   8.533 120.457 -2.14 -0.00    +0.000 OA
DOCKED: ATOM     23  H   UNL     1      36.852   7.775 121.027 -0.05 -0.00    +0.000 HD
DOCKED: ENDBRANCH  18  21
DOCKED: ENDBRANCH  16  17
DOCKED: ENDBRANCH  15  16
DOCKED: ENDBRANCH  14  15
DOCKED: ENDBRANCH  13  14
DOCKED: ENDBRANCH  12  13
DOCKED: ENDBRANCH   1  12
DOCKED: TORSDOF 9DOCKED: TER
DOCKED: ENDMDL
________________________________________________________________________________


	BEGINNING GENETIC ALGORITHM DOCKING 21 of 100
Run: 21 Seed: 1882696540 980783525 [ Run 21 of 100 GA/GALS ]
Beginning LAMARCKIAN GENETIC ALGORITHM (LGA), with a maximum of 2500000 energy evaluations.

Final-Value: -14.784


	FINAL GENETIC ALGORITHM DOCKED STATE
	_______________________________________________


Detailed state:  trans 38.622 14.134 123.486 quatxyzw -0.337843 0.447232 -0.395174 -0.727793 center -0.037 -0.159 0.371 ntor 9 13.8888 57.2486 179.8174 109.0300 143.4057 19.9176 -107.8224 -178.2199 -148.4465
State:	 38.622  14.134 123.486  -0.493  0.652 -0.576 -86.597     13.89   57.25  179.82  109.03  143.41   19.92 -107.82 -178.22 -148.45

DOCKED: MODEL       21
DOCKED: USER    Run = 21
DOCKED: USER    DPF = ligand_dock.biased.dpf
DOCKED: USER  
DOCKED: USER    Estimated Free Energy of Binding    =  -10.67 kcal/mol  [=(1)+(2)+(3)-(4)]
DOCKED: USER    Estimated Inhibition Constant, Ki   =   15.10 nM (nanomolar)  [Temperature = 298.15 K]
DOCKED: USER    
DOCKED: USER    (1) Final Intermolecular Energy     =  -13.35 kcal/mol
DOCKED: USER        vdW + Hbond + desolv Energy     =  -13.35 kcal/mol
DOCKED: USER        Electrostatic Energy            =   +0.00 kcal/mol
DOCKED: USER    (2) Final Total Internal Energy     =   -1.43 kcal/mol
DOCKED: USER    (3) Torsional Free Energy           =   +2.68 kcal/mol
DOCKED: USER    (4) Unbound System's Energy  [=(2)] =   -1.43 kcal/mol
DOCKED: USER    
DOCKED: USER    
DOCKED: USER    NEWDPF move ligand.dum.pdbqt
DOCKED: USER    NEWDPF about -0.037000 -0.159000 0.371000
DOCKED: USER    NEWDPF tran0 38.622487 14.133662 123.485951
DOCKED: USER    NEWDPF quaternion0 -0.337843 0.447232 -0.395174 -0.727793
DOCKED: USER    NEWDPF axisangle0 -0.492629 0.652135 -0.576226 -86.596580
DOCKED: USER    NEWDPF quat0 -0.492629 0.652135 -0.576226 -86.596580
DOCKED: USER    NEWDPF dihe0 13.89 57.25 179.82 109.03 143.41 19.92 -107.82 -178.22 -148.45 
DOCKED: USER  keepresnum = 1 
DOCKED: USER  
DOCKED: REMARK  Name = 
DOCKED: REMARK  9 active torsions:
DOCKED: REMARK  status: ('A' for Active; 'I' for Inactive)
DOCKED: REMARK    1  A    between atoms: C_2  and  C_10
DOCKED: REMARK    2  A    between atoms: N_3  and  C_4
DOCKED: REMARK    3  A    between atoms: C_10  and  C_11
DOCKED: REMARK    4  A    between atoms: C_11  and  C_12
DOCKED: REMARK    5  A    between atoms: C_12  and  C_13
DOCKED: REMARK    6  A    between atoms: C_13  and  C_14
DOCKED: REMARK    7  A    between atoms: C_14  and  C_15
DOCKED: REMARK    8  A    between atoms: C_15  and  C_16
DOCKED: REMARK    9  A    between atoms: N_17  and  O_18
DOCKED: REMARK                            x       y       z     vdW  Elec       q    Type
DOCKED: REMARK                         _______ _______ _______ _____ _____    ______ ____
DOCKED: USER                              x       y       z     vdW  Elec       q    Type
DOCKED: USER                           _______ _______ _______ _____ _____    ______ ____
DOCKED: ROOT
DOCKED: ATOM      1  C   UNL     1      36.939  15.133 121.597 -0.26 -0.00    +0.000 C 
DOCKED: ENDROOT
DOCKED: BRANCH   1   3
DOCKED: ATOM      2  O   UNL     1      37.382  16.842 123.203 -0.26 -0.00    +0.000 OA
DOCKED: ATOM      3  C   UNL     1      36.574  15.967 122.789 -0.34 -0.00    +0.000 C 
DOCKED: ATOM      4  N   UNL     1      35.314  15.763 123.447 -0.44 -0.00    +0.000 N 
DOCKED: ATOM      5  H   UNL     1      34.785  14.971 123.201 -0.03 -0.00    +0.000 HD
DOCKED: BRANCH   4   6
DOCKED: ATOM      6  C   UNL     1      34.780  16.650 124.444 -0.43 -0.00    +0.000 A 
DOCKED: ATOM      7  C   UNL     1      34.067  16.160 125.556 -0.41 -0.00    +0.000 A 
DOCKED: ATOM      8  C   UNL     1      33.579  17.043 126.524 -0.36 -0.00    +0.000 A 
DOCKED: ATOM      9  C   UNL     1      33.808  18.416 126.401 -0.28 -0.00    +0.000 A 
DOCKED: ATOM     10  C   UNL     1      34.534  18.907 125.312 -0.26 -0.00    +0.000 A 
DOCKED: ATOM     11  C   UNL     1      35.025  18.028 124.342 -0.30 -0.00    +0.000 A 
DOCKED: ATOM     12  CM  UNL     1      34.299  17.534 125.430 -0.33 -0.00    +0.000 AC
DOCKED: ENDBRANCH   4   6
DOCKED: ENDBRANCH   1   3
DOCKED: BRANCH   1  12
DOCKED: ATOM     13  C   UNL     1      37.787  13.932 122.026 -0.46 -0.00    +0.000 C 
DOCKED: BRANCH  12  13
DOCKED: ATOM     14  C   UNL     1      37.404  13.463 123.438 -0.53 -0.00    +0.000 C 
DOCKED: BRANCH  13  14
DOCKED: ATOM     15  C   UNL     1      36.001  12.839 123.490 -0.63 -0.00    +0.000 C 
DOCKED: BRANCH  14  15
DOCKED: ATOM     16  C   UNL     1      36.028  11.311 123.310 -0.70 -0.00    +0.000 C 
DOCKED: BRANCH  15  16
DOCKED: ATOM     17  C   UNL     1      36.984  10.876 122.189 -0.57 -0.00    +0.000 C 
DOCKED: BRANCH  16  17
DOCKED: ATOM     18  C   UNL     1      37.040   9.382 122.053 -0.64 -0.00    +0.000 C 
DOCKED: ATOM     19  N   UNL     1      37.051   8.548 123.215 -0.70 -0.00    +0.000 N 
DOCKED: ATOM     20  O   UNL     1      37.047   8.861 120.905 -2.71 -0.00    +0.000 OA
DOCKED: ATOM     21  H   UNL     1      37.047   8.959 124.109 -0.52 -0.00    +0.000 HD
DOCKED: BRANCH  18  21
DOCKED: ATOM     22  O   UNL     1      37.066   7.200 123.094 -2.02 -0.00    +0.000 OA
DOCKED: ATOM     23  H   UNL     1      37.287   6.960 122.181 -0.19 -0.00    +0.000 HD
DOCKED: ENDBRANCH  18  21
DOCKED: ENDBRANCH  16  17
DOCKED: ENDBRANCH  15  16
DOCKED: ENDBRANCH  14  15
DOCKED: ENDBRANCH  13  14
DOCKED: ENDBRANCH  12  13
DOCKED: ENDBRANCH   1  12
DOCKED: TORSDOF 9DOCKED: TER
DOCKED: ENDMDL
________________________________________________________________________________


	BEGINNING GENETIC ALGORITHM DOCKING 22 of 100
Run: 22 Seed: 95997552 495698136 [ Run 22 of 100 GA/GALS ]
Beginning LAMARCKIAN GENETIC ALGORITHM (LGA), with a maximum of 2500000 energy evaluations.

Final-Value: -13.483


	FINAL GENETIC ALGORITHM DOCKED STATE
	_______________________________________________


Detailed state:  trans 38.840 15.037 124.081 quatxyzw -0.001823 0.196116 -0.980452 -0.015768 center -0.037 -0.159 0.371 ntor 9 10.9719 -37.6857 -151.5546 136.5972 -168.0012 80.0467 68.3743 179.9103 60.9089
State:	 38.840  15.037 124.081  -0.002  0.196 -0.981 -178.193     10.97  -37.69 -151.55  136.60 -168.00   80.05   68.37  179.91   60.91

DOCKED: MODEL       22
DOCKED: USER    Run = 22
DOCKED: USER    DPF = ligand_dock.biased.dpf
DOCKED: USER  
DOCKED: USER    Estimated Free Energy of Binding    =   -9.50 kcal/mol  [=(1)+(2)+(3)-(4)]
DOCKED: USER    Estimated Inhibition Constant, Ki   =  108.08 nM (nanomolar)  [Temperature = 298.15 K]
DOCKED: USER    
DOCKED: USER    (1) Final Intermolecular Energy     =  -12.19 kcal/mol
DOCKED: USER        vdW + Hbond + desolv Energy     =  -12.19 kcal/mol
DOCKED: USER        Electrostatic Energy            =   +0.00 kcal/mol
DOCKED: USER    (2) Final Total Internal Energy     =   -1.29 kcal/mol
DOCKED: USER    (3) Torsional Free Energy           =   +2.68 kcal/mol
DOCKED: USER    (4) Unbound System's Energy  [=(2)] =   -1.29 kcal/mol
DOCKED: USER    
DOCKED: USER    
DOCKED: USER    NEWDPF move ligand.dum.pdbqt
DOCKED: USER    NEWDPF about -0.037000 -0.159000 0.371000
DOCKED: USER    NEWDPF tran0 38.840009 15.036833 124.081146
DOCKED: USER    NEWDPF quaternion0 -0.001823 0.196116 -0.980452 -0.015768
DOCKED: USER    NEWDPF axisangle0 -0.001823 0.196140 -0.980574 -178.193093
DOCKED: USER    NEWDPF quat0 -0.001823 0.196140 -0.980574 -178.193093
DOCKED: USER    NEWDPF dihe0 10.97 -37.69 -151.55 136.60 -168.00 80.05 68.37 179.91 60.91 
DOCKED: USER  keepresnum = 1 
DOCKED: USER  
DOCKED: REMARK  Name = 
DOCKED: REMARK  9 active torsions:
DOCKED: REMARK  status: ('A' for Active; 'I' for Inactive)
DOCKED: REMARK    1  A    between atoms: C_2  and  C_10
DOCKED: REMARK    2  A    between atoms: N_3  and  C_4
DOCKED: REMARK    3  A    between atoms: C_10  and  C_11
DOCKED: REMARK    4  A    between atoms: C_11  and  C_12
DOCKED: REMARK    5  A    between atoms: C_12  and  C_13
DOCKED: REMARK    6  A    between atoms: C_13  and  C_14
DOCKED: REMARK    7  A    between atoms: C_14  and  C_15
DOCKED: REMARK    8  A    between atoms: C_15  and  C_16
DOCKED: REMARK    9  A    between atoms: N_17  and  O_18
DOCKED: REMARK                            x       y       z     vdW  Elec       q    Type
DOCKED: REMARK                         _______ _______ _______ _____ _____    ______ ____
DOCKED: USER                              x       y       z     vdW  Elec       q    Type
DOCKED: USER                           _______ _______ _______ _____ _____    ______ ____
DOCKED: ROOT
DOCKED: ATOM      1  C   UNL     1      39.503  14.395 121.522 -0.32 -0.00    +0.000 C 
DOCKED: ENDROOT
DOCKED: BRANCH   1   3
DOCKED: ATOM      2  O   UNL     1      41.471  14.414 122.872 -1.00 -0.00    +0.000 OA
DOCKED: ATOM      3  C   UNL     1      40.777  15.019 122.010 -0.43 -0.00    +0.000 C 
DOCKED: ATOM      4  N   UNL     1      41.195  16.293 121.495 -0.22 -0.00    +0.000 N 
DOCKED: ATOM      5  H   UNL     1      40.554  16.806 120.952 +0.00 -0.00    +0.000 HD
DOCKED: BRANCH   4   6
DOCKED: ATOM      6  C   UNL     1      42.493  16.862 121.727 -0.24 -0.00    +0.000 A 
DOCKED: ATOM      7  C   UNL     1      42.655  18.038 122.485 -0.20 -0.00    +0.000 A 
DOCKED: ATOM      8  C   UNL     1      43.933  18.557 122.715 -0.16 -0.00    +0.000 A 
DOCKED: ATOM      9  C   UNL     1      45.058  17.904 122.206 -0.22 -0.00    +0.000 A 
DOCKED: ATOM     10  C   UNL     1      44.907  16.725 121.470 -0.24 -0.00    +0.000 A 
DOCKED: ATOM     11  C   UNL     1      43.632  16.202 121.238 -0.25 -0.00    +0.000 A 
DOCKED: ATOM     12  CM  UNL     1      43.780  17.381 121.973 +0.00 -0.00    +0.000 AC
DOCKED: ENDBRANCH   4   6
DOCKED: ENDBRANCH   1   3
DOCKED: BRANCH   1  12
DOCKED: ATOM     13  C   UNL     1      38.358  14.693 122.495 -0.43 -0.00    +0.000 C 
DOCKED: BRANCH  12  13
DOCKED: ATOM     14  C   UNL     1      37.775  13.395 123.073 -0.54 -0.00    +0.000 C 
DOCKED: BRANCH  13  14
DOCKED: ATOM     15  C   UNL     1      36.316  13.164 122.649 -0.49 -0.00    +0.000 C 
DOCKED: BRANCH  14  15
DOCKED: ATOM     16  C   UNL     1      35.937  11.672 122.630 -0.61 -0.00    +0.000 C 
DOCKED: BRANCH  15  16
DOCKED: ATOM     17  C   UNL     1      37.066  10.781 123.165 -0.61 -0.00    +0.000 C 
DOCKED: BRANCH  16  17
DOCKED: ATOM     18  C   UNL     1      36.988   9.389 122.607 -0.65 -0.00    +0.000 C 
DOCKED: ATOM     19  N   UNL     1      37.157   8.255 123.462 -0.71 -0.00    +0.000 N 
DOCKED: ATOM     20  O   UNL     1      36.743   9.221 121.382 -2.49 -0.00    +0.000 OA
DOCKED: ATOM     21  H   UNL     1      37.351   8.389 124.418 -0.47 -0.00    +0.000 HD
DOCKED: BRANCH  18  21
DOCKED: ATOM     22  O   UNL     1      37.053   6.999 122.967 -1.77 -0.00    +0.000 OA
DOCKED: ATOM     23  H   UNL     1      37.035   7.034 121.999 -0.13 -0.00    +0.000 HD
DOCKED: ENDBRANCH  18  21
DOCKED: ENDBRANCH  16  17
DOCKED: ENDBRANCH  15  16
DOCKED: ENDBRANCH  14  15
DOCKED: ENDBRANCH  13  14
DOCKED: ENDBRANCH  12  13
DOCKED: ENDBRANCH   1  12
DOCKED: TORSDOF 9DOCKED: TER
DOCKED: ENDMDL
________________________________________________________________________________


	BEGINNING GENETIC ALGORITHM DOCKING 23 of 100
Run: 23 Seed: 2107693587 191044014 [ Run 23 of 100 GA/GALS ]
Beginning LAMARCKIAN GENETIC ALGORITHM (LGA), with a maximum of 2500000 energy evaluations.

Final-Value: -14.212


	FINAL GENETIC ALGORITHM DOCKED STATE
	_______________________________________________


Detailed state:  trans 37.055 15.969 120.905 quatxyzw -0.479562 -0.436400 -0.715287 -0.260653 center -0.037 -0.159 0.371 ntor 9 -2.4937 159.7312 -160.7519 30.1531 -84.0698 173.0528 180.0000 171.5328 7.6787
State:	 37.055  15.969 120.905  -0.497 -0.452 -0.741 -149.782     -2.49  159.73 -160.75   30.15  -84.07  173.05  180.00  171.53    7.68

DOCKED: MODEL       23
DOCKED: USER    Run = 23
DOCKED: USER    DPF = ligand_dock.biased.dpf
DOCKED: USER  
DOCKED: USER    Estimated Free Energy of Binding    =   -9.99 kcal/mol  [=(1)+(2)+(3)-(4)]
DOCKED: USER    Estimated Inhibition Constant, Ki   =   47.34 nM (nanomolar)  [Temperature = 298.15 K]
DOCKED: USER    
DOCKED: USER    (1) Final Intermolecular Energy     =  -12.68 kcal/mol
DOCKED: USER        vdW + Hbond + desolv Energy     =  -12.68 kcal/mol
DOCKED: USER        Electrostatic Energy            =   +0.00 kcal/mol
DOCKED: USER    (2) Final Total Internal Energy     =   -1.54 kcal/mol
DOCKED: USER    (3) Torsional Free Energy           =   +2.68 kcal/mol
DOCKED: USER    (4) Unbound System's Energy  [=(2)] =   -1.54 kcal/mol
DOCKED: USER    
DOCKED: USER    
DOCKED: USER    NEWDPF move ligand.dum.pdbqt
DOCKED: USER    NEWDPF about -0.037000 -0.159000 0.371000
DOCKED: USER    NEWDPF tran0 37.055122 15.969449 120.905293
DOCKED: USER    NEWDPF quaternion0 -0.479562 -0.436400 -0.715287 -0.260653
DOCKED: USER    NEWDPF axisangle0 -0.496733 -0.452025 -0.740898 -149.782328
DOCKED: USER    NEWDPF quat0 -0.496733 -0.452025 -0.740898 -149.782328
DOCKED: USER    NEWDPF dihe0 -2.49 159.73 -160.75 30.15 -84.07 173.05 180.00 171.53 7.68 
DOCKED: USER  keepresnum = 1 
DOCKED: USER  
DOCKED: REMARK  Name = 
DOCKED: REMARK  9 active torsions:
DOCKED: REMARK  status: ('A' for Active; 'I' for Inactive)
DOCKED: REMARK    1  A    between atoms: C_2  and  C_10
DOCKED: REMARK    2  A    between atoms: N_3  and  C_4
DOCKED: REMARK    3  A    between atoms: C_10  and  C_11
DOCKED: REMARK    4  A    between atoms: C_11  and  C_12
DOCKED: REMARK    5  A    between atoms: C_12  and  C_13
DOCKED: REMARK    6  A    between atoms: C_13  and  C_14
DOCKED: REMARK    7  A    between atoms: C_14  and  C_15
DOCKED: REMARK    8  A    between atoms: C_15  and  C_16
DOCKED: REMARK    9  A    between atoms: N_17  and  O_18
DOCKED: REMARK                            x       y       z     vdW  Elec       q    Type
DOCKED: REMARK                         _______ _______ _______ _____ _____    ______ ____
DOCKED: USER                              x       y       z     vdW  Elec       q    Type
DOCKED: USER                           _______ _______ _______ _____ _____    ______ ____
DOCKED: ROOT
DOCKED: ATOM      1  C   UNL     1      37.608  13.325 120.586 -0.46 -0.00    +0.000 C 
DOCKED: ENDROOT
DOCKED: BRANCH   1   3
DOCKED: ATOM      2  O   UNL     1      38.508  14.688 118.846 -0.23 -0.00    +0.000 OA
DOCKED: ATOM      3  C   UNL     1      37.660  13.811 119.168 -0.36 -0.00    +0.000 C 
DOCKED: ATOM      4  N   UNL     1      36.750  13.278 118.194 -0.40 -0.00    +0.000 N 
DOCKED: ATOM      5  H   UNL     1      36.003  12.722 118.513 -0.18 -0.00    +0.000 HD
DOCKED: BRANCH   4   6
DOCKED: ATOM      6  C   UNL     1      36.866  13.509 116.780 -0.34 -0.00    +0.000 A 
DOCKED: ATOM      7  C   UNL     1      35.812  14.079 116.041 -0.29 -0.00    +0.000 A 
DOCKED: ATOM      8  C   UNL     1      35.961  14.315 114.670 -0.23 -0.00    +0.000 A 
DOCKED: ATOM      9  C   UNL     1      37.162  13.999 114.030 -0.29 -0.00    +0.000 A 
DOCKED: ATOM     10  C   UNL     1      38.220  13.452 114.761 -0.39 -0.00    +0.000 A 
DOCKED: ATOM     11  C   UNL     1      38.076  13.216 116.132 -0.42 -0.00    +0.000 A 
DOCKED: ATOM     12  CM  UNL     1      37.016  13.761 115.402 +0.00 -0.00    +0.000 AC
DOCKED: ENDBRANCH   4   6
DOCKED: ENDBRANCH   1   3
DOCKED: BRANCH   1  12
DOCKED: ATOM     13  C   UNL     1      36.964  14.382 121.488 -0.27 -0.00    +0.000 C 
DOCKED: BRANCH  12  13
DOCKED: ATOM     14  C   UNL     1      37.072  13.984 122.968 -0.52 -0.00    +0.000 C 
DOCKED: BRANCH  13  14
DOCKED: ATOM     15  C   UNL     1      37.711  12.600 123.160 -0.40 -0.00    +0.000 C 
DOCKED: BRANCH  14  15
DOCKED: ATOM     16  C   UNL     1      36.724  11.571 123.742 -0.69 -0.00    +0.000 C 
DOCKED: BRANCH  15  16
DOCKED: ATOM     17  C   UNL     1      35.945  10.831 122.646 -0.68 -0.00    +0.000 C 
DOCKED: BRANCH  16  17
DOCKED: ATOM     18  C   UNL     1      36.534   9.481 122.359 -0.71 -0.00    +0.000 C 
DOCKED: ATOM     19  N   UNL     1      36.578   8.477 123.376 -0.65 -0.00    +0.000 N 
DOCKED: ATOM     20  O   UNL     1      36.967   9.223 121.203 -2.71 -0.00    +0.000 OA
DOCKED: ATOM     21  H   UNL     1      36.241   8.683 124.278 -0.26 -0.00    +0.000 HD
DOCKED: BRANCH  18  21
DOCKED: ATOM     22  O   UNL     1      37.077   7.248 123.109 -2.06 -0.00    +0.000 OA
DOCKED: ATOM     23  H   UNL     1      37.327   7.197 122.174 -0.15 -0.00    +0.000 HD
DOCKED: ENDBRANCH  18  21
DOCKED: ENDBRANCH  16  17
DOCKED: ENDBRANCH  15  16
DOCKED: ENDBRANCH  14  15
DOCKED: ENDBRANCH  13  14
DOCKED: ENDBRANCH  12  13
DOCKED: ENDBRANCH   1  12
DOCKED: TORSDOF 9DOCKED: TER
DOCKED: ENDMDL
________________________________________________________________________________


	BEGINNING GENETIC ALGORITHM DOCKING 24 of 100
Run: 24 Seed: 97015817 1870404749 [ Run 24 of 100 GA/GALS ]
Beginning LAMARCKIAN GENETIC ALGORITHM (LGA), with a maximum of 2500000 energy evaluations.

Final-Value: -13.123


	FINAL GENETIC ALGORITHM DOCKED STATE
	_______________________________________________


Detailed state:  trans 38.116 13.629 122.281 quatxyzw -0.236017 -0.441343 0.773558 0.388741 center -0.037 -0.159 0.371 ntor 9 -19.1758 -153.9008 179.9638 -158.8179 44.0805 -127.2329 54.0697 -169.9250 173.0861
State:	 38.116  13.629 122.281  -0.256 -0.479  0.840 134.248    -19.18 -153.90  179.96 -158.82   44.08 -127.23   54.07 -169.93  173.09

DOCKED: MODEL       24
DOCKED: USER    Run = 24
DOCKED: USER    DPF = ligand_dock.biased.dpf
DOCKED: USER  
DOCKED: USER    Estimated Free Energy of Binding    =   -9.08 kcal/mol  [=(1)+(2)+(3)-(4)]
DOCKED: USER    Estimated Inhibition Constant, Ki   =  219.72 nM (nanomolar)  [Temperature = 298.15 K]
DOCKED: USER    
DOCKED: USER    (1) Final Intermolecular Energy     =  -11.77 kcal/mol
DOCKED: USER        vdW + Hbond + desolv Energy     =  -11.77 kcal/mol
DOCKED: USER        Electrostatic Energy            =   +0.00 kcal/mol
DOCKED: USER    (2) Final Total Internal Energy     =   -1.35 kcal/mol
DOCKED: USER    (3) Torsional Free Energy           =   +2.68 kcal/mol
DOCKED: USER    (4) Unbound System's Energy  [=(2)] =   -1.35 kcal/mol
DOCKED: USER    
DOCKED: USER    
DOCKED: USER    NEWDPF move ligand.dum.pdbqt
DOCKED: USER    NEWDPF about -0.037000 -0.159000 0.371000
DOCKED: USER    NEWDPF tran0 38.115624 13.629384 122.281329
DOCKED: USER    NEWDPF quaternion0 -0.236017 -0.441343 0.773558 0.388741
DOCKED: USER    NEWDPF axisangle0 -0.256165 -0.479020 0.839595 134.247640
DOCKED: USER    NEWDPF quat0 -0.256165 -0.479020 0.839595 134.247640
DOCKED: USER    NEWDPF dihe0 -19.18 -153.90 179.96 -158.82 44.08 -127.23 54.07 -169.93 173.09 
DOCKED: USER  keepresnum = 1 
DOCKED: USER  
DOCKED: REMARK  Name = 
DOCKED: REMARK  9 active torsions:
DOCKED: REMARK  status: ('A' for Active; 'I' for Inactive)
DOCKED: REMARK    1  A    between atoms: C_2  and  C_10
DOCKED: REMARK    2  A    between atoms: N_3  and  C_4
DOCKED: REMARK    3  A    between atoms: C_10  and  C_11
DOCKED: REMARK    4  A    between atoms: C_11  and  C_12
DOCKED: REMARK    5  A    between atoms: C_12  and  C_13
DOCKED: REMARK    6  A    between atoms: C_13  and  C_14
DOCKED: REMARK    7  A    between atoms: C_14  and  C_15
DOCKED: REMARK    8  A    between atoms: C_15  and  C_16
DOCKED: REMARK    9  A    between atoms: N_17  and  O_18
DOCKED: REMARK                            x       y       z     vdW  Elec       q    Type
DOCKED: REMARK                         _______ _______ _______ _____ _____    ______ ____
DOCKED: USER                              x       y       z     vdW  Elec       q    Type
DOCKED: USER                           _______ _______ _______ _____ _____    ______ ____
DOCKED: ROOT
DOCKED: ATOM      1  C   UNL     1      39.827  15.215 120.882 -0.26 -0.00    +0.000 C 
DOCKED: ENDROOT
DOCKED: BRANCH   1   3
DOCKED: ATOM      2  O   UNL     1      40.732  15.138 123.089 -0.63 -0.00    +0.000 OA
DOCKED: ATOM      3  C   UNL     1      39.995  15.753 122.272 -0.35 -0.00    +0.000 C 
DOCKED: ATOM      4  N   UNL     1      39.318  16.959 122.660 -0.19 -0.00    +0.000 N 
DOCKED: ATOM      5  H   UNL     1      38.630  17.319 122.055 +0.00 -0.00    +0.000 HD
DOCKED: BRANCH   4   6
DOCKED: ATOM      6  C   UNL     1      39.587  17.671 123.879 -0.22 -0.00    +0.000 A 
DOCKED: ATOM      7  C   UNL     1      38.554  18.288 124.611 -0.18 -0.00    +0.000 A 
DOCKED: ATOM      8  C   UNL     1      38.841  18.953 125.808 -0.17 -0.00    +0.000 A 
DOCKED: ATOM      9  C   UNL     1      40.151  18.997 126.290 -0.23 -0.00    +0.000 A 
DOCKED: ATOM     10  C   UNL     1      41.178  18.369 125.580 -0.28 -0.00    +0.000 A 
DOCKED: ATOM     11  C   UNL     1      40.896  17.701 124.384 -0.29 -0.00    +0.000 A 
DOCKED: ATOM     12  CM  UNL     1      39.868  18.330 125.092 +0.00 -0.00    +0.000 AC
DOCKED: ENDBRANCH   4   6
DOCKED: ENDBRANCH   1   3
DOCKED: BRANCH   1  12
DOCKED: ATOM     13  C   UNL     1      38.593  14.311 120.806 -0.35 -0.00    +0.000 C 
DOCKED: BRANCH  12  13
DOCKED: ATOM     14  C   UNL     1      37.991  14.082 122.200 -0.46 -0.00    +0.000 C 
DOCKED: BRANCH  13  14
DOCKED: ATOM     15  C   UNL     1      37.752  12.594 122.501 -0.33 -0.00    +0.000 C 
DOCKED: BRANCH  14  15
DOCKED: ATOM     16  C   UNL     1      36.899  11.904 121.421 -0.55 -0.00    +0.000 C 
DOCKED: BRANCH  15  16
DOCKED: ATOM     17  C   UNL     1      35.929  10.874 122.017 -0.55 -0.00    +0.000 C 
DOCKED: BRANCH  16  17
DOCKED: ATOM     18  C   UNL     1      36.550   9.510 122.104 -0.69 -0.00    +0.000 C 
DOCKED: ATOM     19  N   UNL     1      36.912   8.958 123.372 -0.60 -0.00    +0.000 N 
DOCKED: ATOM     20  O   UNL     1      36.724   8.836 121.052 -2.62 -0.00    +0.000 OA
DOCKED: ATOM     21  H   UNL     1      36.776   9.487 124.191 -0.50 -0.00    +0.000 HD
DOCKED: BRANCH  18  21
DOCKED: ATOM     22  O   UNL     1      37.440   7.714 123.455 -2.18 -0.00    +0.000 OA
DOCKED: ATOM     23  H   UNL     1      37.234   7.221 122.646 -0.15 -0.00    +0.000 HD
DOCKED: ENDBRANCH  18  21
DOCKED: ENDBRANCH  16  17
DOCKED: ENDBRANCH  15  16
DOCKED: ENDBRANCH  14  15
DOCKED: ENDBRANCH  13  14
DOCKED: ENDBRANCH  12  13
DOCKED: ENDBRANCH   1  12
DOCKED: TORSDOF 9DOCKED: TER
DOCKED: ENDMDL
________________________________________________________________________________


	BEGINNING GENETIC ALGORITHM DOCKING 25 of 100
Run: 25 Seed: 1376640125 1767807687 [ Run 25 of 100 GA/GALS ]
Beginning LAMARCKIAN GENETIC ALGORITHM (LGA), with a maximum of 2500000 energy evaluations.

Final-Value: -14.625


	FINAL GENETIC ALGORITHM DOCKED STATE
	_______________________________________________


Detailed state:  trans 34.495 11.917 123.150 quatxyzw 0.476108 0.680309 -0.161874 0.533196 center -0.037 -0.159 0.371 ntor 9 3.7786 132.5825 -147.3142 -154.8229 52.9331 176.5088 13.8373 -99.9858 21.4387
State:	 34.495  11.917 123.150   0.563  0.804 -0.191 115.557      3.78  132.58 -147.31 -154.82   52.93  176.51   13.84  -99.99   21.44

DOCKED: MODEL       25
DOCKED: USER    Run = 25
DOCKED: USER    DPF = ligand_dock.biased.dpf
DOCKED: USER  
DOCKED: USER    Estimated Free Energy of Binding    =  -10.66 kcal/mol  [=(1)+(2)+(3)-(4)]
DOCKED: USER    Estimated Inhibition Constant, Ki   =   15.25 nM (nanomolar)  [Temperature = 298.15 K]
DOCKED: USER    
DOCKED: USER    (1) Final Intermolecular Energy     =  -13.35 kcal/mol
DOCKED: USER        vdW + Hbond + desolv Energy     =  -13.35 kcal/mol
DOCKED: USER        Electrostatic Energy            =   +0.00 kcal/mol
DOCKED: USER    (2) Final Total Internal Energy     =   -1.28 kcal/mol
DOCKED: USER    (3) Torsional Free Energy           =   +2.68 kcal/mol
DOCKED: USER    (4) Unbound System's Energy  [=(2)] =   -1.28 kcal/mol
DOCKED: USER    
DOCKED: USER    
DOCKED: USER    NEWDPF move ligand.dum.pdbqt
DOCKED: USER    NEWDPF about -0.037000 -0.159000 0.371000
DOCKED: USER    NEWDPF tran0 34.495086 11.917365 123.149931
DOCKED: USER    NEWDPF quaternion0 0.476108 0.680309 -0.161874 0.533196
DOCKED: USER    NEWDPF axisangle0 0.562781 0.804155 -0.191343 115.556721
DOCKED: USER    NEWDPF quat0 0.562781 0.804155 -0.191343 115.556721
DOCKED: USER    NEWDPF dihe0 3.78 132.58 -147.31 -154.82 52.93 176.51 13.84 -99.99 21.44 
DOCKED: USER  keepresnum = 1 
DOCKED: USER  
DOCKED: REMARK  Name = 
DOCKED: REMARK  9 active torsions:
DOCKED: REMARK  status: ('A' for Active; 'I' for Inactive)
DOCKED: REMARK    1  A    between atoms: C_2  and  C_10
DOCKED: REMARK    2  A    between atoms: N_3  and  C_4
DOCKED: REMARK    3  A    between atoms: C_10  and  C_11
DOCKED: REMARK    4  A    between atoms: C_11  and  C_12
DOCKED: REMARK    5  A    between atoms: C_12  and  C_13
DOCKED: REMARK    6  A    between atoms: C_13  and  C_14
DOCKED: REMARK    7  A    between atoms: C_14  and  C_15
DOCKED: REMARK    8  A    between atoms: C_15  and  C_16
DOCKED: REMARK    9  A    between atoms: N_17  and  O_18
DOCKED: REMARK                            x       y       z     vdW  Elec       q    Type
DOCKED: REMARK                         _______ _______ _______ _____ _____    ______ ____
DOCKED: USER                              x       y       z     vdW  Elec       q    Type
DOCKED: USER                           _______ _______ _______ _____ _____    ______ ____
DOCKED: ROOT
DOCKED: ATOM      1  C   UNL     1      37.095  11.578 122.424 -0.58 -0.00    +0.000 C 
DOCKED: ENDROOT
DOCKED: BRANCH   1   3
DOCKED: ATOM      2  O   UNL     1      37.020   9.536 121.193 -2.45 -0.00    +0.000 OA
DOCKED: ATOM      3  C   UNL     1      36.526  10.223 122.127 -0.64 -0.00    +0.000 C 
DOCKED: ATOM      4  N   UNL     1      35.428   9.720 122.905 -0.60 -0.00    +0.000 N 
DOCKED: ATOM      5  H   UNL     1      34.966  10.342 123.511 -0.35 -0.00    +0.000 HD
DOCKED: BRANCH   4   6
DOCKED: ATOM      6  C   UNL     1      34.964   8.361 122.849 -0.61 -0.00    +0.000 A 
DOCKED: ATOM      7  C   UNL     1      33.724   8.032 122.269 -0.63 -0.00    +0.000 A 
DOCKED: ATOM      8  C   UNL     1      33.308   6.698 122.207 -0.55 -0.00    +0.000 A 
DOCKED: ATOM      9  C   UNL     1      34.128   5.683 122.707 -0.47 -0.00    +0.000 A 
DOCKED: ATOM     10  C   UNL     1      35.370   6.000 123.264 -0.63 -0.00    +0.000 A 
DOCKED: ATOM     11  C   UNL     1      35.791   7.331 123.328 -0.66 -0.00    +0.000 A 
DOCKED: ATOM     12  CM  UNL     1      34.548   7.017 122.771 +0.00 -0.00    +0.000 AC
DOCKED: ENDBRANCH   4   6
DOCKED: ENDBRANCH   1   3
DOCKED: BRANCH   1  12
DOCKED: ATOM     13  C   UNL     1      36.116  12.392 123.276 -0.65 -0.00    +0.000 C 
DOCKED: BRANCH  12  13
DOCKED: ATOM     14  C   UNL     1      36.399  13.897 123.154 -0.54 -0.00    +0.000 C 
DOCKED: BRANCH  13  14
DOCKED: ATOM     15  C   UNL     1      35.610  14.729 124.177 -0.53 -0.00    +0.000 C 
DOCKED: BRANCH  14  15
DOCKED: ATOM     16  C   UNL     1      34.509  15.581 123.520 -0.51 -0.00    +0.000 C 
DOCKED: BRANCH  15  16
DOCKED: ATOM     17  C   UNL     1      34.506  17.025 124.039 -0.47 -0.00    +0.000 C 
DOCKED: BRANCH  16  17
DOCKED: ATOM     18  C   UNL     1      33.698  17.163 125.297 -0.34 -0.00    +0.000 C 
DOCKED: ATOM     19  N   UNL     1      33.671  16.108 126.261 -0.47 -0.00    +0.000 N 
DOCKED: ATOM     20  O   UNL     1      33.064  18.231 125.516 -0.40 -0.00    +0.000 OA
DOCKED: ATOM     21  H   UNL     1      34.166  15.275 126.085 -0.05 -0.00    +0.000 HD
DOCKED: BRANCH  18  21
DOCKED: ATOM     22  O   UNL     1      32.971  16.244 127.411 -1.14 -0.00    +0.000 OA
DOCKED: ATOM     23  H   UNL     1      32.497  17.089 127.403 -0.09 -0.00    +0.000 HD
DOCKED: ENDBRANCH  18  21
DOCKED: ENDBRANCH  16  17
DOCKED: ENDBRANCH  15  16
DOCKED: ENDBRANCH  14  15
DOCKED: ENDBRANCH  13  14
DOCKED: ENDBRANCH  12  13
DOCKED: ENDBRANCH   1  12
DOCKED: TORSDOF 9DOCKED: TER
DOCKED: ENDMDL
________________________________________________________________________________


	BEGINNING GENETIC ALGORITHM DOCKING 26 of 100
Run: 26 Seed: 1253806307 1916344709 [ Run 26 of 100 GA/GALS ]
Beginning LAMARCKIAN GENETIC ALGORITHM (LGA), with a maximum of 2500000 energy evaluations.

Final-Value: -13.867


	FINAL GENETIC ALGORITHM DOCKED STATE
	_______________________________________________


Detailed state:  trans 39.420 14.300 119.406 quatxyzw -0.226928 0.951993 0.126905 -0.161579 center -0.037 -0.159 0.371 ntor 9 5.2775 -57.0514 16.9315 -142.2025 118.7358 -160.3064 -47.0839 45.5841 -112.5461
State:	 39.420  14.300 119.406  -0.230  0.965  0.129 -161.403      5.28  -57.05   16.93 -142.20  118.74 -160.31  -47.08   45.58 -112.55

DOCKED: MODEL       26
DOCKED: USER    Run = 26
DOCKED: USER    DPF = ligand_dock.biased.dpf
DOCKED: USER  
DOCKED: USER    Estimated Free Energy of Binding    =   -9.88 kcal/mol  [=(1)+(2)+(3)-(4)]
DOCKED: USER    Estimated Inhibition Constant, Ki   =   57.64 nM (nanomolar)  [Temperature = 298.15 K]
DOCKED: USER    
DOCKED: USER    (1) Final Intermolecular Energy     =  -12.56 kcal/mol
DOCKED: USER        vdW + Hbond + desolv Energy     =  -12.56 kcal/mol
DOCKED: USER        Electrostatic Energy            =   +0.00 kcal/mol
DOCKED: USER    (2) Final Total Internal Energy     =   -1.31 kcal/mol
DOCKED: USER    (3) Torsional Free Energy           =   +2.68 kcal/mol
DOCKED: USER    (4) Unbound System's Energy  [=(2)] =   -1.31 kcal/mol
DOCKED: USER    
DOCKED: USER    
DOCKED: USER    NEWDPF move ligand.dum.pdbqt
DOCKED: USER    NEWDPF about -0.037000 -0.159000 0.371000
DOCKED: USER    NEWDPF tran0 39.419700 14.299667 119.405761
DOCKED: USER    NEWDPF quaternion0 -0.226928 0.951993 0.126905 -0.161579
DOCKED: USER    NEWDPF axisangle0 -0.229949 0.964669 0.128595 -161.402876
DOCKED: USER    NEWDPF quat0 -0.229949 0.964669 0.128595 -161.402876
DOCKED: USER    NEWDPF dihe0 5.28 -57.05 16.93 -142.20 118.74 -160.31 -47.08 45.58 -112.55 
DOCKED: USER  keepresnum = 1 
DOCKED: USER  
DOCKED: REMARK  Name = 
DOCKED: REMARK  9 active torsions:
DOCKED: REMARK  status: ('A' for Active; 'I' for Inactive)
DOCKED: REMARK    1  A    between atoms: C_2  and  C_10
DOCKED: REMARK    2  A    between atoms: N_3  and  C_4
DOCKED: REMARK    3  A    between atoms: C_10  and  C_11
DOCKED: REMARK    4  A    between atoms: C_11  and  C_12
DOCKED: REMARK    5  A    between atoms: C_12  and  C_13
DOCKED: REMARK    6  A    between atoms: C_13  and  C_14
DOCKED: REMARK    7  A    between atoms: C_14  and  C_15
DOCKED: REMARK    8  A    between atoms: C_15  and  C_16
DOCKED: REMARK    9  A    between atoms: N_17  and  O_18
DOCKED: REMARK                            x       y       z     vdW  Elec       q    Type
DOCKED: REMARK                         _______ _______ _______ _____ _____    ______ ____
DOCKED: USER                              x       y       z     vdW  Elec       q    Type
DOCKED: USER                           _______ _______ _______ _____ _____    ______ ____
DOCKED: ROOT
DOCKED: ATOM      1  C   UNL     1      38.675  15.264 121.838 -0.33 -0.00    +0.000 C 
DOCKED: ENDROOT
DOCKED: BRANCH   1   3
DOCKED: ATOM      2  O   UNL     1      40.753  14.099 121.958 -1.03 +0.00    +0.000 OA
DOCKED: ATOM      3  C   UNL     1      40.166  15.214 121.984 -0.40 -0.00    +0.000 C 
DOCKED: ATOM      4  N   UNL     1      40.911  16.431 122.153 -0.25 -0.00    +0.000 N 
DOCKED: ATOM      5  H   UNL     1      40.411  17.259 122.332 +0.00 -0.00    +0.000 HD
DOCKED: BRANCH   4   6
DOCKED: ATOM      6  C   UNL     1      42.344  16.509 122.078 -0.32 -0.00    +0.000 A 
DOCKED: ATOM      7  C   UNL     1      43.047  16.029 120.956 -0.25 -0.00    +0.000 A 
DOCKED: ATOM      8  C   UNL     1      44.440  16.140 120.898 -0.23 +0.00    +0.000 A 
DOCKED: ATOM      9  C   UNL     1      45.140  16.740 121.947 -0.26 +0.00    +0.000 A 
DOCKED: ATOM     10  C   UNL     1      44.448  17.238 123.054 -0.21 -0.00    +0.000 A 
DOCKED: ATOM     11  C   UNL     1      43.055  17.131 123.116 -0.32 -0.00    +0.000 A 
DOCKED: ATOM     12  CM  UNL     1      43.746  16.631 122.008 +0.00 -0.00    +0.000 AC
DOCKED: ENDBRANCH   4   6
DOCKED: ENDBRANCH   1   3
DOCKED: BRANCH   1  12
DOCKED: ATOM     13  C   UNL     1      38.234  14.474 120.602 -0.33 -0.00    +0.000 C 
DOCKED: BRANCH  12  13
DOCKED: ATOM     14  C   UNL     1      38.492  12.971 120.788 -0.32 -0.00    +0.000 C 
DOCKED: BRANCH  13  14
DOCKED: ATOM     15  C   UNL     1      37.253  12.118 120.475 -0.50 -0.00    +0.000 C 
DOCKED: BRANCH  14  15
DOCKED: ATOM     16  C   UNL     1      36.332  11.945 121.697 -0.51 -0.00    +0.000 C 
DOCKED: BRANCH  15  16
DOCKED: ATOM     17  C   UNL     1      36.981  11.090 122.795 -0.63 -0.00    +0.000 C 
DOCKED: BRANCH  16  17
DOCKED: ATOM     18  C   UNL     1      37.024   9.638 122.418 -0.61 -0.00    +0.000 C 
DOCKED: ATOM     19  N   UNL     1      37.064   8.627 123.428 -0.66 -0.00    +0.000 N 
DOCKED: ATOM     20  O   UNL     1      36.995   9.309 121.201 -2.64 -0.00    +0.000 OA
DOCKED: ATOM     21  H   UNL     1      37.088   8.888 124.377 -0.52 -0.00    +0.000 HD
DOCKED: BRANCH  18  21
DOCKED: ATOM     22  O   UNL     1      37.068   7.316 123.091 -2.14 -0.00    +0.000 OA
DOCKED: ATOM     23  H   UNL     1      37.124   7.231 122.127 -0.10 -0.00    +0.000 HD
DOCKED: ENDBRANCH  18  21
DOCKED: ENDBRANCH  16  17
DOCKED: ENDBRANCH  15  16
DOCKED: ENDBRANCH  14  15
DOCKED: ENDBRANCH  13  14
DOCKED: ENDBRANCH  12  13
DOCKED: ENDBRANCH   1  12
DOCKED: TORSDOF 9DOCKED: TER
DOCKED: ENDMDL
________________________________________________________________________________


	BEGINNING GENETIC ALGORITHM DOCKING 27 of 100
Run: 27 Seed: 1378916842 2069807778 [ Run 27 of 100 GA/GALS ]
Beginning LAMARCKIAN GENETIC ALGORITHM (LGA), with a maximum of 2500000 energy evaluations.

Final-Value: -13.892


	FINAL GENETIC ALGORITHM DOCKED STATE
	_______________________________________________


Detailed state:  trans 37.600 14.036 121.989 quatxyzw -0.110539 -0.529456 0.411336 0.733662 center -0.037 -0.159 0.371 ntor 9 22.5749 -126.2226 -138.7362 171.4672 96.2801 -171.7009 37.2548 179.8049 179.9406
State:	 37.600  14.036 121.989  -0.163 -0.779  0.605 85.611     22.57 -126.22 -138.74  171.47   96.28 -171.70   37.25  179.80  179.94

DOCKED: MODEL       27
DOCKED: USER    Run = 27
DOCKED: USER    DPF = ligand_dock.biased.dpf
DOCKED: USER  
DOCKED: USER    Estimated Free Energy of Binding    =   -9.87 kcal/mol  [=(1)+(2)+(3)-(4)]
DOCKED: USER    Estimated Inhibition Constant, Ki   =   58.64 nM (nanomolar)  [Temperature = 298.15 K]
DOCKED: USER    
DOCKED: USER    (1) Final Intermolecular Energy     =  -12.55 kcal/mol
DOCKED: USER        vdW + Hbond + desolv Energy     =  -12.55 kcal/mol
DOCKED: USER        Electrostatic Energy            =   +0.00 kcal/mol
DOCKED: USER    (2) Final Total Internal Energy     =   -1.34 kcal/mol
DOCKED: USER    (3) Torsional Free Energy           =   +2.68 kcal/mol
DOCKED: USER    (4) Unbound System's Energy  [=(2)] =   -1.34 kcal/mol
DOCKED: USER    
DOCKED: USER    
DOCKED: USER    NEWDPF move ligand.dum.pdbqt
DOCKED: USER    NEWDPF about -0.037000 -0.159000 0.371000
DOCKED: USER    NEWDPF tran0 37.600471 14.036299 121.988759
DOCKED: USER    NEWDPF quaternion0 -0.110539 -0.529456 0.411336 0.733662
DOCKED: USER    NEWDPF axisangle0 -0.162673 -0.779168 0.605338 85.611387
DOCKED: USER    NEWDPF quat0 -0.162673 -0.779168 0.605338 85.611387
DOCKED: USER    NEWDPF dihe0 22.57 -126.22 -138.74 171.47 96.28 -171.70 37.25 179.80 179.94 
DOCKED: USER  keepresnum = 1 
DOCKED: USER  
DOCKED: REMARK  Name = 
DOCKED: REMARK  9 active torsions:
DOCKED: REMARK  status: ('A' for Active; 'I' for Inactive)
DOCKED: REMARK    1  A    between atoms: C_2  and  C_10
DOCKED: REMARK    2  A    between atoms: N_3  and  C_4
DOCKED: REMARK    3  A    between atoms: C_10  and  C_11
DOCKED: REMARK    4  A    between atoms: C_11  and  C_12
DOCKED: REMARK    5  A    between atoms: C_12  and  C_13
DOCKED: REMARK    6  A    between atoms: C_13  and  C_14
DOCKED: REMARK    7  A    between atoms: C_14  and  C_15
DOCKED: REMARK    8  A    between atoms: C_15  and  C_16
DOCKED: REMARK    9  A    between atoms: N_17  and  O_18
DOCKED: REMARK                            x       y       z     vdW  Elec       q    Type
DOCKED: REMARK                         _______ _______ _______ _____ _____    ______ ____
DOCKED: USER                              x       y       z     vdW  Elec       q    Type
DOCKED: USER                           _______ _______ _______ _____ _____    ______ ____
DOCKED: ROOT
DOCKED: ATOM      1  C   UNL     1      37.240  16.623 121.229 -0.18 -0.00    +0.000 C 
DOCKED: ENDROOT
DOCKED: BRANCH   1   3
DOCKED: ATOM      2  O   UNL     1      37.560  16.525 123.592 -0.31 -0.00    +0.000 OA
DOCKED: ATOM      3  C   UNL     1      36.740  16.658 122.643 -0.27 -0.00    +0.000 C 
DOCKED: ATOM      4  N   UNL     1      35.340  16.842 122.904 -0.32 -0.00    +0.000 N 
DOCKED: ATOM      5  H   UNL     1      34.715  16.780 122.146 -0.02 -0.00    +0.000 HD
DOCKED: BRANCH   4   6
DOCKED: ATOM      6  C   UNL     1      34.798  17.112 124.207 -0.38 -0.00    +0.000 A 
DOCKED: ATOM      7  C   UNL     1      34.186  16.100 124.972 -0.47 -0.00    +0.000 A 
DOCKED: ATOM      8  C   UNL     1      33.689  16.385 126.247 -0.37 -0.00    +0.000 A 
DOCKED: ATOM      9  C   UNL     1      33.809  17.673 126.776 -0.31 -0.00    +0.000 A 
DOCKED: ATOM     10  C   UNL     1      34.434  18.677 126.032 -0.25 -0.00    +0.000 A 
DOCKED: ATOM     11  C   UNL     1      34.934  18.397 124.757 -0.28 -0.00    +0.000 A 
DOCKED: ATOM     12  CM  UNL     1      34.308  17.391 125.499 -0.30 -0.00    +0.000 AC
DOCKED: ENDBRANCH   4   6
DOCKED: ENDBRANCH   1   3
DOCKED: BRANCH   1  12
DOCKED: ATOM     13  C   UNL     1      37.391  15.175 120.753 -0.26 -0.00    +0.000 C 
DOCKED: BRANCH  12  13
DOCKED: ATOM     14  C   UNL     1      36.992  14.187 121.859 -0.36 -0.00    +0.000 C 
DOCKED: BRANCH  13  14
DOCKED: ATOM     15  C   UNL     1      37.824  12.895 121.822 -0.44 -0.00    +0.000 C 
DOCKED: BRANCH  14  15
DOCKED: ATOM     16  C   UNL     1      37.090  11.742 121.114 -0.53 -0.00    +0.000 C 
DOCKED: BRANCH  15  16
DOCKED: ATOM     17  C   UNL     1      36.253  10.902 122.088 -0.62 -0.00    +0.000 C 
DOCKED: BRANCH  16  17
DOCKED: ATOM     18  C   UNL     1      36.701   9.469 122.114 -0.70 -0.00    +0.000 C 
DOCKED: ATOM     19  N   UNL     1      36.835   8.774 123.357 -0.63 -0.00    +0.000 N 
DOCKED: ATOM     20  O   UNL     1      36.932   8.868 121.031 -2.67 -0.00    +0.000 OA
DOCKED: ATOM     21  H   UNL     1      36.656   9.247 124.202 -0.47 -0.00    +0.000 HD
DOCKED: BRANCH  18  21
DOCKED: ATOM     22  O   UNL     1      37.205   7.472 123.381 -2.13 -0.00    +0.000 OA
DOCKED: ATOM     23  H   UNL     1      37.675   7.255 122.561 -0.27 -0.00    +0.000 HD
DOCKED: ENDBRANCH  18  21
DOCKED: ENDBRANCH  16  17
DOCKED: ENDBRANCH  15  16
DOCKED: ENDBRANCH  14  15
DOCKED: ENDBRANCH  13  14
DOCKED: ENDBRANCH  12  13
DOCKED: ENDBRANCH   1  12
DOCKED: TORSDOF 9DOCKED: TER
DOCKED: ENDMDL
________________________________________________________________________________


	BEGINNING GENETIC ALGORITHM DOCKING 28 of 100
Run: 28 Seed: 414307979 1101504611 [ Run 28 of 100 GA/GALS ]
Beginning LAMARCKIAN GENETIC ALGORITHM (LGA), with a maximum of 2500000 energy evaluations.

Final-Value: -13.761


	FINAL GENETIC ALGORITHM DOCKED STATE
	_______________________________________________


Detailed state:  trans 36.362 13.704 121.552 quatxyzw 0.455311 -0.057125 -0.686727 -0.563768 center -0.037 -0.159 0.371 ntor 9 2.9178 128.0003 -124.5678 82.7910 -177.7130 -167.3476 123.2733 23.9086 137.2236
State:	 36.362  13.704 121.552   0.551 -0.069 -0.831 -111.367      2.92  128.00 -124.57   82.79 -177.71 -167.35  123.27   23.91  137.22

DOCKED: MODEL       28
DOCKED: USER    Run = 28
DOCKED: USER    DPF = ligand_dock.biased.dpf
DOCKED: USER  
DOCKED: USER    Estimated Free Energy of Binding    =   -9.41 kcal/mol  [=(1)+(2)+(3)-(4)]
DOCKED: USER    Estimated Inhibition Constant, Ki   =  127.59 nM (nanomolar)  [Temperature = 298.15 K]
DOCKED: USER    
DOCKED: USER    (1) Final Intermolecular Energy     =  -12.09 kcal/mol
DOCKED: USER        vdW + Hbond + desolv Energy     =  -12.09 kcal/mol
DOCKED: USER        Electrostatic Energy            =   +0.00 kcal/mol
DOCKED: USER    (2) Final Total Internal Energy     =   -1.67 kcal/mol
DOCKED: USER    (3) Torsional Free Energy           =   +2.68 kcal/mol
DOCKED: USER    (4) Unbound System's Energy  [=(2)] =   -1.67 kcal/mol
DOCKED: USER    
DOCKED: USER    
DOCKED: USER    NEWDPF move ligand.dum.pdbqt
DOCKED: USER    NEWDPF about -0.037000 -0.159000 0.371000
DOCKED: USER    NEWDPF tran0 36.361817 13.703897 121.552207
DOCKED: USER    NEWDPF quaternion0 0.455311 -0.057125 -0.686727 -0.563768
DOCKED: USER    NEWDPF axisangle0 0.551269 -0.069164 -0.831456 -111.366499
DOCKED: USER    NEWDPF quat0 0.551269 -0.069164 -0.831456 -111.366499
DOCKED: USER    NEWDPF dihe0 2.92 128.00 -124.57 82.79 -177.71 -167.35 123.27 23.91 137.22 
DOCKED: USER  keepresnum = 1 
DOCKED: USER  
DOCKED: REMARK  Name = 
DOCKED: REMARK  9 active torsions:
DOCKED: REMARK  status: ('A' for Active; 'I' for Inactive)
DOCKED: REMARK    1  A    between atoms: C_2  and  C_10
DOCKED: REMARK    2  A    between atoms: N_3  and  C_4
DOCKED: REMARK    3  A    between atoms: C_10  and  C_11
DOCKED: REMARK    4  A    between atoms: C_11  and  C_12
DOCKED: REMARK    5  A    between atoms: C_12  and  C_13
DOCKED: REMARK    6  A    between atoms: C_13  and  C_14
DOCKED: REMARK    7  A    between atoms: C_14  and  C_15
DOCKED: REMARK    8  A    between atoms: C_15  and  C_16
DOCKED: REMARK    9  A    between atoms: N_17  and  O_18
DOCKED: REMARK                            x       y       z     vdW  Elec       q    Type
DOCKED: REMARK                         _______ _______ _______ _____ _____    ______ ____
DOCKED: USER                              x       y       z     vdW  Elec       q    Type
DOCKED: USER                           _______ _______ _______ _____ _____    ______ ____
DOCKED: ROOT
DOCKED: ATOM      1  C   UNL     1      38.937  14.576 121.633 -0.39 -0.00    +0.000 C 
DOCKED: ENDROOT
DOCKED: BRANCH   1   3
DOCKED: ATOM      2  O   UNL     1      37.756  16.600 121.182 -0.16 -0.00    +0.000 OA
DOCKED: ATOM      3  C   UNL     1      38.195  15.807 122.059 -0.27 -0.00    +0.000 C 
DOCKED: ATOM      4  N   UNL     1      37.992  16.074 123.456 -0.30 -0.00    +0.000 N 
DOCKED: ATOM      5  H   UNL     1      38.484  15.526 124.109 -0.01 -0.00    +0.000 HD
DOCKED: BRANCH   4   6
DOCKED: ATOM      6  C   UNL     1      37.112  17.094 123.955 -0.21 -0.00    +0.000 A 
DOCKED: ATOM      7  C   UNL     1      37.552  18.419 124.137 -0.16 -0.00    +0.000 A 
DOCKED: ATOM      8  C   UNL     1      36.668  19.397 124.602 -0.15 -0.00    +0.000 A 
DOCKED: ATOM      9  C   UNL     1      35.337  19.068 124.876 -0.21 -0.00    +0.000 A 
DOCKED: ATOM     10  C   UNL     1      34.888  17.760 124.677 -0.33 -0.00    +0.000 A 
DOCKED: ATOM     11  C   UNL     1      35.768  16.778 124.211 -0.33 -0.00    +0.000 A 
DOCKED: ATOM     12  CM  UNL     1      36.220  18.086 124.410 -0.10 -0.00    +0.000 AC
DOCKED: ENDBRANCH   4   6
DOCKED: ENDBRANCH   1   3
DOCKED: BRANCH   1  12
DOCKED: ATOM     13  C   UNL     1      37.968  13.548 121.040 -0.43 -0.00    +0.000 C 
DOCKED: BRANCH  12  13
DOCKED: ATOM     14  C   UNL     1      36.686  13.451 121.879 -0.37 -0.00    +0.000 C 
DOCKED: BRANCH  13  14
DOCKED: ATOM     15  C   UNL     1      36.961  13.017 123.327 -0.61 -0.00    +0.000 C 
DOCKED: BRANCH  14  15
DOCKED: ATOM     16  C   UNL     1      36.817  11.497 123.524 -0.69 -0.00    +0.000 C 
DOCKED: BRANCH  15  16
DOCKED: ATOM     17  C   UNL     1      36.328  10.791 122.251 -0.66 -0.00    +0.000 C 
DOCKED: BRANCH  16  17
DOCKED: ATOM     18  C   UNL     1      36.811   9.372 122.181 -0.69 -0.00    +0.000 C 
DOCKED: ATOM     19  N   UNL     1      37.031   8.620 123.378 -0.66 -0.00    +0.000 N 
DOCKED: ATOM     20  O   UNL     1      36.995   8.830 121.057 -2.67 -0.00    +0.000 OA
DOCKED: ATOM     21  H   UNL     1      36.889   9.047 124.254 -0.49 -0.00    +0.000 HD
DOCKED: BRANCH  18  21
DOCKED: ATOM     22  O   UNL     1      37.433   7.329 123.316 -1.95 -0.00    +0.000 OA
DOCKED: ATOM     23  H   UNL     1      37.570   7.078 122.390 -0.27 -0.00    +0.000 HD
DOCKED: ENDBRANCH  18  21
DOCKED: ENDBRANCH  16  17
DOCKED: ENDBRANCH  15  16
DOCKED: ENDBRANCH  14  15
DOCKED: ENDBRANCH  13  14
DOCKED: ENDBRANCH  12  13
DOCKED: ENDBRANCH   1  12
DOCKED: TORSDOF 9DOCKED: TER
DOCKED: ENDMDL
________________________________________________________________________________


	BEGINNING GENETIC ALGORITHM DOCKING 29 of 100
Run: 29 Seed: 332482391 869594499 [ Run 29 of 100 GA/GALS ]
Beginning LAMARCKIAN GENETIC ALGORITHM (LGA), with a maximum of 2500000 energy evaluations.

Final-Value: -13.961


	FINAL GENETIC ALGORITHM DOCKED STATE
	_______________________________________________


Detailed state:  trans 37.250 15.841 124.334 quatxyzw -0.763589 0.415404 -0.194732 -0.454369 center -0.037 -0.159 0.371 ntor 9 2.4433 -147.3010 -36.8883 -174.3927 79.3246 60.2586 60.3091 175.2882 51.5486
State:	 37.250  15.841 124.334  -0.857  0.466 -0.219 -125.951      2.44 -147.30  -36.89 -174.39   79.32   60.26   60.31  175.29   51.55

DOCKED: MODEL       29
DOCKED: USER    Run = 29
DOCKED: USER    DPF = ligand_dock.biased.dpf
DOCKED: USER  
DOCKED: USER    Estimated Free Energy of Binding    =  -10.16 kcal/mol  [=(1)+(2)+(3)-(4)]
DOCKED: USER    Estimated Inhibition Constant, Ki   =   35.51 nM (nanomolar)  [Temperature = 298.15 K]
DOCKED: USER    
DOCKED: USER    (1) Final Intermolecular Energy     =  -12.85 kcal/mol
DOCKED: USER        vdW + Hbond + desolv Energy     =  -12.85 kcal/mol
DOCKED: USER        Electrostatic Energy            =   +0.00 kcal/mol
DOCKED: USER    (2) Final Total Internal Energy     =   -1.11 kcal/mol
DOCKED: USER    (3) Torsional Free Energy           =   +2.68 kcal/mol
DOCKED: USER    (4) Unbound System's Energy  [=(2)] =   -1.11 kcal/mol
DOCKED: USER    
DOCKED: USER    
DOCKED: USER    NEWDPF move ligand.dum.pdbqt
DOCKED: USER    NEWDPF about -0.037000 -0.159000 0.371000
DOCKED: USER    NEWDPF tran0 37.249817 15.841371 124.333641
DOCKED: USER    NEWDPF quaternion0 -0.763589 0.415404 -0.194732 -0.454369
DOCKED: USER    NEWDPF axisangle0 -0.857181 0.466320 -0.218600 -125.951289
DOCKED: USER    NEWDPF quat0 -0.857181 0.466320 -0.218600 -125.951289
DOCKED: USER    NEWDPF dihe0 2.44 -147.30 -36.89 -174.39 79.32 60.26 60.31 175.29 51.55 
DOCKED: USER  keepresnum = 1 
DOCKED: USER  
DOCKED: REMARK  Name = 
DOCKED: REMARK  9 active torsions:
DOCKED: REMARK  status: ('A' for Active; 'I' for Inactive)
DOCKED: REMARK    1  A    between atoms: C_2  and  C_10
DOCKED: REMARK    2  A    between atoms: N_3  and  C_4
DOCKED: REMARK    3  A    between atoms: C_10  and  C_11
DOCKED: REMARK    4  A    between atoms: C_11  and  C_12
DOCKED: REMARK    5  A    between atoms: C_12  and  C_13
DOCKED: REMARK    6  A    between atoms: C_13  and  C_14
DOCKED: REMARK    7  A    between atoms: C_14  and  C_15
DOCKED: REMARK    8  A    between atoms: C_15  and  C_16
DOCKED: REMARK    9  A    between atoms: N_17  and  O_18
DOCKED: REMARK                            x       y       z     vdW  Elec       q    Type
DOCKED: REMARK                         _______ _______ _______ _____ _____    ______ ____
DOCKED: USER                              x       y       z     vdW  Elec       q    Type
DOCKED: USER                           _______ _______ _______ _____ _____    ______ ____
DOCKED: ROOT
DOCKED: ATOM      1  C   UNL     1      34.728  14.849 124.097 -0.53 -0.00    +0.000 C 
DOCKED: ENDROOT
DOCKED: BRANCH   1   3
DOCKED: ATOM      2  O   UNL     1      34.737  17.235 124.052 -0.41 -0.00    +0.000 OA
DOCKED: ATOM      3  C   UNL     1      34.461  16.193 124.706 -0.55 -0.00    +0.000 C 
DOCKED: ATOM      4  N   UNL     1      33.896  16.283 126.024 -0.47 -0.00    +0.000 N 
DOCKED: ATOM      5  H   UNL     1      33.846  15.462 126.564 -0.05 -0.00    +0.000 HD
DOCKED: BRANCH   4   6
DOCKED: ATOM      6  C   UNL     1      33.399  17.502 126.599 -0.32 -0.00    +0.000 A 
DOCKED: ATOM      7  C   UNL     1      33.427  18.716 125.886 -0.28 -0.00    +0.000 A 
DOCKED: ATOM      8  C   UNL     1      32.914  19.883 126.461 -0.21 -0.00    +0.000 A 
DOCKED: ATOM      9  C   UNL     1      32.358  19.848 127.743 -0.16 -0.00    +0.000 A 
DOCKED: ATOM     10  C   UNL     1      32.307  18.643 128.449 -0.17 -0.00    +0.000 A 
DOCKED: ATOM     11  C   UNL     1      32.817  17.473 127.877 -0.31 -0.00    +0.000 A 
DOCKED: ATOM     12  CM  UNL     1      32.870  18.678 127.170 +0.00 -0.00    +0.000 AC
DOCKED: ENDBRANCH   4   6
DOCKED: ENDBRANCH   1   3
DOCKED: BRANCH   1  12
DOCKED: ATOM     13  C   UNL     1      36.218  14.506 124.196 -0.39 -0.00    +0.000 C 
DOCKED: BRANCH  12  13
DOCKED: ATOM     14  C   UNL     1      36.780  14.090 122.829 -0.50 -0.00    +0.000 C 
DOCKED: BRANCH  13  14
DOCKED: ATOM     15  C   UNL     1      37.422  12.694 122.856 -0.58 -0.00    +0.000 C 
DOCKED: BRANCH  14  15
DOCKED: ATOM     16  C   UNL     1      36.975  11.817 121.673 -0.57 -0.00    +0.000 C 
DOCKED: BRANCH  15  16
DOCKED: ATOM     17  C   UNL     1      36.009  10.705 122.108 -0.58 -0.00    +0.000 C 
DOCKED: BRANCH  16  17
DOCKED: ATOM     18  C   UNL     1      36.680   9.363 122.130 -0.71 -0.00    +0.000 C 
DOCKED: ATOM     19  N   UNL     1      36.846   8.656 123.362 -0.65 -0.00    +0.000 N 
DOCKED: ATOM     20  O   UNL     1      37.072   8.843 121.050 -2.70 -0.00    +0.000 OA
DOCKED: ATOM     21  H   UNL     1      36.541   9.065 124.204 -0.41 -0.00    +0.000 HD
DOCKED: BRANCH  18  21
DOCKED: ATOM     22  O   UNL     1      37.419   7.429 123.380 -2.02 -0.00    +0.000 OA
DOCKED: ATOM     23  H   UNL     1      37.696   7.189 122.482 -0.28 -0.00    +0.000 HD
DOCKED: ENDBRANCH  18  21
DOCKED: ENDBRANCH  16  17
DOCKED: ENDBRANCH  15  16
DOCKED: ENDBRANCH  14  15
DOCKED: ENDBRANCH  13  14
DOCKED: ENDBRANCH  12  13
DOCKED: ENDBRANCH   1  12
DOCKED: TORSDOF 9DOCKED: TER
DOCKED: ENDMDL
________________________________________________________________________________


	BEGINNING GENETIC ALGORITHM DOCKING 30 of 100
Run: 30 Seed: 1725053211 1264181463 [ Run 30 of 100 GA/GALS ]
Beginning LAMARCKIAN GENETIC ALGORITHM (LGA), with a maximum of 2500000 energy evaluations.

Final-Value: -13.465


	FINAL GENETIC ALGORITHM DOCKED STATE
	_______________________________________________


Detailed state:  trans 39.755 14.061 124.247 quatxyzw -0.119848 0.377890 -0.895728 -0.201263 center -0.037 -0.159 0.371 ntor 9 -12.7388 -135.1885 -131.7790 155.1191 2.8293 -148.9266 -32.4203 110.6662 -54.6012
State:	 39.755  14.061 124.247  -0.122  0.386 -0.914 -156.778    -12.74 -135.19 -131.78  155.12    2.83 -148.93  -32.42  110.67  -54.60

DOCKED: MODEL       30
DOCKED: USER    Run = 30
DOCKED: USER    DPF = ligand_dock.biased.dpf
DOCKED: USER  
DOCKED: USER    Estimated Free Energy of Binding    =   -9.56 kcal/mol  [=(1)+(2)+(3)-(4)]
DOCKED: USER    Estimated Inhibition Constant, Ki   =   97.86 nM (nanomolar)  [Temperature = 298.15 K]
DOCKED: USER    
DOCKED: USER    (1) Final Intermolecular Energy     =  -12.25 kcal/mol
DOCKED: USER        vdW + Hbond + desolv Energy     =  -12.25 kcal/mol
DOCKED: USER        Electrostatic Energy            =   +0.00 kcal/mol
DOCKED: USER    (2) Final Total Internal Energy     =   -1.22 kcal/mol
DOCKED: USER    (3) Torsional Free Energy           =   +2.68 kcal/mol
DOCKED: USER    (4) Unbound System's Energy  [=(2)] =   -1.22 kcal/mol
DOCKED: USER    
DOCKED: USER    
DOCKED: USER    NEWDPF move ligand.dum.pdbqt
DOCKED: USER    NEWDPF about -0.037000 -0.159000 0.371000
DOCKED: USER    NEWDPF tran0 39.754547 14.060674 124.246954
DOCKED: USER    NEWDPF quaternion0 -0.119848 0.377890 -0.895728 -0.201263
DOCKED: USER    NEWDPF axisangle0 -0.122352 0.385784 -0.914440 -156.778317
DOCKED: USER    NEWDPF quat0 -0.122352 0.385784 -0.914440 -156.778317
DOCKED: USER    NEWDPF dihe0 -12.74 -135.19 -131.78 155.12 2.83 -148.93 -32.42 110.67 -54.60 
DOCKED: USER  keepresnum = 1 
DOCKED: USER  
DOCKED: REMARK  Name = 
DOCKED: REMARK  9 active torsions:
DOCKED: REMARK  status: ('A' for Active; 'I' for Inactive)
DOCKED: REMARK    1  A    between atoms: C_2  and  C_10
DOCKED: REMARK    2  A    between atoms: N_3  and  C_4
DOCKED: REMARK    3  A    between atoms: C_10  and  C_11
DOCKED: REMARK    4  A    between atoms: C_11  and  C_12
DOCKED: REMARK    5  A    between atoms: C_12  and  C_13
DOCKED: REMARK    6  A    between atoms: C_13  and  C_14
DOCKED: REMARK    7  A    between atoms: C_14  and  C_15
DOCKED: REMARK    8  A    between atoms: C_15  and  C_16
DOCKED: REMARK    9  A    between atoms: N_17  and  O_18
DOCKED: REMARK                            x       y       z     vdW  Elec       q    Type
DOCKED: REMARK                         _______ _______ _______ _____ _____    ______ ____
DOCKED: USER                              x       y       z     vdW  Elec       q    Type
DOCKED: USER                           _______ _______ _______ _____ _____    ______ ____
DOCKED: ROOT
DOCKED: ATOM      1  C   UNL     1      39.978  14.663 121.604 -0.32 -0.00    +0.000 C 
DOCKED: ENDROOT
DOCKED: BRANCH   1   3
DOCKED: ATOM      2  O   UNL     1      41.203  15.553 123.448 -0.88 +0.00    +0.000 OA
DOCKED: ATOM      3  C   UNL     1      41.016  15.565 122.201 -0.43 -0.00    +0.000 C 
DOCKED: ATOM      4  N   UNL     1      41.786  16.432 121.353 -0.22 -0.00    +0.000 N 
DOCKED: ATOM      5  H   UNL     1      41.503  16.533 120.415 +0.00 -0.00    +0.000 HD
DOCKED: BRANCH   4   6
DOCKED: ATOM      6  C   UNL     1      42.944  17.160 121.793 -0.23 -0.00    +0.000 A 
DOCKED: ATOM      7  C   UNL     1      42.847  18.491 122.243 -0.15 -0.00    +0.000 A 
DOCKED: ATOM      8  C   UNL     1      43.986  19.168 122.689 -0.14 -0.00    +0.000 A 
DOCKED: ATOM      9  C   UNL     1      45.226  18.523 122.703 -0.21 -0.00    +0.000 A 
DOCKED: ATOM     10  C   UNL     1      45.326  17.195 122.278 -0.28 -0.00    +0.000 A 
DOCKED: ATOM     11  C   UNL     1      44.189  16.514 121.833 -0.24 -0.00    +0.000 A 
DOCKED: ATOM     12  CM  UNL     1      44.087  17.842 122.257 +0.00 -0.00    +0.000 AC
DOCKED: ENDBRANCH   4   6
DOCKED: ENDBRANCH   1   3
DOCKED: BRANCH   1  12
DOCKED: ATOM     13  C   UNL     1      39.068  14.099 122.699 -0.27 -0.00    +0.000 C 
DOCKED: BRANCH  12  13
DOCKED: ATOM     14  C   UNL     1      37.591  14.390 122.393 -0.44 -0.00    +0.000 C 
DOCKED: BRANCH  13  14
DOCKED: ATOM     15  C   UNL     1      36.663  13.244 122.825 -0.57 -0.00    +0.000 C 
DOCKED: BRANCH  14  15
DOCKED: ATOM     16  C   UNL     1      36.725  12.043 121.864 -0.58 -0.00    +0.000 C 
DOCKED: BRANCH  15  16
DOCKED: ATOM     17  C   UNL     1      35.868  10.866 122.352 -0.65 -0.00    +0.000 C 
DOCKED: BRANCH  16  17
DOCKED: ATOM     18  C   UNL     1      36.589   9.557 122.212 -0.70 -0.00    +0.000 C 
DOCKED: ATOM     19  N   UNL     1      36.712   8.674 123.331 -0.64 -0.00    +0.000 N 
DOCKED: ATOM     20  O   UNL     1      37.063   9.222 121.093 -2.74 -0.00    +0.000 OA
DOCKED: ATOM     21  H   UNL     1      36.343   8.939 124.204 -0.34 -0.00    +0.000 HD
DOCKED: BRANCH  18  21
DOCKED: ATOM     22  O   UNL     1      37.332   7.478 123.198 -2.08 -0.00    +0.000 OA
DOCKED: ATOM     23  H   UNL     1      37.456   7.280 122.257 -0.15 -0.00    +0.000 HD
DOCKED: ENDBRANCH  18  21
DOCKED: ENDBRANCH  16  17
DOCKED: ENDBRANCH  15  16
DOCKED: ENDBRANCH  14  15
DOCKED: ENDBRANCH  13  14
DOCKED: ENDBRANCH  12  13
DOCKED: ENDBRANCH   1  12
DOCKED: TORSDOF 9DOCKED: TER
DOCKED: ENDMDL
________________________________________________________________________________


	BEGINNING GENETIC ALGORITHM DOCKING 31 of 100
Run: 31 Seed: 1416920078 1087735592 [ Run 31 of 100 GA/GALS ]
Beginning LAMARCKIAN GENETIC ALGORITHM (LGA), with a maximum of 2500000 energy evaluations.

Final-Value: -13.586


	FINAL GENETIC ALGORITHM DOCKED STATE
	_______________________________________________


Detailed state:  trans 37.464 12.552 122.270 quatxyzw 0.080131 -0.260947 0.821653 0.500372 center -0.037 -0.159 0.371 ntor 9 -3.7673 159.5402 -171.3751 34.8786 -159.1051 -165.8597 75.3207 2.9609 -164.6022
State:	 37.464  12.552 122.270   0.093 -0.301  0.949 119.951     -3.77  159.54 -171.38   34.88 -159.11 -165.86   75.32    2.96 -164.60

DOCKED: MODEL       31
DOCKED: USER    Run = 31
DOCKED: USER    DPF = ligand_dock.biased.dpf
DOCKED: USER  
DOCKED: USER    Estimated Free Energy of Binding    =   -9.12 kcal/mol  [=(1)+(2)+(3)-(4)]
DOCKED: USER    Estimated Inhibition Constant, Ki   =  206.20 nM (nanomolar)  [Temperature = 298.15 K]
DOCKED: USER    
DOCKED: USER    (1) Final Intermolecular Energy     =  -11.81 kcal/mol
DOCKED: USER        vdW + Hbond + desolv Energy     =  -11.81 kcal/mol
DOCKED: USER        Electrostatic Energy            =   +0.00 kcal/mol
DOCKED: USER    (2) Final Total Internal Energy     =   -1.78 kcal/mol
DOCKED: USER    (3) Torsional Free Energy           =   +2.68 kcal/mol
DOCKED: USER    (4) Unbound System's Energy  [=(2)] =   -1.78 kcal/mol
DOCKED: USER    
DOCKED: USER    
DOCKED: USER    NEWDPF move ligand.dum.pdbqt
DOCKED: USER    NEWDPF about -0.037000 -0.159000 0.371000
DOCKED: USER    NEWDPF tran0 37.464144 12.552116 122.270302
DOCKED: USER    NEWDPF quaternion0 0.080131 -0.260947 0.821653 0.500372
DOCKED: USER    NEWDPF axisangle0 0.092550 -0.301391 0.948998 119.950812
DOCKED: USER    NEWDPF quat0 0.092550 -0.301391 0.948998 119.950812
DOCKED: USER    NEWDPF dihe0 -3.77 159.54 -171.38 34.88 -159.11 -165.86 75.32 2.96 -164.60 
DOCKED: USER  keepresnum = 1 
DOCKED: USER  
DOCKED: REMARK  Name = 
DOCKED: REMARK  9 active torsions:
DOCKED: REMARK  status: ('A' for Active; 'I' for Inactive)
DOCKED: REMARK    1  A    between atoms: C_2  and  C_10
DOCKED: REMARK    2  A    between atoms: N_3  and  C_4
DOCKED: REMARK    3  A    between atoms: C_10  and  C_11
DOCKED: REMARK    4  A    between atoms: C_11  and  C_12
DOCKED: REMARK    5  A    between atoms: C_12  and  C_13
DOCKED: REMARK    6  A    between atoms: C_13  and  C_14
DOCKED: REMARK    7  A    between atoms: C_14  and  C_15
DOCKED: REMARK    8  A    between atoms: C_15  and  C_16
DOCKED: REMARK    9  A    between atoms: N_17  and  O_18
DOCKED: REMARK                            x       y       z     vdW  Elec       q    Type
DOCKED: REMARK                         _______ _______ _______ _____ _____    ______ ____
DOCKED: USER                              x       y       z     vdW  Elec       q    Type
DOCKED: USER                           _______ _______ _______ _____ _____    ______ ____
DOCKED: ROOT
DOCKED: ATOM      1  C   UNL     1      38.191  13.257 119.746 -0.21 -0.00    +0.000 C 
DOCKED: ENDROOT
DOCKED: BRANCH   1   3
DOCKED: ATOM      2  O   UNL     1      37.505  15.482 120.271 -0.22 -0.00    +0.000 OA
DOCKED: ATOM      3  C   UNL     1      38.343  14.561 120.471 -0.31 -0.00    +0.000 C 
DOCKED: ATOM      4  N   UNL     1      39.435  14.750 121.384 -0.32 -0.00    +0.000 N 
DOCKED: ATOM      5  H   UNL     1      40.154  14.077 121.392 -0.04 -0.00    +0.000 HD
DOCKED: BRANCH   4   6
DOCKED: ATOM      6  C   UNL     1      39.541  15.864 122.286 -0.28 -0.00    +0.000 A 
DOCKED: ATOM      7  C   UNL     1      40.745  16.579 122.431 -0.26 -0.00    +0.000 A 
DOCKED: ATOM      8  C   UNL     1      40.813  17.674 123.298 -0.24 -0.00    +0.000 A 
DOCKED: ATOM      9  C   UNL     1      39.682  18.073 124.015 -0.20 -0.00    +0.000 A 
DOCKED: ATOM     10  C   UNL     1      38.478  17.381 123.860 -0.21 -0.00    +0.000 A 
DOCKED: ATOM     11  C   UNL     1      38.404  16.287 122.994 -0.25 -0.00    +0.000 A 
DOCKED: ATOM     12  CM  UNL     1      39.610  16.976 123.148 +0.00 -0.00    +0.000 AC
DOCKED: ENDBRANCH   4   6
DOCKED: ENDBRANCH   1   3
DOCKED: BRANCH   1  12
DOCKED: ATOM     13  C   UNL     1      37.410  12.257 120.603 -0.53 -0.00    +0.000 C 
DOCKED: BRANCH  12  13
DOCKED: ATOM     14  C   UNL     1      36.692  12.967 121.761 -0.45 -0.00    +0.000 C 
DOCKED: BRANCH  13  14
DOCKED: ATOM     15  C   UNL     1      37.337  12.670 123.124 -0.60 -0.00    +0.000 C 
DOCKED: BRANCH  14  15
DOCKED: ATOM     16  C   UNL     1      36.683  11.473 123.837 -0.69 -0.00    +0.000 C 
DOCKED: BRANCH  15  16
DOCKED: ATOM     17  C   UNL     1      35.796  10.649 122.892 -0.68 -0.00    +0.000 C 
DOCKED: BRANCH  16  17
DOCKED: ATOM     18  C   UNL     1      36.463   9.370 122.477 -0.72 -0.00    +0.000 C 
DOCKED: ATOM     19  N   UNL     1      36.806   8.381 123.451 -0.68 -0.00    +0.000 N 
DOCKED: ATOM     20  O   UNL     1      36.694   9.155 121.256 -2.59 -0.00    +0.000 OA
DOCKED: ATOM     21  H   UNL     1      36.627   8.553 124.404 -0.35 -0.00    +0.000 HD
DOCKED: BRANCH  18  21
DOCKED: ATOM     22  O   UNL     1      37.376   7.213 123.075 -1.81 -0.00    +0.000 OA
DOCKED: ATOM     23  H   UNL     1      37.429   7.176 122.107 -0.17 -0.00    +0.000 HD
DOCKED: ENDBRANCH  18  21
DOCKED: ENDBRANCH  16  17
DOCKED: ENDBRANCH  15  16
DOCKED: ENDBRANCH  14  15
DOCKED: ENDBRANCH  13  14
DOCKED: ENDBRANCH  12  13
DOCKED: ENDBRANCH   1  12
DOCKED: TORSDOF 9DOCKED: TER
DOCKED: ENDMDL
________________________________________________________________________________


	BEGINNING GENETIC ALGORITHM DOCKING 32 of 100
Run: 32 Seed: 526506293 1031458420 [ Run 32 of 100 GA/GALS ]
Beginning LAMARCKIAN GENETIC ALGORITHM (LGA), with a maximum of 2500000 energy evaluations.

Final-Value: -14.496


	FINAL GENETIC ALGORITHM DOCKED STATE
	_______________________________________________


Detailed state:  trans 38.861 12.580 122.498 quatxyzw 0.299323 -0.886324 0.302149 -0.183144 center -0.037 -0.159 0.371 ntor 9 16.3037 41.9488 -162.0209 49.9291 -106.8070 -172.4426 13.4720 118.5285 23.6065
State:	 38.861  12.580 122.498   0.304 -0.902  0.307 -158.894     16.30   41.95 -162.02   49.93 -106.81 -172.44   13.47  118.53   23.61

DOCKED: MODEL       32
DOCKED: USER    Run = 32
DOCKED: USER    DPF = ligand_dock.biased.dpf
DOCKED: USER  
DOCKED: USER    Estimated Free Energy of Binding    =  -10.50 kcal/mol  [=(1)+(2)+(3)-(4)]
DOCKED: USER    Estimated Inhibition Constant, Ki   =   19.94 nM (nanomolar)  [Temperature = 298.15 K]
DOCKED: USER    
DOCKED: USER    (1) Final Intermolecular Energy     =  -13.19 kcal/mol
DOCKED: USER        vdW + Hbond + desolv Energy     =  -13.19 kcal/mol
DOCKED: USER        Electrostatic Energy            =   +0.00 kcal/mol
DOCKED: USER    (2) Final Total Internal Energy     =   -1.31 kcal/mol
DOCKED: USER    (3) Torsional Free Energy           =   +2.68 kcal/mol
DOCKED: USER    (4) Unbound System's Energy  [=(2)] =   -1.31 kcal/mol
DOCKED: USER    
DOCKED: USER    
DOCKED: USER    NEWDPF move ligand.dum.pdbqt
DOCKED: USER    NEWDPF about -0.037000 -0.159000 0.371000
DOCKED: USER    NEWDPF tran0 38.860935 12.579872 122.497988
DOCKED: USER    NEWDPF quaternion0 0.299323 -0.886324 0.302149 -0.183144
DOCKED: USER    NEWDPF axisangle0 0.304473 -0.901573 0.307348 -158.894143
DOCKED: USER    NEWDPF quat0 0.304473 -0.901573 0.307348 -158.894143
DOCKED: USER    NEWDPF dihe0 16.30 41.95 -162.02 49.93 -106.81 -172.44 13.47 118.53 23.61 
DOCKED: USER  keepresnum = 1 
DOCKED: USER  
DOCKED: REMARK  Name = 
DOCKED: REMARK  9 active torsions:
DOCKED: REMARK  status: ('A' for Active; 'I' for Inactive)
DOCKED: REMARK    1  A    between atoms: C_2  and  C_10
DOCKED: REMARK    2  A    between atoms: N_3  and  C_4
DOCKED: REMARK    3  A    between atoms: C_10  and  C_11
DOCKED: REMARK    4  A    between atoms: C_11  and  C_12
DOCKED: REMARK    5  A    between atoms: C_12  and  C_13
DOCKED: REMARK    6  A    between atoms: C_13  and  C_14
DOCKED: REMARK    7  A    between atoms: C_14  and  C_15
DOCKED: REMARK    8  A    between atoms: C_15  and  C_16
DOCKED: REMARK    9  A    between atoms: N_17  and  O_18
DOCKED: REMARK                            x       y       z     vdW  Elec       q    Type
DOCKED: REMARK                         _______ _______ _______ _____ _____    ______ ____
DOCKED: USER                              x       y       z     vdW  Elec       q    Type
DOCKED: USER                           _______ _______ _______ _____ _____    ______ ____
DOCKED: ROOT
DOCKED: ATOM      1  C   UNL     1      38.620  15.226 123.079 -0.30 -0.00    +0.000 C 
DOCKED: ENDROOT
DOCKED: BRANCH   1   3
DOCKED: ATOM      2  O   UNL     1      40.450  14.095 122.048 -1.05 +0.00    +0.000 OA
DOCKED: ATOM      3  C   UNL     1      40.028  15.164 122.566 -0.40 -0.00    +0.000 C 
DOCKED: ATOM      4  N   UNL     1      40.880  16.315 122.668 -0.31 -0.00    +0.000 N 
DOCKED: ATOM      5  H   UNL     1      40.574  17.071 123.219 -0.01 -0.00    +0.000 HD
DOCKED: BRANCH   4   6
DOCKED: ATOM      6  C   UNL     1      42.154  16.429 122.013 -0.31 -0.00    +0.000 A 
DOCKED: ATOM      7  C   UNL     1      43.328  16.713 122.735 -0.36 -0.00    +0.000 A 
DOCKED: ATOM      8  C   UNL     1      44.558  16.794 122.076 -0.27 -0.00    +0.000 A 
DOCKED: ATOM      9  C   UNL     1      44.631  16.579 120.697 -0.20 -0.00    +0.000 A 
DOCKED: ATOM     10  C   UNL     1      43.473  16.275 119.976 -0.19 -0.00    +0.000 A 
DOCKED: ATOM     11  C   UNL     1      42.241  16.192 120.632 -0.20 -0.00    +0.000 A 
DOCKED: ATOM     12  CM  UNL     1      43.398  16.497 121.354 +0.00 -0.00    +0.000 AC
DOCKED: ENDBRANCH   4   6
DOCKED: ENDBRANCH   1   3
DOCKED: BRANCH   1  12
DOCKED: ATOM     13  C   UNL     1      38.093  13.817 123.364 -0.37 -0.00    +0.000 C 
DOCKED: BRANCH  12  13
DOCKED: ATOM     14  C   UNL     1      36.558  13.782 123.318 -0.56 -0.00    +0.000 C 
DOCKED: BRANCH  13  14
DOCKED: ATOM     15  C   UNL     1      35.983  12.453 123.832 -0.63 -0.00    +0.000 C 
DOCKED: BRANCH  14  15
DOCKED: ATOM     16  C   UNL     1      35.599  11.497 122.688 -0.54 -0.00    +0.000 C 
DOCKED: BRANCH  15  16
DOCKED: ATOM     17  C   UNL     1      36.824  11.011 121.901 -0.58 -0.00    +0.000 C 
DOCKED: BRANCH  16  17
DOCKED: ATOM     18  C   UNL     1      36.976   9.520 121.972 -0.63 -0.00    +0.000 C 
DOCKED: ATOM     19  N   UNL     1      37.053   8.859 123.238 -0.66 -0.00    +0.000 N 
DOCKED: ATOM     20  O   UNL     1      37.007   8.844 120.908 -2.70 -0.00    +0.000 OA
DOCKED: ATOM     21  H   UNL     1      37.031   9.389 124.067 -0.54 -0.00    +0.000 HD
DOCKED: BRANCH  18  21
DOCKED: ATOM     22  O   UNL     1      37.156   7.511 123.306 -2.17 -0.00    +0.000 OA
DOCKED: ATOM     23  H   UNL     1      37.421   7.163 122.440 -0.20 -0.00    +0.000 HD
DOCKED: ENDBRANCH  18  21
DOCKED: ENDBRANCH  16  17
DOCKED: ENDBRANCH  15  16
DOCKED: ENDBRANCH  14  15
DOCKED: ENDBRANCH  13  14
DOCKED: ENDBRANCH  12  13
DOCKED: ENDBRANCH   1  12
DOCKED: TORSDOF 9DOCKED: TER
DOCKED: ENDMDL
________________________________________________________________________________


	BEGINNING GENETIC ALGORITHM DOCKING 33 of 100
Run: 33 Seed: 1343573236 319035438 [ Run 33 of 100 GA/GALS ]
Beginning LAMARCKIAN GENETIC ALGORITHM (LGA), with a maximum of 2500000 energy evaluations.

Final-Value: -13.710


	FINAL GENETIC ALGORITHM DOCKED STATE
	_______________________________________________


Detailed state:  trans 38.686 11.052 120.623 quatxyzw 0.452484 0.496957 0.312497 -0.671296 center -0.037 -0.159 0.371 ntor 9 0.8906 179.5912 1.5982 -173.4241 144.7343 104.5565 -133.7372 102.5106 0.5321
State:	 38.686  11.052 120.623   0.610  0.670  0.422 -95.666      0.89  179.59    1.60 -173.42  144.73  104.56 -133.74  102.51    0.53

DOCKED: MODEL       33
DOCKED: USER    Run = 33
DOCKED: USER    DPF = ligand_dock.biased.dpf
DOCKED: USER  
DOCKED: USER    Estimated Free Energy of Binding    =   -9.71 kcal/mol  [=(1)+(2)+(3)-(4)]
DOCKED: USER    Estimated Inhibition Constant, Ki   =   75.84 nM (nanomolar)  [Temperature = 298.15 K]
DOCKED: USER    
DOCKED: USER    (1) Final Intermolecular Energy     =  -12.40 kcal/mol
DOCKED: USER        vdW + Hbond + desolv Energy     =  -12.40 kcal/mol
DOCKED: USER        Electrostatic Energy            =   +0.00 kcal/mol
DOCKED: USER    (2) Final Total Internal Energy     =   -1.31 kcal/mol
DOCKED: USER    (3) Torsional Free Energy           =   +2.68 kcal/mol
DOCKED: USER    (4) Unbound System's Energy  [=(2)] =   -1.31 kcal/mol
DOCKED: USER    
DOCKED: USER    
DOCKED: USER    NEWDPF move ligand.dum.pdbqt
DOCKED: USER    NEWDPF about -0.037000 -0.159000 0.371000
DOCKED: USER    NEWDPF tran0 38.685624 11.052010 120.622903
DOCKED: USER    NEWDPF quaternion0 0.452484 0.496957 0.312497 -0.671296
DOCKED: USER    NEWDPF axisangle0 0.610483 0.670486 0.421615 -95.665721
DOCKED: USER    NEWDPF quat0 0.610483 0.670486 0.421615 -95.665721
DOCKED: USER    NEWDPF dihe0 0.89 179.59 1.60 -173.42 144.73 104.56 -133.74 102.51 0.53 
DOCKED: USER  keepresnum = 1 
DOCKED: USER  
DOCKED: REMARK  Name = 
DOCKED: REMARK  9 active torsions:
DOCKED: REMARK  status: ('A' for Active; 'I' for Inactive)
DOCKED: REMARK    1  A    between atoms: C_2  and  C_10
DOCKED: REMARK    2  A    between atoms: N_3  and  C_4
DOCKED: REMARK    3  A    between atoms: C_10  and  C_11
DOCKED: REMARK    4  A    between atoms: C_11  and  C_12
DOCKED: REMARK    5  A    between atoms: C_12  and  C_13
DOCKED: REMARK    6  A    between atoms: C_13  and  C_14
DOCKED: REMARK    7  A    between atoms: C_14  and  C_15
DOCKED: REMARK    8  A    between atoms: C_15  and  C_16
DOCKED: REMARK    9  A    between atoms: N_17  and  O_18
DOCKED: REMARK                            x       y       z     vdW  Elec       q    Type
DOCKED: REMARK                         _______ _______ _______ _____ _____    ______ ____
DOCKED: USER                              x       y       z     vdW  Elec       q    Type
DOCKED: USER                           _______ _______ _______ _____ _____    ______ ____
DOCKED: ROOT
DOCKED: ATOM      1  C   UNL     1      36.533  11.756 122.129 -0.61 -0.00    +0.000 C 
DOCKED: ENDROOT
DOCKED: BRANCH   1   3
DOCKED: ATOM      2  O   UNL     1      37.063   9.621 121.204 -2.37 -0.00    +0.000 OA
DOCKED: ATOM      3  C   UNL     1      36.320  10.279 121.983 -0.58 -0.00    +0.000 C 
DOCKED: ATOM      4  N   UNL     1      35.279   9.627 122.727 -0.60 -0.00    +0.000 N 
DOCKED: ATOM      5  H   UNL     1      34.622  10.191 123.195 -0.36 -0.00    +0.000 HD
DOCKED: BRANCH   4   6
DOCKED: ATOM      6  C   UNL     1      35.141   8.200 122.829 -0.61 -0.00    +0.000 A 
DOCKED: ATOM      7  C   UNL     1      36.264   7.361 122.957 -0.69 -0.00    +0.000 A 
DOCKED: ATOM      8  C   UNL     1      36.100   5.978 123.079 -0.57 -0.00    +0.000 A 
DOCKED: ATOM      9  C   UNL     1      34.818   5.422 123.088 -0.43 -0.00    +0.000 A 
DOCKED: ATOM     10  C   UNL     1      33.697   6.250 122.983 -0.68 -0.00    +0.000 A 
DOCKED: ATOM     11  C   UNL     1      33.857   7.634 122.862 -0.64 -0.00    +0.000 A 
DOCKED: ATOM     12  CM  UNL     1      34.979   6.807 122.966 +0.00 -0.00    +0.000 AC
DOCKED: ENDBRANCH   4   6
DOCKED: ENDBRANCH   1   3
DOCKED: BRANCH   1  12
DOCKED: ATOM     13  C   UNL     1      37.597  12.242 121.141 -0.47 -0.00    +0.000 C 
DOCKED: BRANCH  12  13
DOCKED: ATOM     14  C   UNL     1      37.835  13.752 121.285 -0.43 -0.00    +0.000 C 
DOCKED: BRANCH  13  14
DOCKED: ATOM     15  C   UNL     1      37.895  14.202 122.754 -0.48 -0.00    +0.000 C 
DOCKED: BRANCH  14  15
DOCKED: ATOM     16  C   UNL     1      38.191  15.705 122.898 -0.33 -0.00    +0.000 C 
DOCKED: BRANCH  15  16
DOCKED: ATOM     17  C   UNL     1      39.274  16.179 121.918 -0.24 -0.00    +0.000 C 
DOCKED: BRANCH  16  17
DOCKED: ATOM     18  C   UNL     1      40.590  16.399 122.607 -0.33 -0.00    +0.000 C 
DOCKED: ATOM     19  N   UNL     1      41.465  15.298 122.867 -0.51 -0.00    +0.000 N 
DOCKED: ATOM     20  O   UNL     1      40.937  17.567 122.931 -0.24 -0.00    +0.000 OA
DOCKED: ATOM     21  H   UNL     1      41.190  14.387 122.615 -0.05 -0.00    +0.000 HD
DOCKED: BRANCH  18  21
DOCKED: ATOM     22  O   UNL     1      42.667  15.498 123.456 -1.05 +0.00    +0.000 OA
DOCKED: ATOM     23  H   UNL     1      42.778  16.441 123.652 -0.10 +0.00    +0.000 HD
DOCKED: ENDBRANCH  18  21
DOCKED: ENDBRANCH  16  17
DOCKED: ENDBRANCH  15  16
DOCKED: ENDBRANCH  14  15
DOCKED: ENDBRANCH  13  14
DOCKED: ENDBRANCH  12  13
DOCKED: ENDBRANCH   1  12
DOCKED: TORSDOF 9DOCKED: TER
DOCKED: ENDMDL
________________________________________________________________________________


	BEGINNING GENETIC ALGORITHM DOCKING 34 of 100
Run: 34 Seed: 984691980 112461401 [ Run 34 of 100 GA/GALS ]
Beginning LAMARCKIAN GENETIC ALGORITHM (LGA), with a maximum of 2500000 energy evaluations.

Final-Value: -14.087


	FINAL GENETIC ALGORITHM DOCKED STATE
	_______________________________________________


Detailed state:  trans 35.542 13.985 120.987 quatxyzw 0.103224 0.718344 0.104889 0.679945 center -0.037 -0.159 0.371 ntor 9 4.2566 119.8297 52.4705 109.2195 117.3547 34.6877 19.8538 94.6819 -55.7806
State:	 35.542  13.985 120.987   0.141  0.980  0.143 94.321      4.26  119.83   52.47  109.22  117.35   34.69   19.85   94.68  -55.78

DOCKED: MODEL       34
DOCKED: USER    Run = 34
DOCKED: USER    DPF = ligand_dock.biased.dpf
DOCKED: USER  
DOCKED: USER    Estimated Free Energy of Binding    =   -9.94 kcal/mol  [=(1)+(2)+(3)-(4)]
DOCKED: USER    Estimated Inhibition Constant, Ki   =   52.09 nM (nanomolar)  [Temperature = 298.15 K]
DOCKED: USER    
DOCKED: USER    (1) Final Intermolecular Energy     =  -12.62 kcal/mol
DOCKED: USER        vdW + Hbond + desolv Energy     =  -12.62 kcal/mol
DOCKED: USER        Electrostatic Energy            =   +0.00 kcal/mol
DOCKED: USER    (2) Final Total Internal Energy     =   -1.47 kcal/mol
DOCKED: USER    (3) Torsional Free Energy           =   +2.68 kcal/mol
DOCKED: USER    (4) Unbound System's Energy  [=(2)] =   -1.47 kcal/mol
DOCKED: USER    
DOCKED: USER    
DOCKED: USER    NEWDPF move ligand.dum.pdbqt
DOCKED: USER    NEWDPF about -0.037000 -0.159000 0.371000
DOCKED: USER    NEWDPF tran0 35.542040 13.985080 120.986783
DOCKED: USER    NEWDPF quaternion0 0.103224 0.718344 0.104889 0.679945
DOCKED: USER    NEWDPF axisangle0 0.140773 0.979654 0.143045 94.321316
DOCKED: USER    NEWDPF quat0 0.140773 0.979654 0.143045 94.321316
DOCKED: USER    NEWDPF dihe0 4.26 119.83 52.47 109.22 117.35 34.69 19.85 94.68 -55.78 
DOCKED: USER  keepresnum = 1 
DOCKED: USER  
DOCKED: REMARK  Name = 
DOCKED: REMARK  9 active torsions:
DOCKED: REMARK  status: ('A' for Active; 'I' for Inactive)
DOCKED: REMARK    1  A    between atoms: C_2  and  C_10
DOCKED: REMARK    2  A    between atoms: N_3  and  C_4
DOCKED: REMARK    3  A    between atoms: C_10  and  C_11
DOCKED: REMARK    4  A    between atoms: C_11  and  C_12
DOCKED: REMARK    5  A    between atoms: C_12  and  C_13
DOCKED: REMARK    6  A    between atoms: C_13  and  C_14
DOCKED: REMARK    7  A    between atoms: C_14  and  C_15
DOCKED: REMARK    8  A    between atoms: C_15  and  C_16
DOCKED: REMARK    9  A    between atoms: N_17  and  O_18
DOCKED: REMARK                            x       y       z     vdW  Elec       q    Type
DOCKED: REMARK                         _______ _______ _______ _____ _____    ______ ____
DOCKED: USER                              x       y       z     vdW  Elec       q    Type
DOCKED: USER                           _______ _______ _______ _____ _____    ______ ____
DOCKED: ROOT
DOCKED: ATOM      1  C   UNL     1      38.055  14.894 120.481 -0.29 -0.00    +0.000 C 
DOCKED: ENDROOT
DOCKED: BRANCH   1   3
DOCKED: ATOM      2  O   UNL     1      36.722  13.468 119.110 -0.45 -0.00    +0.000 OA
DOCKED: ATOM      3  C   UNL     1      37.702  14.259 119.169 -0.32 -0.00    +0.000 C 
DOCKED: ATOM      4  N   UNL     1      38.477  14.555 117.997 -0.18 -0.00    +0.000 N 
DOCKED: ATOM      5  H   UNL     1      39.324  15.043 118.113 -0.09 -0.00    +0.000 HD
DOCKED: BRANCH   4   6
DOCKED: ATOM      6  C   UNL     1      38.089  14.180 116.665 -0.30 -0.00    +0.000 A 
DOCKED: ATOM      7  C   UNL     1      37.304  15.029 115.863 -0.19 -0.00    +0.000 A 
DOCKED: ATOM      8  C   UNL     1      36.962  14.650 114.561 -0.22 -0.00    +0.000 A 
DOCKED: ATOM      9  C   UNL     1      37.409  13.431 114.045 -0.33 -0.00    +0.000 A 
DOCKED: ATOM     10  C   UNL     1      38.206  12.592 114.828 -0.36 -0.00    +0.000 A 
DOCKED: ATOM     11  C   UNL     1      38.553  12.968 116.129 -0.41 -0.00    +0.000 A 
DOCKED: ATOM     12  CM  UNL     1      37.754  13.808 115.348 +0.00 -0.00    +0.000 AC
DOCKED: ENDBRANCH   4   6
DOCKED: ENDBRANCH   1   3
DOCKED: BRANCH   1  12
DOCKED: ATOM     13  C   UNL     1      37.058  14.472 121.564 -0.33 -0.00    +0.000 C 
DOCKED: BRANCH  12  13
DOCKED: ATOM     14  C   UNL     1      37.780  13.835 122.760 -0.51 -0.00    +0.000 C 
DOCKED: BRANCH  13  14
DOCKED: ATOM     15  C   UNL     1      36.826  13.049 123.673 -0.55 -0.00    +0.000 C 
DOCKED: BRANCH  14  15
DOCKED: ATOM     16  C   UNL     1      37.016  11.526 123.551 -0.67 -0.00    +0.000 C 
DOCKED: BRANCH  15  16
DOCKED: ATOM     17  C   UNL     1      36.546  10.990 122.192 -0.64 -0.00    +0.000 C 
DOCKED: BRANCH  16  17
DOCKED: ATOM     18  C   UNL     1      36.775   9.512 122.067 -0.68 -0.00    +0.000 C 
DOCKED: ATOM     19  N   UNL     1      36.905   8.697 123.235 -0.67 -0.00    +0.000 N 
DOCKED: ATOM     20  O   UNL     1      36.822   8.982 120.923 -2.65 -0.00    +0.000 OA
DOCKED: ATOM     21  H   UNL     1      36.870   9.113 124.126 -0.50 -0.00    +0.000 HD
DOCKED: BRANCH  18  21
DOCKED: ATOM     22  O   UNL     1      37.077   7.358 123.124 -2.16 -0.00    +0.000 OA
DOCKED: ATOM     23  H   UNL     1      37.157   7.119 122.188 -0.13 -0.00    +0.000 HD
DOCKED: ENDBRANCH  18  21
DOCKED: ENDBRANCH  16  17
DOCKED: ENDBRANCH  15  16
DOCKED: ENDBRANCH  14  15
DOCKED: ENDBRANCH  13  14
DOCKED: ENDBRANCH  12  13
DOCKED: ENDBRANCH   1  12
DOCKED: TORSDOF 9DOCKED: TER
DOCKED: ENDMDL
________________________________________________________________________________


	BEGINNING GENETIC ALGORITHM DOCKING 35 of 100
Run: 35 Seed: 1800395078 1586611690 [ Run 35 of 100 GA/GALS ]
Beginning LAMARCKIAN GENETIC ALGORITHM (LGA), with a maximum of 2500000 energy evaluations.

Final-Value: -13.917


	FINAL GENETIC ALGORITHM DOCKED STATE
	_______________________________________________


Detailed state:  trans 37.879 15.239 120.215 quatxyzw -0.425909 0.735760 0.520672 0.078483 center -0.037 -0.159 0.371 ntor 9 -6.2011 164.8650 6.4736 -4.0826 -118.7967 66.1827 -167.4374 179.2199 -23.0321
State:	 37.879  15.239 120.215  -0.427  0.738  0.522 170.997     -6.20  164.86    6.47   -4.08 -118.80   66.18 -167.44  179.22  -23.03

DOCKED: MODEL       35
DOCKED: USER    Run = 35
DOCKED: USER    DPF = ligand_dock.biased.dpf
DOCKED: USER  
DOCKED: USER    Estimated Free Energy of Binding    =   -9.85 kcal/mol  [=(1)+(2)+(3)-(4)]
DOCKED: USER    Estimated Inhibition Constant, Ki   =   60.61 nM (nanomolar)  [Temperature = 298.15 K]
DOCKED: USER    
DOCKED: USER    (1) Final Intermolecular Energy     =  -12.53 kcal/mol
DOCKED: USER        vdW + Hbond + desolv Energy     =  -12.53 kcal/mol
DOCKED: USER        Electrostatic Energy            =   +0.00 kcal/mol
DOCKED: USER    (2) Final Total Internal Energy     =   -1.39 kcal/mol
DOCKED: USER    (3) Torsional Free Energy           =   +2.68 kcal/mol
DOCKED: USER    (4) Unbound System's Energy  [=(2)] =   -1.39 kcal/mol
DOCKED: USER    
DOCKED: USER    
DOCKED: USER    NEWDPF move ligand.dum.pdbqt
DOCKED: USER    NEWDPF about -0.037000 -0.159000 0.371000
DOCKED: USER    NEWDPF tran0 37.879318 15.239030 120.214624
DOCKED: USER    NEWDPF quaternion0 -0.425909 0.735760 0.520672 0.078483
DOCKED: USER    NEWDPF axisangle0 -0.427227 0.738036 0.522283 170.997276
DOCKED: USER    NEWDPF quat0 -0.427227 0.738036 0.522283 170.997276
DOCKED: USER    NEWDPF dihe0 -6.20 164.86 6.47 -4.08 -118.80 66.18 -167.44 179.22 -23.03 
DOCKED: USER  keepresnum = 1 
DOCKED: USER  
DOCKED: REMARK  Name = 
DOCKED: REMARK  9 active torsions:
DOCKED: REMARK  status: ('A' for Active; 'I' for Inactive)
DOCKED: REMARK    1  A    between atoms: C_2  and  C_10
DOCKED: REMARK    2  A    between atoms: N_3  and  C_4
DOCKED: REMARK    3  A    between atoms: C_10  and  C_11
DOCKED: REMARK    4  A    between atoms: C_11  and  C_12
DOCKED: REMARK    5  A    between atoms: C_12  and  C_13
DOCKED: REMARK    6  A    between atoms: C_13  and  C_14
DOCKED: REMARK    7  A    between atoms: C_14  and  C_15
DOCKED: REMARK    8  A    between atoms: C_15  and  C_16
DOCKED: REMARK    9  A    between atoms: N_17  and  O_18
DOCKED: REMARK                            x       y       z     vdW  Elec       q    Type
DOCKED: REMARK                         _______ _______ _______ _____ _____    ______ ____
DOCKED: USER                              x       y       z     vdW  Elec       q    Type
DOCKED: USER                           _______ _______ _______ _____ _____    ______ ____
DOCKED: ROOT
DOCKED: ATOM      1  C   UNL     1      38.586  14.366 122.692 -0.46 -0.00    +0.000 C 
DOCKED: ENDROOT
DOCKED: BRANCH   1   3
DOCKED: ATOM      2  O   UNL     1      39.372  16.596 122.368 -0.22 -0.00    +0.000 OA
DOCKED: ATOM      3  C   UNL     1      39.664  15.370 122.414 -0.38 -0.00    +0.000 C 
DOCKED: ATOM      4  N   UNL     1      41.015  14.931 122.203 -0.46 -0.00    +0.000 N 
DOCKED: ATOM      5  H   UNL     1      41.176  13.967 122.085 -0.04 +0.00    +0.000 HD
DOCKED: BRANCH   4   6
DOCKED: ATOM      6  C   UNL     1      42.146  15.817 122.154 -0.39 -0.00    +0.000 A 
DOCKED: ATOM      7  C   UNL     1      42.301  16.862 123.084 -0.37 -0.00    +0.000 A 
DOCKED: ATOM      8  C   UNL     1      43.424  17.694 123.028 -0.19 -0.00    +0.000 A 
DOCKED: ATOM      9  C   UNL     1      44.406  17.483 122.057 -0.24 -0.00    +0.000 A 
DOCKED: ATOM     10  C   UNL     1      44.270  16.434 121.144 -0.24 -0.00    +0.000 A 
DOCKED: ATOM     11  C   UNL     1      43.150  15.599 121.196 -0.24 -0.00    +0.000 A 
DOCKED: ATOM     12  CM  UNL     1      43.283  16.648 122.110 +0.00 -0.00    +0.000 AC
DOCKED: ENDBRANCH   4   6
DOCKED: ENDBRANCH   1   3
DOCKED: BRANCH   1  12
DOCKED: ATOM     13  C   UNL     1      37.819  14.039 121.408 -0.41 -0.00    +0.000 C 
DOCKED: BRANCH  12  13
DOCKED: ATOM     14  C   UNL     1      37.136  12.666 121.508 -0.52 -0.00    +0.000 C 
DOCKED: BRANCH  13  14
DOCKED: ATOM     15  C   UNL     1      37.208  12.075 122.924 -0.59 -0.00    +0.000 C 
DOCKED: BRANCH  14  15
DOCKED: ATOM     16  C   UNL     1      35.894  11.392 123.345 -0.68 -0.00    +0.000 C 
DOCKED: BRANCH  15  16
DOCKED: ATOM     17  C   UNL     1      35.446  10.325 122.336 -0.64 -0.00    +0.000 C 
DOCKED: BRANCH  16  17
DOCKED: ATOM     18  C   UNL     1      36.414   9.180 122.270 -0.72 -0.00    +0.000 C 
DOCKED: ATOM     19  N   UNL     1      36.576   8.303 123.388 -0.68 -0.00    +0.000 N 
DOCKED: ATOM     20  O   UNL     1      37.066   8.975 121.211 -2.70 -0.00    +0.000 OA
DOCKED: ATOM     21  H   UNL     1      36.067   8.467 124.214 -0.22 -0.00    +0.000 HD
DOCKED: BRANCH  18  21
DOCKED: ATOM     22  O   UNL     1      37.423   7.249 123.318 -1.85 -0.00    +0.000 OA
DOCKED: ATOM     23  H   UNL     1      37.768   7.171 122.415 -0.27 -0.00    +0.000 HD
DOCKED: ENDBRANCH  18  21
DOCKED: ENDBRANCH  16  17
DOCKED: ENDBRANCH  15  16
DOCKED: ENDBRANCH  14  15
DOCKED: ENDBRANCH  13  14
DOCKED: ENDBRANCH  12  13
DOCKED: ENDBRANCH   1  12
DOCKED: TORSDOF 9DOCKED: TER
DOCKED: ENDMDL
________________________________________________________________________________


	BEGINNING GENETIC ALGORITHM DOCKING 36 of 100
Run: 36 Seed: 1608408695 1865601668 [ Run 36 of 100 GA/GALS ]
Beginning LAMARCKIAN GENETIC ALGORITHM (LGA), with a maximum of 2500000 energy evaluations.

Final-Value: -13.421


	FINAL GENETIC ALGORITHM DOCKED STATE
	_______________________________________________


Detailed state:  trans 36.266 12.737 120.729 quatxyzw 0.107704 0.145256 0.472615 0.862517 center -0.037 -0.159 0.371 ntor 9 -22.3226 179.9714 -170.3184 -1.8118 -105.5562 167.8343 32.0373 179.9599 126.1881
State:	 36.266  12.737 120.729   0.213  0.287  0.934 60.799    -22.32  179.97 -170.32   -1.81 -105.56  167.83   32.04  179.96  126.19

DOCKED: MODEL       36
DOCKED: USER    Run = 36
DOCKED: USER    DPF = ligand_dock.biased.dpf
DOCKED: USER  
DOCKED: USER    Estimated Free Energy of Binding    =   -9.30 kcal/mol  [=(1)+(2)+(3)-(4)]
DOCKED: USER    Estimated Inhibition Constant, Ki   =  153.01 nM (nanomolar)  [Temperature = 298.15 K]
DOCKED: USER    
DOCKED: USER    (1) Final Intermolecular Energy     =  -11.98 kcal/mol
DOCKED: USER        vdW + Hbond + desolv Energy     =  -11.98 kcal/mol
DOCKED: USER        Electrostatic Energy            =   +0.00 kcal/mol
DOCKED: USER    (2) Final Total Internal Energy     =   -1.44 kcal/mol
DOCKED: USER    (3) Torsional Free Energy           =   +2.68 kcal/mol
DOCKED: USER    (4) Unbound System's Energy  [=(2)] =   -1.44 kcal/mol
DOCKED: USER    
DOCKED: USER    
DOCKED: USER    NEWDPF move ligand.dum.pdbqt
DOCKED: USER    NEWDPF about -0.037000 -0.159000 0.371000
DOCKED: USER    NEWDPF tran0 36.266331 12.736867 120.728517
DOCKED: USER    NEWDPF quaternion0 0.107704 0.145256 0.472615 0.862517
DOCKED: USER    NEWDPF axisangle0 0.212842 0.287052 0.933970 60.799241
DOCKED: USER    NEWDPF quat0 0.212842 0.287052 0.933970 60.799241
DOCKED: USER    NEWDPF dihe0 -22.32 179.97 -170.32 -1.81 -105.56 167.83 32.04 179.96 126.19 
DOCKED: USER  keepresnum = 1 
DOCKED: USER  
DOCKED: REMARK  Name = 
DOCKED: REMARK  9 active torsions:
DOCKED: REMARK  status: ('A' for Active; 'I' for Inactive)
DOCKED: REMARK    1  A    between atoms: C_2  and  C_10
DOCKED: REMARK    2  A    between atoms: N_3  and  C_4
DOCKED: REMARK    3  A    between atoms: C_10  and  C_11
DOCKED: REMARK    4  A    between atoms: C_11  and  C_12
DOCKED: REMARK    5  A    between atoms: C_12  and  C_13
DOCKED: REMARK    6  A    between atoms: C_13  and  C_14
DOCKED: REMARK    7  A    between atoms: C_14  and  C_15
DOCKED: REMARK    8  A    between atoms: C_15  and  C_16
DOCKED: REMARK    9  A    between atoms: N_17  and  O_18
DOCKED: REMARK                            x       y       z     vdW  Elec       q    Type
DOCKED: REMARK                         _______ _______ _______ _____ _____    ______ ____
DOCKED: USER                              x       y       z     vdW  Elec       q    Type
DOCKED: USER                           _______ _______ _______ _____ _____    ______ ____
DOCKED: ROOT
DOCKED: ATOM      1  C   UNL     1      37.606  13.400 118.456 -0.35 -0.00    +0.000 C 
DOCKED: ENDROOT
DOCKED: BRANCH   1   3
DOCKED: ATOM      2  O   UNL     1      36.009  15.100 118.960 -0.21 -0.00    +0.000 OA
DOCKED: ATOM      3  C   UNL     1      36.299  14.103 118.243 -0.37 -0.00    +0.000 C 
DOCKED: ATOM      4  N   UNL     1      35.391  13.638 117.232 -0.31 -0.00    +0.000 N 
DOCKED: ATOM      5  H   UNL     1      35.575  12.769 116.808 +0.03 -0.00    +0.000 HD
DOCKED: BRANCH   4   6
DOCKED: ATOM      6  C   UNL     1      34.230  14.368 116.803 -0.30 -0.00    +0.000 A 
DOCKED: ATOM      7  C   UNL     1      32.976  13.740 116.670 -0.37 -0.00    +0.000 A 
DOCKED: ATOM      8  C   UNL     1      31.857  14.479 116.274 -0.35 -0.00    +0.000 A 
DOCKED: ATOM      9  C   UNL     1      31.974  15.849 116.021 -0.19 -0.00    +0.000 A 
DOCKED: ATOM     10  C   UNL     1      33.210  16.483 116.172 -0.14 -0.00    +0.000 A 
DOCKED: ATOM     11  C   UNL     1      34.332  15.748 116.569 -0.18 -0.00    +0.000 A 
DOCKED: ATOM     12  CM  UNL     1      33.097  15.112 116.418 +0.00 -0.00    +0.000 AC
DOCKED: ENDBRANCH   4   6
DOCKED: ENDBRANCH   1   3
DOCKED: BRANCH   1  12
DOCKED: ATOM     13  C   UNL     1      37.492  12.399 119.610 -0.42 -0.00    +0.000 C 
DOCKED: BRANCH  12  13
DOCKED: ATOM     14  C   UNL     1      36.963  13.081 120.881 -0.42 -0.00    +0.000 C 
DOCKED: BRANCH  13  14
DOCKED: ATOM     15  C   UNL     1      37.459  12.398 122.165 -0.50 -0.00    +0.000 C 
DOCKED: BRANCH  14  15
DOCKED: ATOM     16  C   UNL     1      36.304  11.850 123.023 -0.69 -0.00    +0.000 C 
DOCKED: BRANCH  15  16
DOCKED: ATOM     17  C   UNL     1      35.586  10.674 122.347 -0.64 -0.00    +0.000 C 
DOCKED: BRANCH  16  17
DOCKED: ATOM     18  C   UNL     1      36.470   9.466 122.244 -0.70 -0.00    +0.000 C 
DOCKED: ATOM     19  N   UNL     1      36.619   8.579 123.357 -0.65 -0.00    +0.000 N 
DOCKED: ATOM     20  O   UNL     1      37.062   9.216 121.159 -2.74 -0.00    +0.000 OA
DOCKED: ATOM     21  H   UNL     1      36.157   8.778 124.203 -0.27 -0.00    +0.000 HD
DOCKED: BRANCH  18  21
DOCKED: ATOM     22  O   UNL     1      37.389   7.470 123.255 -2.05 -0.00    +0.000 OA
DOCKED: ATOM     23  H   UNL     1      37.478   7.224 122.322 -0.18 -0.00    +0.000 HD
DOCKED: ENDBRANCH  18  21
DOCKED: ENDBRANCH  16  17
DOCKED: ENDBRANCH  15  16
DOCKED: ENDBRANCH  14  15
DOCKED: ENDBRANCH  13  14
DOCKED: ENDBRANCH  12  13
DOCKED: ENDBRANCH   1  12
DOCKED: TORSDOF 9DOCKED: TER
DOCKED: ENDMDL
________________________________________________________________________________


	BEGINNING GENETIC ALGORITHM DOCKING 37 of 100
Run: 37 Seed: 1905747977 663025575 [ Run 37 of 100 GA/GALS ]
Beginning LAMARCKIAN GENETIC ALGORITHM (LGA), with a maximum of 2500000 energy evaluations.

Final-Value: -14.408


	FINAL GENETIC ALGORITHM DOCKED STATE
	_______________________________________________


Detailed state:  trans 36.427 14.620 122.549 quatxyzw -0.222860 -0.682097 -0.182152 -0.672233 center -0.037 -0.159 0.371 ntor 9 11.5765 134.4230 -101.6695 123.1853 106.7681 -153.6603 -42.8253 23.4209 -179.9761
State:	 36.427  14.620 122.549  -0.301 -0.921 -0.246 -95.521     11.58  134.42 -101.67  123.19  106.77 -153.66  -42.83   23.42 -179.98

DOCKED: MODEL       37
DOCKED: USER    Run = 37
DOCKED: USER    DPF = ligand_dock.biased.dpf
DOCKED: USER  
DOCKED: USER    Estimated Free Energy of Binding    =  -10.01 kcal/mol  [=(1)+(2)+(3)-(4)]
DOCKED: USER    Estimated Inhibition Constant, Ki   =   46.20 nM (nanomolar)  [Temperature = 298.15 K]
DOCKED: USER    
DOCKED: USER    (1) Final Intermolecular Energy     =  -12.69 kcal/mol
DOCKED: USER        vdW + Hbond + desolv Energy     =  -12.69 kcal/mol
DOCKED: USER        Electrostatic Energy            =   +0.00 kcal/mol
DOCKED: USER    (2) Final Total Internal Energy     =   -1.72 kcal/mol
DOCKED: USER    (3) Torsional Free Energy           =   +2.68 kcal/mol
DOCKED: USER    (4) Unbound System's Energy  [=(2)] =   -1.72 kcal/mol
DOCKED: USER    
DOCKED: USER    
DOCKED: USER    NEWDPF move ligand.dum.pdbqt
DOCKED: USER    NEWDPF about -0.037000 -0.159000 0.371000
DOCKED: USER    NEWDPF tran0 36.426714 14.620104 122.549474
DOCKED: USER    NEWDPF quaternion0 -0.222860 -0.682097 -0.182152 -0.672233
DOCKED: USER    NEWDPF axisangle0 -0.301025 -0.921330 -0.246039 -95.520666
DOCKED: USER    NEWDPF quat0 -0.301025 -0.921330 -0.246039 -95.520666
DOCKED: USER    NEWDPF dihe0 11.58 134.42 -101.67 123.19 106.77 -153.66 -42.83 23.42 -179.98 
DOCKED: USER  keepresnum = 1 
DOCKED: USER  
DOCKED: REMARK  Name = 
DOCKED: REMARK  9 active torsions:
DOCKED: REMARK  status: ('A' for Active; 'I' for Inactive)
DOCKED: REMARK    1  A    between atoms: C_2  and  C_10
DOCKED: REMARK    2  A    between atoms: N_3  and  C_4
DOCKED: REMARK    3  A    between atoms: C_10  and  C_11
DOCKED: REMARK    4  A    between atoms: C_11  and  C_12
DOCKED: REMARK    5  A    between atoms: C_12  and  C_13
DOCKED: REMARK    6  A    between atoms: C_13  and  C_14
DOCKED: REMARK    7  A    between atoms: C_14  and  C_15
DOCKED: REMARK    8  A    between atoms: C_15  and  C_16
DOCKED: REMARK    9  A    between atoms: N_17  and  O_18
DOCKED: REMARK                            x       y       z     vdW  Elec       q    Type
DOCKED: REMARK                         _______ _______ _______ _____ _____    ______ ____
DOCKED: USER                              x       y       z     vdW  Elec       q    Type
DOCKED: USER                           _______ _______ _______ _____ _____    ______ ____
DOCKED: ROOT
DOCKED: ATOM      1  C   UNL     1      39.064  14.758 121.896 -0.39 -0.00    +0.000 C 
DOCKED: ENDROOT
DOCKED: BRANCH   1   3
DOCKED: ATOM      2  O   UNL     1      38.328  12.953 120.520 -0.47 -0.00    +0.000 OA
DOCKED: ATOM      3  C   UNL     1      38.476  14.200 120.635 -0.35 -0.00    +0.000 C 
DOCKED: ATOM      4  N   UNL     1      38.087  15.084 119.572 -0.21 -0.00    +0.000 N 
DOCKED: ATOM      5  H   UNL     1      38.365  16.027 119.629 +0.00 -0.00    +0.000 HD
DOCKED: BRANCH   4   6
DOCKED: ATOM      6  C   UNL     1      37.318  14.674 118.430 -0.25 -0.00    +0.000 A 
DOCKED: ATOM      7  C   UNL     1      37.821  13.741 117.502 -0.31 -0.00    +0.000 A 
DOCKED: ATOM      8  C   UNL     1      37.040  13.341 116.413 -0.34 -0.00    +0.000 A 
DOCKED: ATOM      9  C   UNL     1      35.751  13.853 116.247 -0.26 -0.00    +0.000 A 
DOCKED: ATOM     10  C   UNL     1      35.237  14.763 117.175 -0.27 -0.00    +0.000 A 
DOCKED: ATOM     11  C   UNL     1      36.013  15.165 118.267 -0.19 -0.00    +0.000 A 
DOCKED: ATOM     12  CM  UNL     1      36.530  14.256 117.339 +0.00 -0.00    +0.000 AC
DOCKED: ENDBRANCH   4   6
DOCKED: ENDBRANCH   1   3
DOCKED: BRANCH   1  12
DOCKED: ATOM     13  C   UNL     1      38.047  14.678 123.039 -0.43 -0.00    +0.000 C 
DOCKED: BRANCH  12  13
DOCKED: ATOM     14  C   UNL     1      36.728  14.053 122.561 -0.46 -0.00    +0.000 C 
DOCKED: BRANCH  13  14
DOCKED: ATOM     15  C   UNL     1      36.202  12.978 123.524 -0.63 -0.00    +0.000 C 
DOCKED: BRANCH  14  15
DOCKED: ATOM     16  C   UNL     1      36.903  11.621 123.330 -0.68 -0.00    +0.000 C 
DOCKED: BRANCH  15  16
DOCKED: ATOM     17  C   UNL     1      36.336  10.841 122.136 -0.64 -0.00    +0.000 C 
DOCKED: BRANCH  16  17
DOCKED: ATOM     18  C   UNL     1      36.808   9.416 122.127 -0.68 -0.00    +0.000 C 
DOCKED: ATOM     19  N   UNL     1      36.965   8.696 123.353 -0.65 -0.00    +0.000 N 
DOCKED: ATOM     20  O   UNL     1      37.038   8.842 121.028 -2.70 -0.00    +0.000 OA
DOCKED: ATOM     21  H   UNL     1      36.787   9.148 124.209 -0.50 -0.00    +0.000 HD
DOCKED: BRANCH  18  21
DOCKED: ATOM     22  O   UNL     1      37.358   7.401 123.345 -2.03 -0.00    +0.000 OA
DOCKED: ATOM     23  H   UNL     1      37.665   7.162 122.457 -0.27 -0.00    +0.000 HD
DOCKED: ENDBRANCH  18  21
DOCKED: ENDBRANCH  16  17
DOCKED: ENDBRANCH  15  16
DOCKED: ENDBRANCH  14  15
DOCKED: ENDBRANCH  13  14
DOCKED: ENDBRANCH  12  13
DOCKED: ENDBRANCH   1  12
DOCKED: TORSDOF 9DOCKED: TER
DOCKED: ENDMDL
________________________________________________________________________________


	BEGINNING GENETIC ALGORITHM DOCKING 38 of 100
Run: 38 Seed: 1618112685 37002365 [ Run 38 of 100 GA/GALS ]
Beginning LAMARCKIAN GENETIC ALGORITHM (LGA), with a maximum of 2500000 energy evaluations.

Final-Value: -13.866


	FINAL GENETIC ALGORITHM DOCKED STATE
	_______________________________________________


Detailed state:  trans 36.318 14.322 121.283 quatxyzw 0.174760 0.365990 -0.492383 -0.770110 center -0.037 -0.159 0.371 ntor 9 4.4902 -168.3883 -128.6025 45.7551 -54.2348 137.3018 9.4825 -2.1801 113.4627
State:	 36.318  14.322 121.283   0.274  0.574 -0.772 -79.273      4.49 -168.39 -128.60   45.76  -54.23  137.30    9.48   -2.18  113.46

DOCKED: MODEL       38
DOCKED: USER    Run = 38
DOCKED: USER    DPF = ligand_dock.biased.dpf
DOCKED: USER  
DOCKED: USER    Estimated Free Energy of Binding    =   -9.70 kcal/mol  [=(1)+(2)+(3)-(4)]
DOCKED: USER    Estimated Inhibition Constant, Ki   =   78.09 nM (nanomolar)  [Temperature = 298.15 K]
DOCKED: USER    
DOCKED: USER    (1) Final Intermolecular Energy     =  -12.38 kcal/mol
DOCKED: USER        vdW + Hbond + desolv Energy     =  -12.38 kcal/mol
DOCKED: USER        Electrostatic Energy            =   +0.00 kcal/mol
DOCKED: USER    (2) Final Total Internal Energy     =   -1.48 kcal/mol
DOCKED: USER    (3) Torsional Free Energy           =   +2.68 kcal/mol
DOCKED: USER    (4) Unbound System's Energy  [=(2)] =   -1.48 kcal/mol
DOCKED: USER    
DOCKED: USER    
DOCKED: USER    NEWDPF move ligand.dum.pdbqt
DOCKED: USER    NEWDPF about -0.037000 -0.159000 0.371000
DOCKED: USER    NEWDPF tran0 36.317643 14.322357 121.283464
DOCKED: USER    NEWDPF quaternion0 0.174760 0.365990 -0.492383 -0.770110
DOCKED: USER    NEWDPF axisangle0 0.273957 0.573732 -0.771868 -79.272553
DOCKED: USER    NEWDPF quat0 0.273957 0.573732 -0.771868 -79.272553
DOCKED: USER    NEWDPF dihe0 4.49 -168.39 -128.60 45.76 -54.23 137.30 9.48 -2.18 113.46 
DOCKED: USER  keepresnum = 1 
DOCKED: USER  
DOCKED: REMARK  Name = 
DOCKED: REMARK  9 active torsions:
DOCKED: REMARK  status: ('A' for Active; 'I' for Inactive)
DOCKED: REMARK    1  A    between atoms: C_2  and  C_10
DOCKED: REMARK    2  A    between atoms: N_3  and  C_4
DOCKED: REMARK    3  A    between atoms: C_10  and  C_11
DOCKED: REMARK    4  A    between atoms: C_11  and  C_12
DOCKED: REMARK    5  A    between atoms: C_12  and  C_13
DOCKED: REMARK    6  A    between atoms: C_13  and  C_14
DOCKED: REMARK    7  A    between atoms: C_14  and  C_15
DOCKED: REMARK    8  A    between atoms: C_15  and  C_16
DOCKED: REMARK    9  A    between atoms: N_17  and  O_18
DOCKED: REMARK                            x       y       z     vdW  Elec       q    Type
DOCKED: REMARK                         _______ _______ _______ _____ _____    ______ ____
DOCKED: USER                              x       y       z     vdW  Elec       q    Type
DOCKED: USER                           _______ _______ _______ _____ _____    ______ ____
DOCKED: ROOT
DOCKED: ATOM      1  C   UNL     1      36.749  16.776 120.191 -0.17 -0.00    +0.000 C 
DOCKED: ENDROOT
DOCKED: BRANCH   1   3
DOCKED: ATOM      2  O   UNL     1      34.710  17.559 121.151 -0.34 -0.00    +0.000 OA
DOCKED: ATOM      3  C   UNL     1      35.875  17.122 121.358 -0.24 -0.00    +0.000 C 
DOCKED: ATOM      4  N   UNL     1      36.368  16.957 122.697 -0.23 -0.00    +0.000 N 
DOCKED: ATOM      5  H   UNL     1      37.327  16.772 122.818 +0.00 -0.00    +0.000 HD
DOCKED: BRANCH   4   6
DOCKED: ATOM      6  C   UNL     1      35.543  17.045 123.870 -0.32 -0.00    +0.000 A 
DOCKED: ATOM      7  C   UNL     1      35.361  18.265 124.550 -0.26 -0.00    +0.000 A 
DOCKED: ATOM      8  C   UNL     1      34.533  18.328 125.675 -0.29 -0.00    +0.000 A 
DOCKED: ATOM      9  C   UNL     1      33.870  17.182 126.123 -0.36 -0.00    +0.000 A 
DOCKED: ATOM     10  C   UNL     1      34.028  15.973 125.441 -0.41 -0.00    +0.000 A 
DOCKED: ATOM     11  C   UNL     1      34.854  15.905 124.315 -0.49 -0.00    +0.000 A 
DOCKED: ATOM     12  CM  UNL     1      34.698  17.116 124.996 -0.35 -0.00    +0.000 AC
DOCKED: ENDBRANCH   4   6
DOCKED: ENDBRANCH   1   3
DOCKED: BRANCH   1  12
DOCKED: ATOM     13  C   UNL     1      36.726  15.265 119.937 -0.17 -0.00    +0.000 C 
DOCKED: BRANCH  12  13
DOCKED: ATOM     14  C   UNL     1      37.385  14.502 121.096 -0.34 -0.00    +0.000 C 
DOCKED: BRANCH  13  14
DOCKED: ATOM     15  C   UNL     1      37.509  12.997 120.814 -0.49 -0.00    +0.000 C 
DOCKED: BRANCH  14  15
DOCKED: ATOM     16  C   UNL     1      37.439  12.149 122.098 -0.48 -0.00    +0.000 C 
DOCKED: BRANCH  15  16
DOCKED: ATOM     17  C   UNL     1      36.253  11.175 122.085 -0.62 -0.00    +0.000 C 
DOCKED: BRANCH  16  17
DOCKED: ATOM     18  C   UNL     1      36.708   9.744 122.066 -0.67 -0.00    +0.000 C 
DOCKED: ATOM     19  N   UNL     1      36.844   9.011 123.286 -0.62 -0.00    +0.000 N 
DOCKED: ATOM     20  O   UNL     1      36.943   9.179 120.964 -2.69 -0.00    +0.000 OA
DOCKED: ATOM     21  H   UNL     1      36.662   9.455 124.145 -0.46 -0.00    +0.000 HD
DOCKED: BRANCH  18  21
DOCKED: ATOM     22  O   UNL     1      37.221   7.710 123.269 -2.26 -0.00    +0.000 OA
DOCKED: ATOM     23  H   UNL     1      37.428   7.446 122.360 -0.14 -0.00    +0.000 HD
DOCKED: ENDBRANCH  18  21
DOCKED: ENDBRANCH  16  17
DOCKED: ENDBRANCH  15  16
DOCKED: ENDBRANCH  14  15
DOCKED: ENDBRANCH  13  14
DOCKED: ENDBRANCH  12  13
DOCKED: ENDBRANCH   1  12
DOCKED: TORSDOF 9DOCKED: TER
DOCKED: ENDMDL
________________________________________________________________________________


	BEGINNING GENETIC ALGORITHM DOCKING 39 of 100
Run: 39 Seed: 524293255 1827098862 [ Run 39 of 100 GA/GALS ]
Beginning LAMARCKIAN GENETIC ALGORITHM (LGA), with a maximum of 2500000 energy evaluations.

Final-Value: -12.439


	FINAL GENETIC ALGORITHM DOCKED STATE
	_______________________________________________


Detailed state:  trans 39.993 14.131 121.077 quatxyzw 0.611085 -0.684574 0.110244 0.381811 center -0.037 -0.159 0.371 ntor 9 -7.9061 -149.6043 -103.8214 16.0589 76.2410 -163.1461 -179.1196 -33.5918 -17.0222
State:	 39.993  14.131 121.077   0.661 -0.741  0.119 135.108     -7.91 -149.60 -103.82   16.06   76.24 -163.15 -179.12  -33.59  -17.02

DOCKED: MODEL       39
DOCKED: USER    Run = 39
DOCKED: USER    DPF = ligand_dock.biased.dpf
DOCKED: USER  
DOCKED: USER    Estimated Free Energy of Binding    =   -8.32 kcal/mol  [=(1)+(2)+(3)-(4)]
DOCKED: USER    Estimated Inhibition Constant, Ki   =  795.57 nM (nanomolar)  [Temperature = 298.15 K]
DOCKED: USER    
DOCKED: USER    (1) Final Intermolecular Energy     =  -11.01 kcal/mol
DOCKED: USER        vdW + Hbond + desolv Energy     =  -11.01 kcal/mol
DOCKED: USER        Electrostatic Energy            =   +0.00 kcal/mol
DOCKED: USER    (2) Final Total Internal Energy     =   -1.43 kcal/mol
DOCKED: USER    (3) Torsional Free Energy           =   +2.68 kcal/mol
DOCKED: USER    (4) Unbound System's Energy  [=(2)] =   -1.43 kcal/mol
DOCKED: USER    
DOCKED: USER    
DOCKED: USER    NEWDPF move ligand.dum.pdbqt
DOCKED: USER    NEWDPF about -0.037000 -0.159000 0.371000
DOCKED: USER    NEWDPF tran0 39.992893 14.131345 121.077351
DOCKED: USER    NEWDPF quaternion0 0.611085 -0.684574 0.110244 0.381811
DOCKED: USER    NEWDPF axisangle0 0.661175 -0.740689 0.119281 135.108172
DOCKED: USER    NEWDPF quat0 0.661175 -0.740689 0.119281 135.108172
DOCKED: USER    NEWDPF dihe0 -7.91 -149.60 -103.82 16.06 76.24 -163.15 -179.12 -33.59 -17.02 
DOCKED: USER  keepresnum = 1 
DOCKED: USER  
DOCKED: REMARK  Name = 
DOCKED: REMARK  9 active torsions:
DOCKED: REMARK  status: ('A' for Active; 'I' for Inactive)
DOCKED: REMARK    1  A    between atoms: C_2  and  C_10
DOCKED: REMARK    2  A    between atoms: N_3  and  C_4
DOCKED: REMARK    3  A    between atoms: C_10  and  C_11
DOCKED: REMARK    4  A    between atoms: C_11  and  C_12
DOCKED: REMARK    5  A    between atoms: C_12  and  C_13
DOCKED: REMARK    6  A    between atoms: C_13  and  C_14
DOCKED: REMARK    7  A    between atoms: C_14  and  C_15
DOCKED: REMARK    8  A    between atoms: C_15  and  C_16
DOCKED: REMARK    9  A    between atoms: N_17  and  O_18
DOCKED: REMARK                            x       y       z     vdW  Elec       q    Type
DOCKED: REMARK                         _______ _______ _______ _____ _____    ______ ____
DOCKED: USER                              x       y       z     vdW  Elec       q    Type
DOCKED: USER                           _______ _______ _______ _____ _____    ______ ____
DOCKED: ROOT
DOCKED: ATOM      1  C   UNL     1      37.381  14.416 121.781 -0.39 -0.00    +0.000 C 
DOCKED: ENDROOT
DOCKED: BRANCH   1   3
DOCKED: ATOM      2  O   UNL     1      37.581  15.781 123.728 -0.38 -0.00    +0.000 OA
DOCKED: ATOM      3  C   UNL     1      38.023  15.513 122.578 -0.34 -0.00    +0.000 C 
DOCKED: ATOM      4  N   UNL     1      39.129  16.245 122.028 -0.20 -0.00    +0.000 N 
DOCKED: ATOM      5  H   UNL     1      39.339  16.121 121.075 +0.00 -0.00    +0.000 HD
DOCKED: BRANCH   4   6
DOCKED: ATOM      6  C   UNL     1      39.947  17.150 122.789 -0.21 -0.00    +0.000 A 
DOCKED: ATOM      7  C   UNL     1      39.425  18.349 123.310 -0.14 -0.00    +0.000 A 
DOCKED: ATOM      8  C   UNL     1      40.237  19.199 124.068 -0.13 -0.00    +0.000 A 
DOCKED: ATOM      9  C   UNL     1      41.568  18.856 124.323 -0.18 -0.00    +0.000 A 
DOCKED: ATOM     10  C   UNL     1      42.086  17.657 123.826 -0.20 -0.00    +0.000 A 
DOCKED: ATOM     11  C   UNL     1      41.278  16.803 123.070 -0.33 -0.00    +0.000 A 
DOCKED: ATOM     12  CM  UNL     1      40.757  18.002 123.564 +0.00 -0.00    +0.000 AC
DOCKED: ENDBRANCH   4   6
DOCKED: ENDBRANCH   1   3
DOCKED: BRANCH   1  12
DOCKED: ATOM     13  C   UNL     1      38.446  13.461 121.235 -0.38 -0.00    +0.000 C 
DOCKED: BRANCH  12  13
DOCKED: ATOM     14  C   UNL     1      37.818  12.131 120.792 -0.43 -0.00    +0.000 C 
DOCKED: BRANCH  13  14
DOCKED: ATOM     15  C   UNL     1      36.308  12.071 121.069 -0.23 -0.00    +0.000 C 
DOCKED: BRANCH  14  15
DOCKED: ATOM     16  C   UNL     1      35.987  11.496 122.460 -0.62 -0.00    +0.000 C 
DOCKED: BRANCH  15  16
DOCKED: ATOM     17  C   UNL     1      35.334  10.109 122.378 -0.63 -0.00    +0.000 C 
DOCKED: BRANCH  16  17
DOCKED: ATOM     18  C   UNL     1      36.359   9.017 122.273 -0.73 -0.00    +0.000 C 
DOCKED: ATOM     19  N   UNL     1      36.534   8.081 123.340 -0.71 -0.00    +0.000 N 
DOCKED: ATOM     20  O   UNL     1      37.049   8.908 121.223 -2.67 -0.00    +0.000 OA
DOCKED: ATOM     21  H   UNL     1      35.995   8.170 124.159 -0.14 -0.00    +0.000 HD
DOCKED: BRANCH  18  21
DOCKED: ATOM     22  O   UNL     1      37.434   7.075 123.233 -1.63 -0.00    +0.000 OA
DOCKED: ATOM     23  H   UNL     1      37.786   7.052 122.330 -0.34 -0.00    +0.000 HD
DOCKED: ENDBRANCH  18  21
DOCKED: ENDBRANCH  16  17
DOCKED: ENDBRANCH  15  16
DOCKED: ENDBRANCH  14  15
DOCKED: ENDBRANCH  13  14
DOCKED: ENDBRANCH  12  13
DOCKED: ENDBRANCH   1  12
DOCKED: TORSDOF 9DOCKED: TER
DOCKED: ENDMDL
________________________________________________________________________________


	BEGINNING GENETIC ALGORITHM DOCKING 40 of 100
Run: 40 Seed: 1170552194 1723852341 [ Run 40 of 100 GA/GALS ]
Beginning LAMARCKIAN GENETIC ALGORITHM (LGA), with a maximum of 2500000 energy evaluations.

Final-Value: -14.052


	FINAL GENETIC ALGORITHM DOCKED STATE
	_______________________________________________


Detailed state:  trans 36.459 13.746 123.610 quatxyzw 0.141438 -0.730492 0.649966 -0.154667 center -0.037 -0.159 0.371 ntor 9 179.7678 125.2668 115.9753 150.8539 71.1170 57.9292 51.3879 174.5839 173.3238
State:	 36.459  13.746 123.610   0.143 -0.739  0.658 -162.205    179.77  125.27  115.98  150.85   71.12   57.93   51.39  174.58  173.32

DOCKED: MODEL       40
DOCKED: USER    Run = 40
DOCKED: USER    DPF = ligand_dock.biased.dpf
DOCKED: USER  
DOCKED: USER    Estimated Free Energy of Binding    =  -10.47 kcal/mol  [=(1)+(2)+(3)-(4)]
DOCKED: USER    Estimated Inhibition Constant, Ki   =   21.28 nM (nanomolar)  [Temperature = 298.15 K]
DOCKED: USER    
DOCKED: USER    (1) Final Intermolecular Energy     =  -13.15 kcal/mol
DOCKED: USER        vdW + Hbond + desolv Energy     =  -13.15 kcal/mol
DOCKED: USER        Electrostatic Energy            =   +0.00 kcal/mol
DOCKED: USER    (2) Final Total Internal Energy     =   -0.90 kcal/mol
DOCKED: USER    (3) Torsional Free Energy           =   +2.68 kcal/mol
DOCKED: USER    (4) Unbound System's Energy  [=(2)] =   -0.90 kcal/mol
DOCKED: USER    
DOCKED: USER    
DOCKED: USER    NEWDPF move ligand.dum.pdbqt
DOCKED: USER    NEWDPF about -0.037000 -0.159000 0.371000
DOCKED: USER    NEWDPF tran0 36.459406 13.746222 123.610178
DOCKED: USER    NEWDPF quaternion0 0.141438 -0.730492 0.649966 -0.154667
DOCKED: USER    NEWDPF axisangle0 0.143161 -0.739389 0.657882 -162.205037
DOCKED: USER    NEWDPF quat0 0.143161 -0.739389 0.657882 -162.205037
DOCKED: USER    NEWDPF dihe0 179.77 125.27 115.98 150.85 71.12 57.93 51.39 174.58 173.32 
DOCKED: USER  keepresnum = 1 
DOCKED: USER  
DOCKED: REMARK  Name = 
DOCKED: REMARK  9 active torsions:
DOCKED: REMARK  status: ('A' for Active; 'I' for Inactive)
DOCKED: REMARK    1  A    between atoms: C_2  and  C_10
DOCKED: REMARK    2  A    between atoms: N_3  and  C_4
DOCKED: REMARK    3  A    between atoms: C_10  and  C_11
DOCKED: REMARK    4  A    between atoms: C_11  and  C_12
DOCKED: REMARK    5  A    between atoms: C_12  and  C_13
DOCKED: REMARK    6  A    between atoms: C_13  and  C_14
DOCKED: REMARK    7  A    between atoms: C_14  and  C_15
DOCKED: REMARK    8  A    between atoms: C_15  and  C_16
DOCKED: REMARK    9  A    between atoms: N_17  and  O_18
DOCKED: REMARK                            x       y       z     vdW  Elec       q    Type
DOCKED: REMARK                         _______ _______ _______ _____ _____    ______ ____
DOCKED: USER                              x       y       z     vdW  Elec       q    Type
DOCKED: USER                           _______ _______ _______ _____ _____    ______ ____
DOCKED: ROOT
DOCKED: ATOM      1  C   UNL     1      36.478  16.028 122.130 -0.28 -0.00    +0.000 C 
DOCKED: ENDROOT
DOCKED: BRANCH   1   3
DOCKED: ATOM      2  O   UNL     1      38.400  14.680 121.704 -0.37 -0.00    +0.000 OA
DOCKED: ATOM      3  C   UNL     1      37.944  15.731 122.232 -0.30 -0.00    +0.000 C 
DOCKED: ATOM      4  N   UNL     1      38.813  16.639 122.926 -0.23 -0.00    +0.000 N 
DOCKED: ATOM      5  H   UNL     1      38.403  17.356 123.460 -0.01 -0.00    +0.000 HD
DOCKED: BRANCH   4   6
DOCKED: ATOM      6  C   UNL     1      40.248  16.561 122.887 -0.26 -0.00    +0.000 A 
DOCKED: ATOM      7  C   UNL     1      41.050  17.702 123.081 -0.23 -0.00    +0.000 A 
DOCKED: ATOM      8  C   UNL     1      42.444  17.593 123.062 -0.29 -0.00    +0.000 A 
DOCKED: ATOM      9  C   UNL     1      43.049  16.349 122.864 -0.38 -0.00    +0.000 A 
DOCKED: ATOM     10  C   UNL     1      42.259  15.209 122.693 -0.43 -0.00    +0.000 A 
DOCKED: ATOM     11  C   UNL     1      40.865  15.312 122.712 -0.42 -0.00    +0.000 A 
DOCKED: ATOM     12  CM  UNL     1      41.653  16.454 122.883 +0.00 -0.00    +0.000 AC
DOCKED: ENDBRANCH   4   6
DOCKED: ENDBRANCH   1   3
DOCKED: BRANCH   1  12
DOCKED: ATOM     13  C   UNL     1      35.690  15.177 123.130 -0.40 -0.00    +0.000 C 
DOCKED: BRANCH  12  13
DOCKED: ATOM     14  C   UNL     1      36.603  14.154 123.822 -0.47 -0.00    +0.000 C 
DOCKED: BRANCH  13  14
DOCKED: ATOM     15  C   UNL     1      36.002  12.740 123.833 -0.61 -0.00    +0.000 C 
DOCKED: BRANCH  14  15
DOCKED: ATOM     16  C   UNL     1      37.001  11.672 123.351 -0.68 -0.00    +0.000 C 
DOCKED: BRANCH  15  16
DOCKED: ATOM     17  C   UNL     1      36.547  10.999 122.048 -0.63 -0.00    +0.000 C 
DOCKED: BRANCH  16  17
DOCKED: ATOM     18  C   UNL     1      36.826   9.524 122.057 -0.67 -0.00    +0.000 C 
DOCKED: ATOM     19  N   UNL     1      36.872   8.802 123.290 -0.64 -0.00    +0.000 N 
DOCKED: ATOM     20  O   UNL     1      36.991   8.914 120.965 -2.69 -0.00    +0.000 OA
DOCKED: ATOM     21  H   UNL     1      36.745   9.281 124.141 -0.49 -0.00    +0.000 HD
DOCKED: BRANCH  18  21
DOCKED: ATOM     22  O   UNL     1      37.089   7.466 123.298 -2.18 -0.00    +0.000 OA
DOCKED: ATOM     23  H   UNL     1      37.093   7.144 124.212 -0.51 -0.00    +0.000 HD
DOCKED: ENDBRANCH  18  21
DOCKED: ENDBRANCH  16  17
DOCKED: ENDBRANCH  15  16
DOCKED: ENDBRANCH  14  15
DOCKED: ENDBRANCH  13  14
DOCKED: ENDBRANCH  12  13
DOCKED: ENDBRANCH   1  12
DOCKED: TORSDOF 9DOCKED: TER
DOCKED: ENDMDL
________________________________________________________________________________


	BEGINNING GENETIC ALGORITHM DOCKING 41 of 100
Run: 41 Seed: 1886170996 63825911 [ Run 41 of 100 GA/GALS ]
Beginning LAMARCKIAN GENETIC ALGORITHM (LGA), with a maximum of 2500000 energy evaluations.

Final-Value: -12.977


	FINAL GENETIC ALGORITHM DOCKED STATE
	_______________________________________________


Detailed state:  trans 35.526 13.162 118.907 quatxyzw 0.038606 0.718777 0.181115 0.670124 center -0.037 -0.159 0.371 ntor 9 5.3146 -170.1062 -30.7332 50.6794 106.4970 73.9809 -41.8141 69.8152 -51.3324
State:	 35.526  13.162 118.907   0.052  0.968  0.244 95.847      5.31 -170.11  -30.73   50.68  106.50   73.98  -41.81   69.82  -51.33

DOCKED: MODEL       41
DOCKED: USER    Run = 41
DOCKED: USER    DPF = ligand_dock.biased.dpf
DOCKED: USER  
DOCKED: USER    Estimated Free Energy of Binding    =   -9.12 kcal/mol  [=(1)+(2)+(3)-(4)]
DOCKED: USER    Estimated Inhibition Constant, Ki   =  207.10 nM (nanomolar)  [Temperature = 298.15 K]
DOCKED: USER    
DOCKED: USER    (1) Final Intermolecular Energy     =  -11.80 kcal/mol
DOCKED: USER        vdW + Hbond + desolv Energy     =  -11.80 kcal/mol
DOCKED: USER        Electrostatic Energy            =   +0.00 kcal/mol
DOCKED: USER    (2) Final Total Internal Energy     =   -1.17 kcal/mol
DOCKED: USER    (3) Torsional Free Energy           =   +2.68 kcal/mol
DOCKED: USER    (4) Unbound System's Energy  [=(2)] =   -1.17 kcal/mol
DOCKED: USER    
DOCKED: USER    
DOCKED: USER    NEWDPF move ligand.dum.pdbqt
DOCKED: USER    NEWDPF about -0.037000 -0.159000 0.371000
DOCKED: USER    NEWDPF tran0 35.526276 13.161998 118.906758
DOCKED: USER    NEWDPF quaternion0 0.038606 0.718777 0.181115 0.670124
DOCKED: USER    NEWDPF axisangle0 0.052012 0.968377 0.244008 95.846707
DOCKED: USER    NEWDPF quat0 0.052012 0.968377 0.244008 95.846707
DOCKED: USER    NEWDPF dihe0 5.31 -170.11 -30.73 50.68 106.50 73.98 -41.81 69.82 -51.33 
DOCKED: USER  keepresnum = 1 
DOCKED: USER  
DOCKED: REMARK  Name = 
DOCKED: REMARK  9 active torsions:
DOCKED: REMARK  status: ('A' for Active; 'I' for Inactive)
DOCKED: REMARK    1  A    between atoms: C_2  and  C_10
DOCKED: REMARK    2  A    between atoms: N_3  and  C_4
DOCKED: REMARK    3  A    between atoms: C_10  and  C_11
DOCKED: REMARK    4  A    between atoms: C_11  and  C_12
DOCKED: REMARK    5  A    between atoms: C_12  and  C_13
DOCKED: REMARK    6  A    between atoms: C_13  and  C_14
DOCKED: REMARK    7  A    between atoms: C_14  and  C_15
DOCKED: REMARK    8  A    between atoms: C_15  and  C_16
DOCKED: REMARK    9  A    between atoms: N_17  and  O_18
DOCKED: REMARK                            x       y       z     vdW  Elec       q    Type
DOCKED: REMARK                         _______ _______ _______ _____ _____    ______ ____
DOCKED: USER                              x       y       z     vdW  Elec       q    Type
DOCKED: USER                           _______ _______ _______ _____ _____    ______ ____
DOCKED: ROOT
DOCKED: ATOM      1  C   UNL     1      38.067  14.109 118.695 -0.19 -0.00    +0.000 C 
DOCKED: ENDROOT
DOCKED: BRANCH   1   3
DOCKED: ATOM      2  O   UNL     1      37.137  12.683 117.023 -0.37 -0.00    +0.000 OA
DOCKED: ATOM      3  C   UNL     1      37.768  13.747 117.271 -0.37 -0.00    +0.000 C 
DOCKED: ATOM      4  N   UNL     1      38.199  14.608 116.206 -0.25 -0.00    +0.000 N 
DOCKED: ATOM      5  H   UNL     1      38.823  15.338 116.423 -0.01 -0.00    +0.000 HD
DOCKED: BRANCH   4   6
DOCKED: ATOM      6  C   UNL     1      37.772  14.469 114.841 -0.27 -0.00    +0.000 A 
DOCKED: ATOM      7  C   UNL     1      36.778  13.542 114.474 -0.31 -0.00    +0.000 A 
DOCKED: ATOM      8  C   UNL     1      36.364  13.443 113.142 -0.29 -0.00    +0.000 A 
DOCKED: ATOM      9  C   UNL     1      36.925  14.275 112.169 -0.18 -0.00    +0.000 A 
DOCKED: ATOM     10  C   UNL     1      37.897  15.213 112.529 -0.14 -0.00    +0.000 A 
DOCKED: ATOM     11  C   UNL     1      38.313  15.316 113.860 -0.18 -0.00    +0.000 A 
DOCKED: ATOM     12  CM  UNL     1      37.341  14.376 113.502 +0.00 -0.00    +0.000 AC
DOCKED: ENDBRANCH   4   6
DOCKED: ENDBRANCH   1   3
DOCKED: BRANCH   1  12
DOCKED: ATOM     13  C   UNL     1      37.019  13.502 119.631 -0.40 -0.00    +0.000 C 
DOCKED: BRANCH  12  13
DOCKED: ATOM     14  C   UNL     1      37.686  12.723 120.775 -0.50 -0.00    +0.000 C 
DOCKED: BRANCH  13  14
DOCKED: ATOM     15  C   UNL     1      37.062  13.036 122.143 -0.53 -0.00    +0.000 C 
DOCKED: BRANCH  14  15
DOCKED: ATOM     16  C   UNL     1      37.080  11.822 123.090 -0.65 -0.00    +0.000 C 
DOCKED: BRANCH  15  16
DOCKED: ATOM     17  C   UNL     1      35.940  10.837 122.792 -0.69 -0.00    +0.000 C 
DOCKED: BRANCH  16  17
DOCKED: ATOM     18  C   UNL     1      36.461   9.479 122.421 -0.71 -0.00    +0.000 C 
DOCKED: ATOM     19  N   UNL     1      36.641   8.473 123.422 -0.65 -0.00    +0.000 N 
DOCKED: ATOM     20  O   UNL     1      36.711   9.215 121.214 -2.63 -0.00    +0.000 OA
DOCKED: ATOM     21  H   UNL     1      36.446   8.683 124.364 -0.30 -0.00    +0.000 HD
DOCKED: BRANCH  18  21
DOCKED: ATOM     22  O   UNL     1      37.077   7.237 123.085 -2.05 -0.00    +0.000 OA
DOCKED: ATOM     23  H   UNL     1      37.301   7.220 122.142 -0.14 -0.00    +0.000 HD
DOCKED: ENDBRANCH  18  21
DOCKED: ENDBRANCH  16  17
DOCKED: ENDBRANCH  15  16
DOCKED: ENDBRANCH  14  15
DOCKED: ENDBRANCH  13  14
DOCKED: ENDBRANCH  12  13
DOCKED: ENDBRANCH   1  12
DOCKED: TORSDOF 9DOCKED: TER
DOCKED: ENDMDL
________________________________________________________________________________


	BEGINNING GENETIC ALGORITHM DOCKING 42 of 100
Run: 42 Seed: 1989920973 1714753500 [ Run 42 of 100 GA/GALS ]
Beginning LAMARCKIAN GENETIC ALGORITHM (LGA), with a maximum of 2500000 energy evaluations.

Final-Value: -12.928


	FINAL GENETIC ALGORITHM DOCKED STATE
	_______________________________________________


Detailed state:  trans 37.149 13.747 121.584 quatxyzw -0.193566 0.929064 -0.296779 0.106274 center -0.037 -0.159 0.371 ntor 9 10.8730 -78.2095 124.3483 -179.6504 108.7833 -157.7503 66.9116 149.4304 -153.7996
State:	 37.149  13.747 121.584  -0.195  0.934 -0.298 167.799     10.87  -78.21  124.35 -179.65  108.78 -157.75   66.91  149.43 -153.80

DOCKED: MODEL       42
DOCKED: USER    Run = 42
DOCKED: USER    DPF = ligand_dock.biased.dpf
DOCKED: USER  
DOCKED: USER    Estimated Free Energy of Binding    =   -9.05 kcal/mol  [=(1)+(2)+(3)-(4)]
DOCKED: USER    Estimated Inhibition Constant, Ki   =  231.59 nM (nanomolar)  [Temperature = 298.15 K]
DOCKED: USER    
DOCKED: USER    (1) Final Intermolecular Energy     =  -11.74 kcal/mol
DOCKED: USER        vdW + Hbond + desolv Energy     =  -11.74 kcal/mol
DOCKED: USER        Electrostatic Energy            =   +0.00 kcal/mol
DOCKED: USER    (2) Final Total Internal Energy     =   -1.19 kcal/mol
DOCKED: USER    (3) Torsional Free Energy           =   +2.68 kcal/mol
DOCKED: USER    (4) Unbound System's Energy  [=(2)] =   -1.19 kcal/mol
DOCKED: USER    
DOCKED: USER    
DOCKED: USER    NEWDPF move ligand.dum.pdbqt
DOCKED: USER    NEWDPF about -0.037000 -0.159000 0.371000
DOCKED: USER    NEWDPF tran0 37.148764 13.746621 121.583712
DOCKED: USER    NEWDPF quaternion0 -0.193566 0.929064 -0.296779 0.106274
DOCKED: USER    NEWDPF axisangle0 -0.194668 0.934356 -0.298469 167.798800
DOCKED: USER    NEWDPF quat0 -0.194668 0.934356 -0.298469 167.798800
DOCKED: USER    NEWDPF dihe0 10.87 -78.21 124.35 -179.65 108.78 -157.75 66.91 149.43 -153.80 
DOCKED: USER  keepresnum = 1 
DOCKED: USER  
DOCKED: REMARK  Name = 
DOCKED: REMARK  9 active torsions:
DOCKED: REMARK  status: ('A' for Active; 'I' for Inactive)
DOCKED: REMARK    1  A    between atoms: C_2  and  C_10
DOCKED: REMARK    2  A    between atoms: N_3  and  C_4
DOCKED: REMARK    3  A    between atoms: C_10  and  C_11
DOCKED: REMARK    4  A    between atoms: C_11  and  C_12
DOCKED: REMARK    5  A    between atoms: C_12  and  C_13
DOCKED: REMARK    6  A    between atoms: C_13  and  C_14
DOCKED: REMARK    7  A    between atoms: C_14  and  C_15
DOCKED: REMARK    8  A    between atoms: C_15  and  C_16
DOCKED: REMARK    9  A    between atoms: N_17  and  O_18
DOCKED: REMARK                            x       y       z     vdW  Elec       q    Type
DOCKED: REMARK                         _______ _______ _______ _____ _____    ______ ____
DOCKED: USER                              x       y       z     vdW  Elec       q    Type
DOCKED: USER                           _______ _______ _______ _____ _____    ______ ____
DOCKED: ROOT
DOCKED: ATOM      1  C   UNL     1      37.222  16.380 122.260 -0.25 -0.00    +0.000 C 
DOCKED: ENDROOT
DOCKED: BRANCH   1   3
DOCKED: ATOM      2  O   UNL     1      39.025  15.333 121.100 -0.27 -0.00    +0.000 OA
DOCKED: ATOM      3  C   UNL     1      38.678  16.090 122.047 -0.25 -0.00    +0.000 C 
DOCKED: ATOM      4  N   UNL     1      39.660  16.671 122.918 -0.25 -0.00    +0.000 N 
DOCKED: ATOM      5  H   UNL     1      39.347  17.119 123.737 -0.01 -0.00    +0.000 HD
DOCKED: BRANCH   4   6
DOCKED: ATOM      6  C   UNL     1      41.074  16.637 122.665 -0.30 -0.00    +0.000 A 
DOCKED: ATOM      7  C   UNL     1      41.958  17.520 123.316 -0.30 -0.00    +0.000 A 
DOCKED: ATOM      8  C   UNL     1      43.332  17.449 123.069 -0.26 -0.00    +0.000 A 
DOCKED: ATOM      9  C   UNL     1      43.839  16.492 122.186 -0.27 -0.00    +0.000 A 
DOCKED: ATOM     10  C   UNL     1      42.970  15.598 121.553 -0.26 -0.00    +0.000 A 
DOCKED: ATOM     11  C   UNL     1      41.595  15.664 121.798 -0.35 -0.00    +0.000 A 
DOCKED: ATOM     12  CM  UNL     1      42.462  16.560 122.431 +0.00 -0.00    +0.000 AC
DOCKED: ENDBRANCH   4   6
DOCKED: ENDBRANCH   1   3
DOCKED: BRANCH   1  12
DOCKED: ATOM     13  C   UNL     1      36.425  15.075 122.344 -0.28 -0.00    +0.000 C 
DOCKED: BRANCH  12  13
DOCKED: ATOM     14  C   UNL     1      37.310  13.918 122.830 -0.51 -0.00    +0.000 C 
DOCKED: BRANCH  13  14
DOCKED: ATOM     15  C   UNL     1      37.462  12.810 121.777 -0.51 -0.00    +0.000 C 
DOCKED: BRANCH  14  15
DOCKED: ATOM     16  C   UNL     1      36.301  11.799 121.814 -0.54 -0.00    +0.000 C 
DOCKED: BRANCH  15  16
DOCKED: ATOM     17  C   UNL     1      36.442  10.797 122.968 -0.70 -0.00    +0.000 C 
DOCKED: BRANCH  16  17
DOCKED: ATOM     18  C   UNL     1      36.747   9.414 122.470 -0.71 -0.00    +0.000 C 
DOCKED: ATOM     19  N   UNL     1      36.826   8.316 123.383 -0.70 -0.00    +0.000 N 
DOCKED: ATOM     20  O   UNL     1      36.906   9.217 121.235 -2.67 -0.00    +0.000 OA
DOCKED: ATOM     21  H   UNL     1      36.704   8.473 124.347 -0.38 -0.00    +0.000 HD
DOCKED: BRANCH  18  21
DOCKED: ATOM     22  O   UNL     1      37.066   7.062 122.932 -1.82 -0.00    +0.000 OA
DOCKED: ATOM     23  H   UNL     1      37.330   7.099 122.000 -0.17 -0.00    +0.000 HD
DOCKED: ENDBRANCH  18  21
DOCKED: ENDBRANCH  16  17
DOCKED: ENDBRANCH  15  16
DOCKED: ENDBRANCH  14  15
DOCKED: ENDBRANCH  13  14
DOCKED: ENDBRANCH  12  13
DOCKED: ENDBRANCH   1  12
DOCKED: TORSDOF 9DOCKED: TER
DOCKED: ENDMDL
________________________________________________________________________________


	BEGINNING GENETIC ALGORITHM DOCKING 43 of 100
Run: 43 Seed: 183545488 1256531721 [ Run 43 of 100 GA/GALS ]
Beginning LAMARCKIAN GENETIC ALGORITHM (LGA), with a maximum of 2500000 energy evaluations.

Final-Value: -13.669


	FINAL GENETIC ALGORITHM DOCKED STATE
	_______________________________________________


Detailed state:  trans 37.219 11.663 120.126 quatxyzw -0.746278 -0.598909 -0.154380 0.246058 center -0.037 -0.159 0.371 ntor 9 3.0704 -166.0507 -94.6583 169.3915 121.7370 173.3313 -92.7148 156.2163 -81.0464
State:	 37.219  11.663 120.126  -0.770 -0.618 -0.159 151.511      3.07 -166.05  -94.66  169.39  121.74  173.33  -92.71  156.22  -81.05

DOCKED: MODEL       43
DOCKED: USER    Run = 43
DOCKED: USER    DPF = ligand_dock.biased.dpf
DOCKED: USER  
DOCKED: USER    Estimated Free Energy of Binding    =   -9.58 kcal/mol  [=(1)+(2)+(3)-(4)]
DOCKED: USER    Estimated Inhibition Constant, Ki   =   94.36 nM (nanomolar)  [Temperature = 298.15 K]
DOCKED: USER    
DOCKED: USER    (1) Final Intermolecular Energy     =  -12.27 kcal/mol
DOCKED: USER        vdW + Hbond + desolv Energy     =  -12.27 kcal/mol
DOCKED: USER        Electrostatic Energy            =   +0.00 kcal/mol
DOCKED: USER    (2) Final Total Internal Energy     =   -1.40 kcal/mol
DOCKED: USER    (3) Torsional Free Energy           =   +2.68 kcal/mol
DOCKED: USER    (4) Unbound System's Energy  [=(2)] =   -1.40 kcal/mol
DOCKED: USER    
DOCKED: USER    
DOCKED: USER    NEWDPF move ligand.dum.pdbqt
DOCKED: USER    NEWDPF about -0.037000 -0.159000 0.371000
DOCKED: USER    NEWDPF tran0 37.218533 11.662824 120.126488
DOCKED: USER    NEWDPF quaternion0 -0.746278 -0.598909 -0.154380 0.246058
DOCKED: USER    NEWDPF axisangle0 -0.769950 -0.617906 -0.159277 151.511267
DOCKED: USER    NEWDPF quat0 -0.769950 -0.617906 -0.159277 151.511267
DOCKED: USER    NEWDPF dihe0 3.07 -166.05 -94.66 169.39 121.74 173.33 -92.71 156.22 -81.05 
DOCKED: USER  keepresnum = 1 
DOCKED: USER  
DOCKED: REMARK  Name = 
DOCKED: REMARK  9 active torsions:
DOCKED: REMARK  status: ('A' for Active; 'I' for Inactive)
DOCKED: REMARK    1  A    between atoms: C_2  and  C_10
DOCKED: REMARK    2  A    between atoms: N_3  and  C_4
DOCKED: REMARK    3  A    between atoms: C_10  and  C_11
DOCKED: REMARK    4  A    between atoms: C_11  and  C_12
DOCKED: REMARK    5  A    between atoms: C_12  and  C_13
DOCKED: REMARK    6  A    between atoms: C_13  and  C_14
DOCKED: REMARK    7  A    between atoms: C_14  and  C_15
DOCKED: REMARK    8  A    between atoms: C_15  and  C_16
DOCKED: REMARK    9  A    between atoms: N_17  and  O_18
DOCKED: REMARK                            x       y       z     vdW  Elec       q    Type
DOCKED: REMARK                         _______ _______ _______ _____ _____    ______ ____
DOCKED: USER                              x       y       z     vdW  Elec       q    Type
DOCKED: USER                           _______ _______ _______ _____ _____    ______ ____
DOCKED: ROOT
DOCKED: ATOM      1  C   UNL     1      37.267  11.173 122.802 -0.40 -0.00    +0.000 C 
DOCKED: ENDROOT
DOCKED: BRANCH   1   3
DOCKED: ATOM      2  O   UNL     1      36.902   9.363 121.289 -2.49 -0.00    +0.000 OA
DOCKED: ATOM      3  C   UNL     1      36.488   9.994 122.300 -0.68 -0.00    +0.000 C 
DOCKED: ATOM      4  N   UNL     1      35.282   9.594 122.969 -0.60 -0.00    +0.000 N 
DOCKED: ATOM      5  H   UNL     1      34.905  10.201 123.647 -0.41 -0.00    +0.000 HD
DOCKED: BRANCH   4   6
DOCKED: ATOM      6  C   UNL     1      34.593   8.360 122.708 -0.62 -0.00    +0.000 A 
DOCKED: ATOM      7  C   UNL     1      34.140   8.032 121.416 -0.57 -0.00    +0.000 A 
DOCKED: ATOM      8  C   UNL     1      33.494   6.813 121.185 -0.42 -0.00    +0.000 A 
DOCKED: ATOM      9  C   UNL     1      33.307   5.908 122.233 -0.60 -0.00    +0.000 A 
DOCKED: ATOM     10  C   UNL     1      33.773   6.218 123.514 -0.61 -0.00    +0.000 A 
DOCKED: ATOM     11  C   UNL     1      34.421   7.434 123.749 -0.61 -0.00    +0.000 A 
DOCKED: ATOM     12  CM  UNL     1      33.954   7.127 122.468 +0.00 -0.00    +0.000 AC
DOCKED: ENDBRANCH   4   6
DOCKED: ENDBRANCH   1   3
DOCKED: BRANCH   1  12
DOCKED: ATOM     13  C   UNL     1      37.380  12.241 121.710 -0.52 -0.00    +0.000 C 
DOCKED: BRANCH  12  13
DOCKED: ATOM     14  C   UNL     1      36.338  13.351 121.915 -0.00 -0.00    +0.000 C 
DOCKED: BRANCH  13  14
DOCKED: ATOM     15  C   UNL     1      36.804  14.418 122.917 -0.47 -0.00    +0.000 C 
DOCKED: BRANCH  14  15
DOCKED: ATOM     16  C   UNL     1      35.958  14.427 124.203 -0.48 -0.00    +0.000 C 
DOCKED: BRANCH  15  16
DOCKED: ATOM     17  C   UNL     1      34.501  14.831 123.937 -0.49 -0.00    +0.000 C 
DOCKED: BRANCH  16  17
DOCKED: ATOM     18  C   UNL     1      34.105  16.043 124.730 -0.54 -0.00    +0.000 C 
DOCKED: ATOM     19  N   UNL     1      34.155  17.344 124.139 -0.41 -0.00    +0.000 N 
DOCKED: ATOM     20  O   UNL     1      33.698  15.906 125.915 -0.92 -0.00    +0.000 OA
DOCKED: ATOM     21  H   UNL     1      34.476  17.448 123.214 -0.01 -0.00    +0.000 HD
DOCKED: BRANCH  18  21
DOCKED: ATOM     22  O   UNL     1      33.766  18.434 124.841 -0.40 -0.00    +0.000 OA
DOCKED: ATOM     23  H   UNL     1      33.526  18.169 125.743 -0.02 -0.00    +0.000 HD
DOCKED: ENDBRANCH  18  21
DOCKED: ENDBRANCH  16  17
DOCKED: ENDBRANCH  15  16
DOCKED: ENDBRANCH  14  15
DOCKED: ENDBRANCH  13  14
DOCKED: ENDBRANCH  12  13
DOCKED: ENDBRANCH   1  12
DOCKED: TORSDOF 9DOCKED: TER
DOCKED: ENDMDL
________________________________________________________________________________


	BEGINNING GENETIC ALGORITHM DOCKING 44 of 100
Run: 44 Seed: 898055655 749508377 [ Run 44 of 100 GA/GALS ]
Beginning LAMARCKIAN GENETIC ALGORITHM (LGA), with a maximum of 2500000 energy evaluations.

Final-Value: -13.729


	FINAL GENETIC ALGORITHM DOCKED STATE
	_______________________________________________


Detailed state:  trans 36.062 14.673 122.285 quatxyzw -0.413871 0.909118 -0.038374 -0.027268 center -0.037 -0.159 0.371 ntor 9 8.1850 100.6950 94.1966 -180.0000 51.0701 77.0634 -5.6681 -61.7632 -133.5894
State:	 36.062  14.673 122.285  -0.414  0.909 -0.038 -176.875      8.19  100.70   94.20 -180.00   51.07   77.06   -5.67  -61.76 -133.59

DOCKED: MODEL       44
DOCKED: USER    Run = 44
DOCKED: USER    DPF = ligand_dock.biased.dpf
DOCKED: USER  
DOCKED: USER    Estimated Free Energy of Binding    =   -9.67 kcal/mol  [=(1)+(2)+(3)-(4)]
DOCKED: USER    Estimated Inhibition Constant, Ki   =   82.00 nM (nanomolar)  [Temperature = 298.15 K]
DOCKED: USER    
DOCKED: USER    (1) Final Intermolecular Energy     =  -12.35 kcal/mol
DOCKED: USER        vdW + Hbond + desolv Energy     =  -12.35 kcal/mol
DOCKED: USER        Electrostatic Energy            =   +0.00 kcal/mol
DOCKED: USER    (2) Final Total Internal Energy     =   -1.38 kcal/mol
DOCKED: USER    (3) Torsional Free Energy           =   +2.68 kcal/mol
DOCKED: USER    (4) Unbound System's Energy  [=(2)] =   -1.38 kcal/mol
DOCKED: USER    
DOCKED: USER    
DOCKED: USER    NEWDPF move ligand.dum.pdbqt
DOCKED: USER    NEWDPF about -0.037000 -0.159000 0.371000
DOCKED: USER    NEWDPF tran0 36.061671 14.673302 122.285058
DOCKED: USER    NEWDPF quaternion0 -0.413871 0.909118 -0.038374 -0.027268
DOCKED: USER    NEWDPF axisangle0 -0.414025 0.909456 -0.038388 -176.874982
DOCKED: USER    NEWDPF quat0 -0.414025 0.909456 -0.038388 -176.874982
DOCKED: USER    NEWDPF dihe0 8.19 100.70 94.20 -180.00 51.07 77.06 -5.67 -61.76 -133.59 
DOCKED: USER  keepresnum = 1 
DOCKED: USER  
DOCKED: REMARK  Name = 
DOCKED: REMARK  9 active torsions:
DOCKED: REMARK  status: ('A' for Active; 'I' for Inactive)
DOCKED: REMARK    1  A    between atoms: C_2  and  C_10
DOCKED: REMARK    2  A    between atoms: N_3  and  C_4
DOCKED: REMARK    3  A    between atoms: C_10  and  C_11
DOCKED: REMARK    4  A    between atoms: C_11  and  C_12
DOCKED: REMARK    5  A    between atoms: C_12  and  C_13
DOCKED: REMARK    6  A    between atoms: C_13  and  C_14
DOCKED: REMARK    7  A    between atoms: C_14  and  C_15
DOCKED: REMARK    8  A    between atoms: C_15  and  C_16
DOCKED: REMARK    9  A    between atoms: N_17  and  O_18
DOCKED: REMARK                            x       y       z     vdW  Elec       q    Type
DOCKED: REMARK                         _______ _______ _______ _____ _____    ______ ____
DOCKED: USER                              x       y       z     vdW  Elec       q    Type
DOCKED: USER                           _______ _______ _______ _____ _____    ______ ____
DOCKED: ROOT
DOCKED: ATOM      1  C   UNL     1      35.110  16.297 124.249 -0.48 -0.00    +0.000 C 
DOCKED: ENDROOT
DOCKED: BRANCH   1   3
DOCKED: ATOM      2  O   UNL     1      36.963  17.628 124.948 -0.22 -0.00    +0.000 OA
DOCKED: ATOM      3  C   UNL     1      36.520  16.789 124.117 -0.28 -0.00    +0.000 C 
DOCKED: ATOM      4  N   UNL     1      37.351  16.305 123.050 -0.27 -0.00    +0.000 N 
DOCKED: ATOM      5  H   UNL     1      36.927  15.783 122.332 -0.00 -0.00    +0.000 HD
DOCKED: BRANCH   4   6
DOCKED: ATOM      6  C   UNL     1      38.767  16.540 122.970 -0.23 -0.00    +0.000 A 
DOCKED: ATOM      7  C   UNL     1      39.670  15.492 122.707 -0.31 -0.00    +0.000 A 
DOCKED: ATOM      8  C   UNL     1      41.041  15.752 122.610 -0.40 -0.00    +0.000 A 
DOCKED: ATOM      9  C   UNL     1      41.520  17.056 122.758 -0.29 -0.00    +0.000 A 
DOCKED: ATOM     10  C   UNL     1      40.627  18.105 122.997 -0.17 -0.00    +0.000 A 
DOCKED: ATOM     11  C   UNL     1      39.256  17.850 123.094 -0.16 -0.00    +0.000 A 
DOCKED: ATOM     12  CM  UNL     1      40.147  16.800 122.856 +0.00 -0.00    +0.000 AC
DOCKED: ENDBRANCH   4   6
DOCKED: ENDBRANCH   1   3
DOCKED: BRANCH   1  12
DOCKED: ATOM     13  C   UNL     1      34.942  14.959 123.523 -0.44 -0.00    +0.000 C 
DOCKED: BRANCH  12  13
DOCKED: ATOM     14  C   UNL     1      36.091  13.999 123.864 -0.54 -0.00    +0.000 C 
DOCKED: BRANCH  13  14
DOCKED: ATOM     15  C   UNL     1      35.844  12.575 123.342 -0.57 -0.00    +0.000 C 
DOCKED: BRANCH  14  15
DOCKED: ATOM     16  C   UNL     1      37.151  11.836 123.004 -0.61 -0.00    +0.000 C 
DOCKED: BRANCH  15  16
DOCKED: ATOM     17  C   UNL     1      37.066  11.090 121.665 -0.53 -0.00    +0.000 C 
DOCKED: BRANCH  16  17
DOCKED: ATOM     18  C   UNL     1      37.068   9.601 121.857 -0.60 -0.00    +0.000 C 
DOCKED: ATOM     19  N   UNL     1      37.073   9.039 123.172 -0.65 -0.00    +0.000 N 
DOCKED: ATOM     20  O   UNL     1      37.033   8.843 120.850 -2.71 -0.00    +0.000 OA
DOCKED: ATOM     21  H   UNL     1      37.102   9.634 123.956 -0.51 -0.00    +0.000 HD
DOCKED: BRANCH  18  21
DOCKED: ATOM     22  O   UNL     1      37.039   7.697 123.347 -2.29 -0.00    +0.000 OA
DOCKED: ATOM     23  H   UNL     1      37.144   7.257 122.489 -0.11 -0.00    +0.000 HD
DOCKED: ENDBRANCH  18  21
DOCKED: ENDBRANCH  16  17
DOCKED: ENDBRANCH  15  16
DOCKED: ENDBRANCH  14  15
DOCKED: ENDBRANCH  13  14
DOCKED: ENDBRANCH  12  13
DOCKED: ENDBRANCH   1  12
DOCKED: TORSDOF 9DOCKED: TER
DOCKED: ENDMDL
________________________________________________________________________________


	BEGINNING GENETIC ALGORITHM DOCKING 45 of 100
Run: 45 Seed: 759158357 2027720069 [ Run 45 of 100 GA/GALS ]
Beginning LAMARCKIAN GENETIC ALGORITHM (LGA), with a maximum of 2500000 energy evaluations.

Final-Value: -13.702


	FINAL GENETIC ALGORITHM DOCKED STATE
	_______________________________________________


Detailed state:  trans 39.365 13.563 121.508 quatxyzw 0.432093 -0.851133 0.289473 -0.071231 center -0.037 -0.159 0.371 ntor 9 81.2545 89.0190 -137.9321 105.3464 -173.7906 -171.4974 66.8871 -104.9115 10.2274
State:	 39.365  13.563 121.508   0.433 -0.853  0.290 -171.831     81.25   89.02 -137.93  105.35 -173.79 -171.50   66.89 -104.91   10.23

DOCKED: MODEL       45
DOCKED: USER    Run = 45
DOCKED: USER    DPF = ligand_dock.biased.dpf
DOCKED: USER  
DOCKED: USER    Estimated Free Energy of Binding    =  -10.13 kcal/mol  [=(1)+(2)+(3)-(4)]
DOCKED: USER    Estimated Inhibition Constant, Ki   =   37.55 nM (nanomolar)  [Temperature = 298.15 K]
DOCKED: USER    
DOCKED: USER    (1) Final Intermolecular Energy     =  -12.81 kcal/mol
DOCKED: USER        vdW + Hbond + desolv Energy     =  -12.81 kcal/mol
DOCKED: USER        Electrostatic Energy            =   +0.00 kcal/mol
DOCKED: USER    (2) Final Total Internal Energy     =   -0.89 kcal/mol
DOCKED: USER    (3) Torsional Free Energy           =   +2.68 kcal/mol
DOCKED: USER    (4) Unbound System's Energy  [=(2)] =   -0.89 kcal/mol
DOCKED: USER    
DOCKED: USER    
DOCKED: USER    NEWDPF move ligand.dum.pdbqt
DOCKED: USER    NEWDPF about -0.037000 -0.159000 0.371000
DOCKED: USER    NEWDPF tran0 39.364699 13.563284 121.508468
DOCKED: USER    NEWDPF quaternion0 0.432093 -0.851133 0.289473 -0.071231
DOCKED: USER    NEWDPF axisangle0 0.433193 -0.853300 0.290210 -171.830661
DOCKED: USER    NEWDPF quat0 0.433193 -0.853300 0.290210 -171.830661
DOCKED: USER    NEWDPF dihe0 81.25 89.02 -137.93 105.35 -173.79 -171.50 66.89 -104.91 10.23 
DOCKED: USER  keepresnum = 1 
DOCKED: USER  
DOCKED: REMARK  Name = 
DOCKED: REMARK  9 active torsions:
DOCKED: REMARK  status: ('A' for Active; 'I' for Inactive)
DOCKED: REMARK    1  A    between atoms: C_2  and  C_10
DOCKED: REMARK    2  A    between atoms: N_3  and  C_4
DOCKED: REMARK    3  A    between atoms: C_10  and  C_11
DOCKED: REMARK    4  A    between atoms: C_11  and  C_12
DOCKED: REMARK    5  A    between atoms: C_12  and  C_13
DOCKED: REMARK    6  A    between atoms: C_13  and  C_14
DOCKED: REMARK    7  A    between atoms: C_14  and  C_15
DOCKED: REMARK    8  A    between atoms: C_15  and  C_16
DOCKED: REMARK    9  A    between atoms: N_17  and  O_18
DOCKED: REMARK                            x       y       z     vdW  Elec       q    Type
DOCKED: REMARK                         _______ _______ _______ _____ _____    ______ ____
DOCKED: USER                              x       y       z     vdW  Elec       q    Type
DOCKED: USER                           _______ _______ _______ _____ _____    ______ ____
DOCKED: ROOT
DOCKED: ATOM      1  C   UNL     1      38.245  15.906 122.318 -0.28 -0.00    +0.000 C 
DOCKED: ENDROOT
DOCKED: BRANCH   1   3
DOCKED: ATOM      2  O   UNL     1      39.809  17.489 121.456 -0.11 -0.00    +0.000 OA
DOCKED: ATOM      3  C   UNL     1      39.634  16.349 121.966 -0.24 -0.00    +0.000 C 
DOCKED: ATOM      4  N   UNL     1      40.748  15.477 122.212 -0.37 -0.00    +0.000 N 
DOCKED: ATOM      5  H   UNL     1      40.560  14.542 122.457 -0.03 -0.00    +0.000 HD
DOCKED: BRANCH   4   6
DOCKED: ATOM      6  C   UNL     1      42.122  15.888 122.121 -0.38 -0.00    +0.000 A 
DOCKED: ATOM      7  C   UNL     1      42.903  15.593 120.987 -0.22 -0.00    +0.000 A 
DOCKED: ATOM      8  C   UNL     1      44.231  16.026 120.914 -0.23 -0.00    +0.000 A 
DOCKED: ATOM      9  C   UNL     1      44.785  16.768 121.961 -0.26 -0.00    +0.000 A 
DOCKED: ATOM     10  C   UNL     1      44.009  17.084 123.079 -0.25 -0.00    +0.000 A 
DOCKED: ATOM     11  C   UNL     1      42.681  16.654 123.156 -0.37 -0.00    +0.000 A 
DOCKED: ATOM     12  CM  UNL     1      43.455  16.336 122.037 +0.00 -0.00    +0.000 AC
DOCKED: ENDBRANCH   4   6
DOCKED: ENDBRANCH   1   3
DOCKED: BRANCH   1  12
DOCKED: ATOM     13  C   UNL     1      38.177  14.378 122.399 -0.45 -0.00    +0.000 C 
DOCKED: BRANCH  12  13
DOCKED: ATOM     14  C   UNL     1      36.722  13.897 122.507 -0.46 -0.00    +0.000 C 
DOCKED: BRANCH  13  14
DOCKED: ATOM     15  C   UNL     1      36.440  13.169 123.831 -0.58 -0.00    +0.000 C 
DOCKED: BRANCH  14  15
DOCKED: ATOM     16  C   UNL     1      36.495  11.638 123.685 -0.70 -0.00    +0.000 C 
DOCKED: BRANCH  15  16
DOCKED: ATOM     17  C   UNL     1      36.808  11.204 122.246 -0.62 -0.00    +0.000 C 
DOCKED: BRANCH  16  17
DOCKED: ATOM     18  C   UNL     1      36.994   9.718 122.141 -0.61 -0.00    +0.000 C 
DOCKED: ATOM     19  N   UNL     1      37.054   8.909 123.318 -0.63 -0.00    +0.000 N 
DOCKED: ATOM     20  O   UNL     1      37.068   9.177 121.004 -2.73 -0.00    +0.000 OA
DOCKED: ATOM     21  H   UNL     1      36.998   9.334 124.205 -0.56 -0.00    +0.000 HD
DOCKED: BRANCH  18  21
DOCKED: ATOM     22  O   UNL     1      37.187   7.565 123.225 -2.20 -0.00    +0.000 OA
DOCKED: ATOM     23  H   UNL     1      38.119   7.342 123.078 -0.52 -0.00    +0.000 HD
DOCKED: ENDBRANCH  18  21
DOCKED: ENDBRANCH  16  17
DOCKED: ENDBRANCH  15  16
DOCKED: ENDBRANCH  14  15
DOCKED: ENDBRANCH  13  14
DOCKED: ENDBRANCH  12  13
DOCKED: ENDBRANCH   1  12
DOCKED: TORSDOF 9DOCKED: TER
DOCKED: ENDMDL
________________________________________________________________________________


	BEGINNING GENETIC ALGORITHM DOCKING 46 of 100
Run: 46 Seed: 597096331 149268072 [ Run 46 of 100 GA/GALS ]
Beginning LAMARCKIAN GENETIC ALGORITHM (LGA), with a maximum of 2500000 energy evaluations.

Final-Value: -14.056


	FINAL GENETIC ALGORITHM DOCKED STATE
	_______________________________________________


Detailed state:  trans 37.136 13.311 120.735 quatxyzw -0.717736 -0.184680 0.466554 0.482778 center -0.037 -0.159 0.371 ntor 9 -2.8162 174.7915 -66.2409 37.1555 84.2018 157.4873 -102.0369 -162.5762 109.8516
State:	 37.136  13.311 120.735  -0.820 -0.211  0.533 122.266     -2.82  174.79  -66.24   37.16   84.20  157.49 -102.04 -162.58  109.85

DOCKED: MODEL       46
DOCKED: USER    Run = 46
DOCKED: USER    DPF = ligand_dock.biased.dpf
DOCKED: USER  
DOCKED: USER    Estimated Free Energy of Binding    =   -9.98 kcal/mol  [=(1)+(2)+(3)-(4)]
DOCKED: USER    Estimated Inhibition Constant, Ki   =   48.05 nM (nanomolar)  [Temperature = 298.15 K]
DOCKED: USER    
DOCKED: USER    (1) Final Intermolecular Energy     =  -12.67 kcal/mol
DOCKED: USER        vdW + Hbond + desolv Energy     =  -12.67 kcal/mol
DOCKED: USER        Electrostatic Energy            =   +0.00 kcal/mol
DOCKED: USER    (2) Final Total Internal Energy     =   -1.39 kcal/mol
DOCKED: USER    (3) Torsional Free Energy           =   +2.68 kcal/mol
DOCKED: USER    (4) Unbound System's Energy  [=(2)] =   -1.39 kcal/mol
DOCKED: USER    
DOCKED: USER    
DOCKED: USER    NEWDPF move ligand.dum.pdbqt
DOCKED: USER    NEWDPF about -0.037000 -0.159000 0.371000
DOCKED: USER    NEWDPF tran0 37.135560 13.310609 120.735120
DOCKED: USER    NEWDPF quaternion0 -0.717736 -0.184680 0.466554 0.482778
DOCKED: USER    NEWDPF axisangle0 -0.819574 -0.210884 0.532753 122.265981
DOCKED: USER    NEWDPF quat0 -0.819574 -0.210884 0.532753 122.265981
DOCKED: USER    NEWDPF dihe0 -2.82 174.79 -66.24 37.16 84.20 157.49 -102.04 -162.58 109.85 
DOCKED: USER  keepresnum = 1 
DOCKED: USER  
DOCKED: REMARK  Name = 
DOCKED: REMARK  9 active torsions:
DOCKED: REMARK  status: ('A' for Active; 'I' for Inactive)
DOCKED: REMARK    1  A    between atoms: C_2  and  C_10
DOCKED: REMARK    2  A    between atoms: N_3  and  C_4
DOCKED: REMARK    3  A    between atoms: C_10  and  C_11
DOCKED: REMARK    4  A    between atoms: C_11  and  C_12
DOCKED: REMARK    5  A    between atoms: C_12  and  C_13
DOCKED: REMARK    6  A    between atoms: C_13  and  C_14
DOCKED: REMARK    7  A    between atoms: C_14  and  C_15
DOCKED: REMARK    8  A    between atoms: C_15  and  C_16
DOCKED: REMARK    9  A    between atoms: N_17  and  O_18
DOCKED: REMARK                            x       y       z     vdW  Elec       q    Type
DOCKED: REMARK                         _______ _______ _______ _____ _____    ______ ____
DOCKED: USER                              x       y       z     vdW  Elec       q    Type
DOCKED: USER                           _______ _______ _______ _____ _____    ______ ____
DOCKED: ROOT
DOCKED: ATOM      1  C   UNL     1      38.998  14.510 122.313 -0.43 -0.00    +0.000 C 
DOCKED: ENDROOT
DOCKED: BRANCH   1   3
DOCKED: ATOM      2  O   UNL     1      37.238  14.117 123.875 -0.47 -0.00    +0.000 OA
DOCKED: ATOM      3  C   UNL     1      37.728  14.894 123.012 -0.42 -0.00    +0.000 C 
DOCKED: ATOM      4  N   UNL     1      37.083  16.137 122.694 -0.26 -0.00    +0.000 N 
DOCKED: ATOM      5  H   UNL     1      37.401  16.637 121.907 +0.00 -0.00    +0.000 HD
DOCKED: BRANCH   4   6
DOCKED: ATOM      6  C   UNL     1      36.000  16.695 123.456 -0.31 -0.00    +0.000 A 
DOCKED: ATOM      7  C   UNL     1      35.103  15.874 124.167 -0.47 -0.00    +0.000 A 
DOCKED: ATOM      8  C   UNL     1      34.073  16.444 124.921 -0.43 -0.00    +0.000 A 
DOCKED: ATOM      9  C   UNL     1      33.935  17.833 124.985 -0.35 -0.00    +0.000 A 
DOCKED: ATOM     10  C   UNL     1      34.834  18.655 124.300 -0.24 -0.00    +0.000 A 
DOCKED: ATOM     11  C   UNL     1      35.867  18.090 123.546 -0.23 -0.00    +0.000 A 
DOCKED: ATOM     12  CM  UNL     1      34.969  17.265 124.229 -0.25 -0.00    +0.000 AC
DOCKED: ENDBRANCH   4   6
DOCKED: ENDBRANCH   1   3
DOCKED: BRANCH   1  12
DOCKED: ATOM     13  C   UNL     1      38.693  13.950 120.921 -0.36 -0.00    +0.000 C 
DOCKED: BRANCH  12  13
DOCKED: ATOM     14  C   UNL     1      38.018  12.574 121.016 -0.37 -0.00    +0.000 C 
DOCKED: BRANCH  13  14
DOCKED: ATOM     15  C   UNL     1      36.551  12.666 121.462 -0.36 -0.00    +0.000 C 
DOCKED: BRANCH  14  15
DOCKED: ATOM     16  C   UNL     1      36.231  11.721 122.634 -0.65 -0.00    +0.000 C 
DOCKED: BRANCH  15  16
DOCKED: ATOM     17  C   UNL     1      35.483  10.461 122.176 -0.53 -0.00    +0.000 C 
DOCKED: BRANCH  16  17
DOCKED: ATOM     18  C   UNL     1      36.371   9.251 122.190 -0.71 -0.00    +0.000 C 
DOCKED: ATOM     19  N   UNL     1      36.685   8.596 123.422 -0.64 -0.00    +0.000 N 
DOCKED: ATOM     20  O   UNL     1      36.818   8.793 121.103 -2.59 -0.00    +0.000 OA
DOCKED: ATOM     21  H   UNL     1      36.336   8.957 124.268 -0.30 -0.00    +0.000 HD
DOCKED: BRANCH  18  21
DOCKED: ATOM     22  O   UNL     1      37.457   7.484 123.433 -2.03 -0.00    +0.000 OA
DOCKED: ATOM     23  H   UNL     1      37.679   7.236 122.522 -0.27 -0.00    +0.000 HD
DOCKED: ENDBRANCH  18  21
DOCKED: ENDBRANCH  16  17
DOCKED: ENDBRANCH  15  16
DOCKED: ENDBRANCH  14  15
DOCKED: ENDBRANCH  13  14
DOCKED: ENDBRANCH  12  13
DOCKED: ENDBRANCH   1  12
DOCKED: TORSDOF 9DOCKED: TER
DOCKED: ENDMDL
________________________________________________________________________________


	BEGINNING GENETIC ALGORITHM DOCKING 47 of 100
Run: 47 Seed: 1866036443 683285708 [ Run 47 of 100 GA/GALS ]
Beginning LAMARCKIAN GENETIC ALGORITHM (LGA), with a maximum of 2500000 energy evaluations.

Final-Value: -13.731


	FINAL GENETIC ALGORITHM DOCKED STATE
	_______________________________________________


Detailed state:  trans 37.584 12.881 122.844 quatxyzw -0.055243 -0.482582 0.815680 0.314211 center -0.037 -0.159 0.371 ntor 9 8.0564 15.9328 176.6874 144.4320 179.9133 15.6915 -14.4707 -172.2100 180.0000
State:	 37.584  12.881 122.844  -0.058 -0.508  0.859 143.374      8.06   15.93  176.69  144.43  179.91   15.69  -14.47 -172.21  180.00

DOCKED: MODEL       47
DOCKED: USER    Run = 47
DOCKED: USER    DPF = ligand_dock.biased.dpf
DOCKED: USER  
DOCKED: USER    Estimated Free Energy of Binding    =   -9.57 kcal/mol  [=(1)+(2)+(3)-(4)]
DOCKED: USER    Estimated Inhibition Constant, Ki   =   97.22 nM (nanomolar)  [Temperature = 298.15 K]
DOCKED: USER    
DOCKED: USER    (1) Final Intermolecular Energy     =  -12.25 kcal/mol
DOCKED: USER        vdW + Hbond + desolv Energy     =  -12.25 kcal/mol
DOCKED: USER        Electrostatic Energy            =   +0.00 kcal/mol
DOCKED: USER    (2) Final Total Internal Energy     =   -1.48 kcal/mol
DOCKED: USER    (3) Torsional Free Energy           =   +2.68 kcal/mol
DOCKED: USER    (4) Unbound System's Energy  [=(2)] =   -1.48 kcal/mol
DOCKED: USER    
DOCKED: USER    
DOCKED: USER    NEWDPF move ligand.dum.pdbqt
DOCKED: USER    NEWDPF about -0.037000 -0.159000 0.371000
DOCKED: USER    NEWDPF tran0 37.583691 12.880967 122.844219
DOCKED: USER    NEWDPF quaternion0 -0.055243 -0.482582 0.815680 0.314211
DOCKED: USER    NEWDPF axisangle0 -0.058191 -0.508327 0.859196 143.373660
DOCKED: USER    NEWDPF quat0 -0.058191 -0.508327 0.859196 143.373660
DOCKED: USER    NEWDPF dihe0 8.06 15.93 176.69 144.43 179.91 15.69 -14.47 -172.21 180.00 
DOCKED: USER  keepresnum = 1 
DOCKED: USER  
DOCKED: REMARK  Name = 
DOCKED: REMARK  9 active torsions:
DOCKED: REMARK  status: ('A' for Active; 'I' for Inactive)
DOCKED: REMARK    1  A    between atoms: C_2  and  C_10
DOCKED: REMARK    2  A    between atoms: N_3  and  C_4
DOCKED: REMARK    3  A    between atoms: C_10  and  C_11
DOCKED: REMARK    4  A    between atoms: C_11  and  C_12
DOCKED: REMARK    5  A    between atoms: C_12  and  C_13
DOCKED: REMARK    6  A    between atoms: C_13  and  C_14
DOCKED: REMARK    7  A    between atoms: C_14  and  C_15
DOCKED: REMARK    8  A    between atoms: C_15  and  C_16
DOCKED: REMARK    9  A    between atoms: N_17  and  O_18
DOCKED: REMARK                            x       y       z     vdW  Elec       q    Type
DOCKED: REMARK                         _______ _______ _______ _____ _____    ______ ____
DOCKED: USER                              x       y       z     vdW  Elec       q    Type
DOCKED: USER                           _______ _______ _______ _____ _____    ______ ____
DOCKED: ROOT
DOCKED: ATOM      1  C   UNL     1      38.544  14.369 120.780 -0.34 -0.00    +0.000 C 
DOCKED: ENDROOT
DOCKED: BRANCH   1   3
DOCKED: ATOM      2  O   UNL     1      40.210  14.467 122.485 -1.02 -0.00    +0.000 OA
DOCKED: ATOM      3  C   UNL     1      39.212  15.024 121.951 -0.38 -0.00    +0.000 C 
DOCKED: ATOM      4  N   UNL     1      38.714  16.273 122.455 -0.23 -0.00    +0.000 N 
DOCKED: ATOM      5  H   UNL     1      37.844  16.593 122.123 +0.00 -0.00    +0.000 HD
DOCKED: BRANCH   4   6
DOCKED: ATOM      6  C   UNL     1      39.410  17.083 123.417 -0.22 -0.00    +0.000 A 
DOCKED: ATOM      7  C   UNL     1      38.715  17.837 124.381 -0.19 -0.00    +0.000 A 
DOCKED: ATOM      8  C   UNL     1      39.418  18.598 125.321 -0.21 -0.00    +0.000 A 
DOCKED: ATOM      9  C   UNL     1      40.815  18.603 125.316 -0.28 -0.00    +0.000 A 
DOCKED: ATOM     10  C   UNL     1      41.512  17.840 124.375 -0.27 -0.00    +0.000 A 
DOCKED: ATOM     11  C   UNL     1      40.814  17.077 123.435 -0.29 -0.00    +0.000 A 
DOCKED: ATOM     12  CM  UNL     1      40.114  17.840 124.374 +0.00 -0.00    +0.000 AC
DOCKED: ENDBRANCH   4   6
DOCKED: ENDBRANCH   1   3
DOCKED: BRANCH   1  12
DOCKED: ATOM     13  C   UNL     1      37.420  13.444 121.256 -0.46 -0.00    +0.000 C 
DOCKED: BRANCH  12  13
DOCKED: ATOM     14  C   UNL     1      37.307  13.457 122.787 -0.55 -0.00    +0.000 C 
DOCKED: BRANCH  13  14
DOCKED: ATOM     15  C   UNL     1      35.955  12.920 123.283 -0.59 -0.00    +0.000 C 
DOCKED: BRANCH  14  15
DOCKED: ATOM     16  C   UNL     1      35.968  11.395 123.494 -0.69 -0.00    +0.000 C 
DOCKED: BRANCH  15  16
DOCKED: ATOM     17  C   UNL     1      37.273  10.753 123.003 -0.34 -0.00    +0.000 C 
DOCKED: BRANCH  16  17
DOCKED: ATOM     18  C   UNL     1      37.044   9.375 122.454 -0.63 -0.00    +0.000 C 
DOCKED: ATOM     19  N   UNL     1      36.941   8.252 123.333 -0.72 -0.00    +0.000 N 
DOCKED: ATOM     20  O   UNL     1      36.912   9.213 121.210 -2.69 -0.00    +0.000 OA
DOCKED: ATOM     21  H   UNL     1      37.047   8.381 124.303 -0.43 -0.00    +0.000 HD
DOCKED: BRANCH  18  21
DOCKED: ATOM     22  O   UNL     1      36.700   7.014 122.842 -1.65 -0.00    +0.000 OA
DOCKED: ATOM     23  H   UNL     1      36.748   7.035 121.874 -0.08 -0.00    +0.000 HD
DOCKED: ENDBRANCH  18  21
DOCKED: ENDBRANCH  16  17
DOCKED: ENDBRANCH  15  16
DOCKED: ENDBRANCH  14  15
DOCKED: ENDBRANCH  13  14
DOCKED: ENDBRANCH  12  13
DOCKED: ENDBRANCH   1  12
DOCKED: TORSDOF 9DOCKED: TER
DOCKED: ENDMDL
________________________________________________________________________________


	BEGINNING GENETIC ALGORITHM DOCKING 48 of 100
Run: 48 Seed: 505707704 214976301 [ Run 48 of 100 GA/GALS ]
Beginning LAMARCKIAN GENETIC ALGORITHM (LGA), with a maximum of 2500000 energy evaluations.

Final-Value: -12.339


	FINAL GENETIC ALGORITHM DOCKED STATE
	_______________________________________________


Detailed state:  trans 38.339 12.135 122.393 quatxyzw -0.530997 0.801720 -0.274338 -0.005090 center -0.037 -0.159 0.371 ntor 9 137.9627 -31.4515 -154.6566 112.3692 -164.9619 23.9440 -47.3788 -35.7904 60.5367
State:	 38.339  12.135 122.393  -0.531  0.802 -0.274 -179.417    137.96  -31.45 -154.66  112.37 -164.96   23.94  -47.38  -35.79   60.54

DOCKED: MODEL       48
DOCKED: USER    Run = 48
DOCKED: USER    DPF = ligand_dock.biased.dpf
DOCKED: USER  
DOCKED: USER    Estimated Free Energy of Binding    =   -8.71 kcal/mol  [=(1)+(2)+(3)-(4)]
DOCKED: USER    Estimated Inhibition Constant, Ki   =  411.75 nM (nanomolar)  [Temperature = 298.15 K]
DOCKED: USER    
DOCKED: USER    (1) Final Intermolecular Energy     =  -11.40 kcal/mol
DOCKED: USER        vdW + Hbond + desolv Energy     =  -11.40 kcal/mol
DOCKED: USER        Electrostatic Energy            =   +0.00 kcal/mol
DOCKED: USER    (2) Final Total Internal Energy     =   -0.94 kcal/mol
DOCKED: USER    (3) Torsional Free Energy           =   +2.68 kcal/mol
DOCKED: USER    (4) Unbound System's Energy  [=(2)] =   -0.94 kcal/mol
DOCKED: USER    
DOCKED: USER    
DOCKED: USER    NEWDPF move ligand.dum.pdbqt
DOCKED: USER    NEWDPF about -0.037000 -0.159000 0.371000
DOCKED: USER    NEWDPF tran0 38.339210 12.135222 122.393260
DOCKED: USER    NEWDPF quaternion0 -0.530997 0.801720 -0.274338 -0.005090
DOCKED: USER    NEWDPF axisangle0 -0.531004 0.801730 -0.274342 -179.416708
DOCKED: USER    NEWDPF quat0 -0.531004 0.801730 -0.274342 -179.416708
DOCKED: USER    NEWDPF dihe0 137.96 -31.45 -154.66 112.37 -164.96 23.94 -47.38 -35.79 60.54 
DOCKED: USER  keepresnum = 1 
DOCKED: USER  
DOCKED: REMARK  Name = 
DOCKED: REMARK  9 active torsions:
DOCKED: REMARK  status: ('A' for Active; 'I' for Inactive)
DOCKED: REMARK    1  A    between atoms: C_2  and  C_10
DOCKED: REMARK    2  A    between atoms: N_3  and  C_4
DOCKED: REMARK    3  A    between atoms: C_10  and  C_11
DOCKED: REMARK    4  A    between atoms: C_11  and  C_12
DOCKED: REMARK    5  A    between atoms: C_12  and  C_13
DOCKED: REMARK    6  A    between atoms: C_13  and  C_14
DOCKED: REMARK    7  A    between atoms: C_14  and  C_15
DOCKED: REMARK    8  A    between atoms: C_15  and  C_16
DOCKED: REMARK    9  A    between atoms: N_17  and  O_18
DOCKED: REMARK                            x       y       z     vdW  Elec       q    Type
DOCKED: REMARK                         _______ _______ _______ _____ _____    ______ ____
DOCKED: USER                              x       y       z     vdW  Elec       q    Type
DOCKED: USER                           _______ _______ _______ _____ _____    ______ ____
DOCKED: ROOT
DOCKED: ATOM      1  C   UNL     1      36.630  14.051 123.294 -0.53 -0.00    +0.000 C 
DOCKED: ENDROOT
DOCKED: BRANCH   1   3
DOCKED: ATOM      2  O   UNL     1      38.136  15.826 123.818 -0.30 -0.00    +0.000 OA
DOCKED: ATOM      3  C   UNL     1      37.876  14.852 123.060 -0.42 -0.00    +0.000 C 
DOCKED: ATOM      4  N   UNL     1      38.759  14.508 121.981 -0.38 -0.00    +0.000 N 
DOCKED: ATOM      5  H   UNL     1      38.445  13.852 121.318 -0.02 -0.00    +0.000 HD
DOCKED: BRANCH   4   6
DOCKED: ATOM      6  C   UNL     1      40.073  15.064 121.814 -0.34 -0.00    +0.000 A 
DOCKED: ATOM      7  C   UNL     1      40.404  15.837 120.684 -0.18 -0.00    +0.000 A 
DOCKED: ATOM      8  C   UNL     1      41.684  16.387 120.558 -0.17 -0.00    +0.000 A 
DOCKED: ATOM      9  C   UNL     1      42.637  16.184 121.560 -0.29 -0.00    +0.000 A 
DOCKED: ATOM     10  C   UNL     1      42.309  15.436 122.694 -0.44 -0.00    +0.000 A 
DOCKED: ATOM     11  C   UNL     1      41.030  14.885 122.825 -0.42 -0.00    +0.000 A 
DOCKED: ATOM     12  CM  UNL     1      41.356  15.632 121.689 +0.00 -0.00    +0.000 AC
DOCKED: ENDBRANCH   4   6
DOCKED: ENDBRANCH   1   3
DOCKED: BRANCH   1  12
DOCKED: ATOM     13  C   UNL     1      36.947  12.552 123.263 -0.65 -0.00    +0.000 C 
DOCKED: BRANCH  12  13
DOCKED: ATOM     14  C   UNL     1      36.164  11.846 122.146 -0.53 -0.00    +0.000 C 
DOCKED: BRANCH  13  14
DOCKED: ATOM     15  C   UNL     1      37.067  10.987 121.247 -0.44 -0.00    +0.000 C 
DOCKED: BRANCH  14  15
DOCKED: ATOM     16  C   UNL     1      37.065   9.503 121.655 -0.60 -0.00    +0.000 C 
DOCKED: BRANCH  15  16
DOCKED: ATOM     17  C   UNL     1      36.010   9.199 122.728 -0.71 -0.00    +0.000 C 
DOCKED: BRANCH  16  17
DOCKED: ATOM     18  C   UNL     1      36.038   7.756 123.143 -0.77 -0.00    +0.000 C 
DOCKED: ATOM     19  N   UNL     1      34.837   6.981 123.156 -0.68 -0.00    +0.000 N 
DOCKED: ATOM     20  O   UNL     1      37.136   7.218 123.454 -1.95 -0.00    +0.000 OA
DOCKED: ATOM     21  H   UNL     1      33.981   7.405 122.915 -0.03 -0.00    +0.000 HD
DOCKED: BRANCH  18  21
DOCKED: ATOM     22  O   UNL     1      34.866   5.672 123.497 -0.93 -0.00    +0.000 OA
DOCKED: ATOM     23  H   UNL     1      34.111   5.470 124.071 -0.62 -0.00    +0.000 HD
DOCKED: ENDBRANCH  18  21
DOCKED: ENDBRANCH  16  17
DOCKED: ENDBRANCH  15  16
DOCKED: ENDBRANCH  14  15
DOCKED: ENDBRANCH  13  14
DOCKED: ENDBRANCH  12  13
DOCKED: ENDBRANCH   1  12
DOCKED: TORSDOF 9DOCKED: TER
DOCKED: ENDMDL
________________________________________________________________________________


	BEGINNING GENETIC ALGORITHM DOCKING 49 of 100
Run: 49 Seed: 1366190911 1547890453 [ Run 49 of 100 GA/GALS ]
Beginning LAMARCKIAN GENETIC ALGORITHM (LGA), with a maximum of 2500000 energy evaluations.

Final-Value: -13.995


	FINAL GENETIC ALGORITHM DOCKED STATE
	_______________________________________________


Detailed state:  trans 39.039 16.202 123.641 quatxyzw -0.095848 0.033869 0.994736 0.012902 center -0.037 -0.159 0.371 ntor 9 3.2853 -163.0919 87.9403 134.5988 -23.0363 17.0100 85.9968 160.3758 60.9179
State:	 39.039  16.202 123.641  -0.096  0.034  0.995 178.522      3.29 -163.09   87.94  134.60  -23.04   17.01   86.00  160.38   60.92

DOCKED: MODEL       49
DOCKED: USER    Run = 49
DOCKED: USER    DPF = ligand_dock.biased.dpf
DOCKED: USER  
DOCKED: USER    Estimated Free Energy of Binding    =  -10.06 kcal/mol  [=(1)+(2)+(3)-(4)]
DOCKED: USER    Estimated Inhibition Constant, Ki   =   42.32 nM (nanomolar)  [Temperature = 298.15 K]
DOCKED: USER    
DOCKED: USER    (1) Final Intermolecular Energy     =  -12.74 kcal/mol
DOCKED: USER        vdW + Hbond + desolv Energy     =  -12.74 kcal/mol
DOCKED: USER        Electrostatic Energy            =   +0.00 kcal/mol
DOCKED: USER    (2) Final Total Internal Energy     =   -1.25 kcal/mol
DOCKED: USER    (3) Torsional Free Energy           =   +2.68 kcal/mol
DOCKED: USER    (4) Unbound System's Energy  [=(2)] =   -1.25 kcal/mol
DOCKED: USER    
DOCKED: USER    
DOCKED: USER    NEWDPF move ligand.dum.pdbqt
DOCKED: USER    NEWDPF about -0.037000 -0.159000 0.371000
DOCKED: USER    NEWDPF tran0 39.038649 16.201685 123.641016
DOCKED: USER    NEWDPF quaternion0 -0.095848 0.033869 0.994736 0.012902
DOCKED: USER    NEWDPF axisangle0 -0.095856 0.033871 0.994819 178.521544
DOCKED: USER    NEWDPF quat0 -0.095856 0.033871 0.994819 178.521544
DOCKED: USER    NEWDPF dihe0 3.29 -163.09 87.94 134.60 -23.04 17.01 86.00 160.38 60.92 
DOCKED: USER  keepresnum = 1 
DOCKED: USER  
DOCKED: REMARK  Name = 
DOCKED: REMARK  9 active torsions:
DOCKED: REMARK  status: ('A' for Active; 'I' for Inactive)
DOCKED: REMARK    1  A    between atoms: C_2  and  C_10
DOCKED: REMARK    2  A    between atoms: N_3  and  C_4
DOCKED: REMARK    3  A    between atoms: C_10  and  C_11
DOCKED: REMARK    4  A    between atoms: C_11  and  C_12
DOCKED: REMARK    5  A    between atoms: C_12  and  C_13
DOCKED: REMARK    6  A    between atoms: C_13  and  C_14
DOCKED: REMARK    7  A    between atoms: C_14  and  C_15
DOCKED: REMARK    8  A    between atoms: C_15  and  C_16
DOCKED: REMARK    9  A    between atoms: N_17  and  O_18
DOCKED: REMARK                            x       y       z     vdW  Elec       q    Type
DOCKED: REMARK                         _______ _______ _______ _____ _____    ______ ____
DOCKED: USER                              x       y       z     vdW  Elec       q    Type
DOCKED: USER                           _______ _______ _______ _____ _____    ______ ____
DOCKED: ROOT
DOCKED: ATOM      1  C   UNL     1      40.097  14.493 121.808 -0.28 -0.00    +0.000 C 
DOCKED: ENDROOT
DOCKED: BRANCH   1   3
DOCKED: ATOM      2  O   UNL     1      41.567  15.412 123.448 -1.02 +0.00    +0.000 OA
DOCKED: ATOM      3  C   UNL     1      41.311  15.272 122.221 -0.48 -0.00    +0.000 C 
DOCKED: ATOM      4  N   UNL     1      42.166  15.849 121.223 -0.28 -0.00    +0.000 N 
DOCKED: ATOM      5  H   UNL     1      41.850  15.859 120.291 -0.01 -0.00    +0.000 HD
DOCKED: BRANCH   4   6
DOCKED: ATOM      6  C   UNL     1      43.458  16.413 121.505 -0.28 -0.00    +0.000 A 
DOCKED: ATOM      7  C   UNL     1      44.612  15.979 120.826 -0.24 +0.00    +0.000 A 
DOCKED: ATOM      8  C   UNL     1      45.853  16.563 121.103 -0.23 +0.00    +0.000 A 
DOCKED: ATOM      9  C   UNL     1      45.951  17.590 122.045 -0.22 -0.00    +0.000 A 
DOCKED: ATOM     10  C   UNL     1      44.806  18.041 122.707 -0.24 -0.00    +0.000 A 
DOCKED: ATOM     11  C   UNL     1      43.563  17.462 122.433 -0.27 -0.00    +0.000 A 
DOCKED: ATOM     12  CM  UNL     1      44.707  17.008 121.770 +0.00 -0.00    +0.000 AC
DOCKED: ENDBRANCH   4   6
DOCKED: ENDBRANCH   1   3
DOCKED: BRANCH   1  12
DOCKED: ATOM     13  C   UNL     1      38.825  15.188 122.301 -0.38 -0.00    +0.000 C 
DOCKED: BRANCH  12  13
DOCKED: ATOM     14  C   UNL     1      38.036  14.280 123.256 -0.37 -0.00    +0.000 C 
DOCKED: BRANCH  13  14
DOCKED: ATOM     15  C   UNL     1      36.890  13.538 122.551 -0.52 -0.00    +0.000 C 
DOCKED: BRANCH  14  15
DOCKED: ATOM     16  C   UNL     1      37.331  12.175 121.986 -0.51 -0.00    +0.000 C 
DOCKED: BRANCH  15  16
DOCKED: ATOM     17  C   UNL     1      36.181  11.160 121.956 -0.59 -0.00    +0.000 C 
DOCKED: BRANCH  16  17
DOCKED: ATOM     18  C   UNL     1      36.685   9.746 121.963 -0.67 -0.00    +0.000 C 
DOCKED: ATOM     19  N   UNL     1      36.711   8.991 123.177 -0.65 -0.00    +0.000 N 
DOCKED: ATOM     20  O   UNL     1      37.061   9.212 120.884 -2.74 -0.00    +0.000 OA
DOCKED: ATOM     21  H   UNL     1      36.419   9.411 124.018 -0.37 -0.00    +0.000 HD
DOCKED: BRANCH  18  21
DOCKED: ATOM     22  O   UNL     1      37.133   7.705 123.179 -2.30 -0.00    +0.000 OA
DOCKED: ATOM     23  H   UNL     1      37.432   7.462 122.289 -0.13 -0.00    +0.000 HD
DOCKED: ENDBRANCH  18  21
DOCKED: ENDBRANCH  16  17
DOCKED: ENDBRANCH  15  16
DOCKED: ENDBRANCH  14  15
DOCKED: ENDBRANCH  13  14
DOCKED: ENDBRANCH  12  13
DOCKED: ENDBRANCH   1  12
DOCKED: TORSDOF 9DOCKED: TER
DOCKED: ENDMDL
________________________________________________________________________________


	BEGINNING GENETIC ALGORITHM DOCKING 50 of 100
Run: 50 Seed: 717452675 1389753557 [ Run 50 of 100 GA/GALS ]
Beginning LAMARCKIAN GENETIC ALGORITHM (LGA), with a maximum of 2500000 energy evaluations.

Final-Value: -13.933


	FINAL GENETIC ALGORITHM DOCKED STATE
	_______________________________________________


Detailed state:  trans 36.589 14.979 123.121 quatxyzw 0.234421 0.153421 -0.953713 -0.109271 center -0.037 -0.159 0.371 ntor 9 -174.7930 100.7030 -149.6712 77.0870 -99.2295 179.9673 156.6838 -130.4847 119.4819
State:	 36.589  14.979 123.121   0.236  0.154 -0.959 -167.453   -174.79  100.70 -149.67   77.09  -99.23  179.97  156.68 -130.48  119.48

DOCKED: MODEL       50
DOCKED: USER    Run = 50
DOCKED: USER    DPF = ligand_dock.biased.dpf
DOCKED: USER  
DOCKED: USER    Estimated Free Energy of Binding    =  -10.26 kcal/mol  [=(1)+(2)+(3)-(4)]
DOCKED: USER    Estimated Inhibition Constant, Ki   =   30.07 nM (nanomolar)  [Temperature = 298.15 K]
DOCKED: USER    
DOCKED: USER    (1) Final Intermolecular Energy     =  -12.95 kcal/mol
DOCKED: USER        vdW + Hbond + desolv Energy     =  -12.95 kcal/mol
DOCKED: USER        Electrostatic Energy            =   +0.00 kcal/mol
DOCKED: USER    (2) Final Total Internal Energy     =   -0.99 kcal/mol
DOCKED: USER    (3) Torsional Free Energy           =   +2.68 kcal/mol
DOCKED: USER    (4) Unbound System's Energy  [=(2)] =   -0.99 kcal/mol
DOCKED: USER    
DOCKED: USER    
DOCKED: USER    NEWDPF move ligand.dum.pdbqt
DOCKED: USER    NEWDPF about -0.037000 -0.159000 0.371000
DOCKED: USER    NEWDPF tran0 36.589284 14.979330 123.120760
DOCKED: USER    NEWDPF quaternion0 0.234421 0.153421 -0.953713 -0.109271
DOCKED: USER    NEWDPF axisangle0 0.235834 0.154345 -0.959458 -167.453359
DOCKED: USER    NEWDPF quat0 0.235834 0.154345 -0.959458 -167.453359
DOCKED: USER    NEWDPF dihe0 -174.79 100.70 -149.67 77.09 -99.23 179.97 156.68 -130.48 119.48 
DOCKED: USER  keepresnum = 1 
DOCKED: USER  
DOCKED: REMARK  Name = 
DOCKED: REMARK  9 active torsions:
DOCKED: REMARK  status: ('A' for Active; 'I' for Inactive)
DOCKED: REMARK    1  A    between atoms: C_2  and  C_10
DOCKED: REMARK    2  A    between atoms: N_3  and  C_4
DOCKED: REMARK    3  A    between atoms: C_10  and  C_11
DOCKED: REMARK    4  A    between atoms: C_11  and  C_12
DOCKED: REMARK    5  A    between atoms: C_12  and  C_13
DOCKED: REMARK    6  A    between atoms: C_13  and  C_14
DOCKED: REMARK    7  A    between atoms: C_14  and  C_15
DOCKED: REMARK    8  A    between atoms: C_15  and  C_16
DOCKED: REMARK    9  A    between atoms: N_17  and  O_18
DOCKED: REMARK                            x       y       z     vdW  Elec       q    Type
DOCKED: REMARK                         _______ _______ _______ _____ _____    ______ ____
DOCKED: USER                              x       y       z     vdW  Elec       q    Type
DOCKED: USER                           _______ _______ _______ _____ _____    ______ ____
DOCKED: ROOT
DOCKED: ATOM      1  C   UNL     1      38.460  14.309 121.263 -0.38 -0.00    +0.000 C 
DOCKED: ENDROOT
DOCKED: BRANCH   1   3
DOCKED: ATOM      2  O   UNL     1      40.246  14.510 122.832 -0.93 -0.00    +0.000 OA
DOCKED: ATOM      3  C   UNL     1      39.286  15.081 122.248 -0.40 -0.00    +0.000 C 
DOCKED: ATOM      4  N   UNL     1      38.978  16.458 122.518 -0.22 -0.00    +0.000 N 
DOCKED: ATOM      5  H   UNL     1      38.131  16.820 122.171 +0.00 -0.00    +0.000 HD
DOCKED: BRANCH   4   6
DOCKED: ATOM      6  C   UNL     1      39.834  17.338 123.264 -0.22 -0.00    +0.000 A 
DOCKED: ATOM      7  C   UNL     1      39.459  17.828 124.530 -0.22 -0.00    +0.000 A 
DOCKED: ATOM      8  C   UNL     1      40.322  18.663 125.246 -0.25 -0.00    +0.000 A 
DOCKED: ATOM      9  C   UNL     1      41.568  19.005 124.715 -0.12 -0.00    +0.000 A 
DOCKED: ATOM     10  C   UNL     1      41.957  18.506 123.469 -0.20 -0.00    +0.000 A 
DOCKED: ATOM     11  C   UNL     1      41.098  17.669 122.750 -0.20 -0.00    +0.000 A 
DOCKED: ATOM     12  CM  UNL     1      40.707  18.168 123.995 +0.00 -0.00    +0.000 AC
DOCKED: ENDBRANCH   4   6
DOCKED: ENDBRANCH   1   3
DOCKED: BRANCH   1  12
DOCKED: ATOM     13  C   UNL     1      36.968  14.523 121.534 -0.27 -0.00    +0.000 C 
DOCKED: BRANCH  12  13
DOCKED: ATOM     14  C   UNL     1      36.589  14.042 122.943 -0.50 -0.00    +0.000 C 
DOCKED: BRANCH  13  14
DOCKED: ATOM     15  C   UNL     1      37.517  12.929 123.455 -0.55 -0.00    +0.000 C 
DOCKED: BRANCH  14  15
DOCKED: ATOM     16  C   UNL     1      36.833  11.550 123.464 -0.69 -0.00    +0.000 C 
DOCKED: BRANCH  15  16
DOCKED: ATOM     17  C   UNL     1      36.685  10.967 122.052 -0.63 -0.00    +0.000 C 
DOCKED: BRANCH  16  17
DOCKED: ATOM     18  C   UNL     1      36.817   9.471 122.050 -0.67 -0.00    +0.000 C 
DOCKED: ATOM     19  N   UNL     1      36.983   8.757 123.278 -0.66 -0.00    +0.000 N 
DOCKED: ATOM     20  O   UNL     1      36.750   8.841 120.960 -2.63 -0.00    +0.000 OA
DOCKED: ATOM     21  H   UNL     1      37.037   9.252 124.127 -0.55 -0.00    +0.000 HD
DOCKED: BRANCH  18  21
DOCKED: ATOM     22  O   UNL     1      37.067   7.406 123.282 -2.16 -0.00    +0.000 OA
DOCKED: ATOM     23  H   UNL     1      37.094   7.087 124.197 -0.50 -0.00    +0.000 HD
DOCKED: ENDBRANCH  18  21
DOCKED: ENDBRANCH  16  17
DOCKED: ENDBRANCH  15  16
DOCKED: ENDBRANCH  14  15
DOCKED: ENDBRANCH  13  14
DOCKED: ENDBRANCH  12  13
DOCKED: ENDBRANCH   1  12
DOCKED: TORSDOF 9DOCKED: TER
DOCKED: ENDMDL
________________________________________________________________________________


	BEGINNING GENETIC ALGORITHM DOCKING 51 of 100
Run: 51 Seed: 70814001 409609791 [ Run 51 of 100 GA/GALS ]
Beginning LAMARCKIAN GENETIC ALGORITHM (LGA), with a maximum of 2500000 energy evaluations.

Final-Value: -12.789


	FINAL GENETIC ALGORITHM DOCKED STATE
	_______________________________________________


Detailed state:  trans 34.788 14.071 122.336 quatxyzw 0.457402 -0.793624 0.045481 -0.398593 center -0.037 -0.159 0.371 ntor 9 -177.5543 121.2043 -129.0786 164.6203 91.3669 87.7744 -13.7509 -156.1929 -132.2053
State:	 34.788  14.071 122.336   0.499 -0.865  0.050 -133.019   -177.55  121.20 -129.08  164.62   91.37   87.77  -13.75 -156.19 -132.21

DOCKED: MODEL       51
DOCKED: USER    Run = 51
DOCKED: USER    DPF = ligand_dock.biased.dpf
DOCKED: USER  
DOCKED: USER    Estimated Free Energy of Binding    =   -9.26 kcal/mol  [=(1)+(2)+(3)-(4)]
DOCKED: USER    Estimated Inhibition Constant, Ki   =  162.79 nM (nanomolar)  [Temperature = 298.15 K]
DOCKED: USER    
DOCKED: USER    (1) Final Intermolecular Energy     =  -11.95 kcal/mol
DOCKED: USER        vdW + Hbond + desolv Energy     =  -11.95 kcal/mol
DOCKED: USER        Electrostatic Energy            =   +0.00 kcal/mol
DOCKED: USER    (2) Final Total Internal Energy     =   -0.84 kcal/mol
DOCKED: USER    (3) Torsional Free Energy           =   +2.68 kcal/mol
DOCKED: USER    (4) Unbound System's Energy  [=(2)] =   -0.84 kcal/mol
DOCKED: USER    
DOCKED: USER    
DOCKED: USER    NEWDPF move ligand.dum.pdbqt
DOCKED: USER    NEWDPF about -0.037000 -0.159000 0.371000
DOCKED: USER    NEWDPF tran0 34.787617 14.071018 122.335585
DOCKED: USER    NEWDPF quaternion0 0.457402 -0.793624 0.045481 -0.398593
DOCKED: USER    NEWDPF axisangle0 0.498733 -0.865336 0.049591 -133.019490
DOCKED: USER    NEWDPF quat0 0.498733 -0.865336 0.049591 -133.019490
DOCKED: USER    NEWDPF dihe0 -177.55 121.20 -129.08 164.62 91.37 87.77 -13.75 -156.19 -132.21 
DOCKED: USER  keepresnum = 1 
DOCKED: USER  
DOCKED: REMARK  Name = 
DOCKED: REMARK  9 active torsions:
DOCKED: REMARK  status: ('A' for Active; 'I' for Inactive)
DOCKED: REMARK    1  A    between atoms: C_2  and  C_10
DOCKED: REMARK    2  A    between atoms: N_3  and  C_4
DOCKED: REMARK    3  A    between atoms: C_10  and  C_11
DOCKED: REMARK    4  A    between atoms: C_11  and  C_12
DOCKED: REMARK    5  A    between atoms: C_12  and  C_13
DOCKED: REMARK    6  A    between atoms: C_13  and  C_14
DOCKED: REMARK    7  A    between atoms: C_14  and  C_15
DOCKED: REMARK    8  A    between atoms: C_15  and  C_16
DOCKED: REMARK    9  A    between atoms: N_17  and  O_18
DOCKED: REMARK                            x       y       z     vdW  Elec       q    Type
DOCKED: REMARK                         _______ _______ _______ _____ _____    ______ ____
DOCKED: USER                              x       y       z     vdW  Elec       q    Type
DOCKED: USER                           _______ _______ _______ _____ _____    ______ ____
DOCKED: ROOT
DOCKED: ATOM      1  C   UNL     1      34.985  16.353 123.804 -0.48 -0.00    +0.000 C 
DOCKED: ENDROOT
DOCKED: BRANCH   1   3
DOCKED: ATOM      2  O   UNL     1      35.147  17.318 121.627 -0.31 -0.00    +0.000 OA
DOCKED: ATOM      3  C   UNL     1      35.747  16.730 122.568 -0.32 -0.00    +0.000 C 
DOCKED: ATOM      4  N   UNL     1      37.145  16.419 122.465 -0.22 -0.00    +0.000 N 
DOCKED: ATOM      5  H   UNL     1      37.538  15.821 123.141 -0.01 -0.00    +0.000 HD
DOCKED: BRANCH   4   6
DOCKED: ATOM      6  C   UNL     1      38.005  16.931 121.433 -0.12 -0.00    +0.000 A 
DOCKED: ATOM      7  C   UNL     1      38.210  16.225 120.233 -0.14 -0.00    +0.000 A 
DOCKED: ATOM      8  C   UNL     1      39.033  16.758 119.235 -0.09 -0.00    +0.000 A 
DOCKED: ATOM      9  C   UNL     1      39.644  18.001 119.419 -0.03 -0.00    +0.000 A 
DOCKED: ATOM     10  C   UNL     1      39.427  18.717 120.599 -0.03 -0.00    +0.000 A 
DOCKED: ATOM     11  C   UNL     1      38.605  18.189 121.599 -0.06 -0.00    +0.000 A 
DOCKED: ATOM     12  CM  UNL     1      38.821  17.471 120.420 +0.00 -0.00    +0.000 AC
DOCKED: ENDBRANCH   4   6
DOCKED: ENDBRANCH   1   3
DOCKED: BRANCH   1  12
DOCKED: ATOM     13  C   UNL     1      34.751  14.839 123.844 -0.55 -0.00    +0.000 C 
DOCKED: BRANCH  12  13
DOCKED: ATOM     14  C   UNL     1      36.047  14.072 123.545 -0.55 -0.00    +0.000 C 
DOCKED: BRANCH  13  14
DOCKED: ATOM     15  C   UNL     1      35.976  12.602 123.985 -0.53 -0.00    +0.000 C 
DOCKED: BRANCH  14  15
DOCKED: ATOM     16  C   UNL     1      37.037  11.728 123.290 -0.67 -0.00    +0.000 C 
DOCKED: BRANCH  15  16
DOCKED: ATOM     17  C   UNL     1      36.482  11.024 122.043 -0.63 -0.00    +0.000 C 
DOCKED: BRANCH  16  17
DOCKED: ATOM     18  C   UNL     1      36.710   9.541 122.093 -0.69 -0.00    +0.000 C 
DOCKED: ATOM     19  N   UNL     1      36.892   8.877 123.347 -0.62 -0.00    +0.000 N 
DOCKED: ATOM     20  O   UNL     1      36.712   8.874 121.024 -2.62 -0.00    +0.000 OA
DOCKED: ATOM     21  H   UNL     1      36.892   9.401 124.180 -0.53 -0.00    +0.000 HD
DOCKED: BRANCH  18  21
DOCKED: ATOM     22  O   UNL     1      37.063   7.535 123.397 -2.21 -0.00    +0.000 OA
DOCKED: ATOM     23  H   UNL     1      37.132   7.253 124.321 -0.53 -0.00    +0.000 HD
DOCKED: ENDBRANCH  18  21
DOCKED: ENDBRANCH  16  17
DOCKED: ENDBRANCH  15  16
DOCKED: ENDBRANCH  14  15
DOCKED: ENDBRANCH  13  14
DOCKED: ENDBRANCH  12  13
DOCKED: ENDBRANCH   1  12
DOCKED: TORSDOF 9DOCKED: TER
DOCKED: ENDMDL
________________________________________________________________________________


	BEGINNING GENETIC ALGORITHM DOCKING 52 of 100
Run: 52 Seed: 248099 887730067 [ Run 52 of 100 GA/GALS ]
Beginning LAMARCKIAN GENETIC ALGORITHM (LGA), with a maximum of 2500000 energy evaluations.

Final-Value: -13.906


	FINAL GENETIC ALGORITHM DOCKED STATE
	_______________________________________________


Detailed state:  trans 36.085 12.178 121.072 quatxyzw 0.731792 0.647776 0.210818 0.020558 center -0.037 -0.159 0.371 ntor 9 6.6660 -78.1874 84.0950 -180.0000 153.0707 146.3616 30.5663 -174.6126 36.0306
State:	 36.085  12.178 121.072   0.732  0.648  0.211 177.644      6.67  -78.19   84.10 -180.00  153.07  146.36   30.57 -174.61   36.03

DOCKED: MODEL       52
DOCKED: USER    Run = 52
DOCKED: USER    DPF = ligand_dock.biased.dpf
DOCKED: USER  
DOCKED: USER    Estimated Free Energy of Binding    =   -9.98 kcal/mol  [=(1)+(2)+(3)-(4)]
DOCKED: USER    Estimated Inhibition Constant, Ki   =   48.32 nM (nanomolar)  [Temperature = 298.15 K]
DOCKED: USER    
DOCKED: USER    (1) Final Intermolecular Energy     =  -12.67 kcal/mol
DOCKED: USER        vdW + Hbond + desolv Energy     =  -12.67 kcal/mol
DOCKED: USER        Electrostatic Energy            =   +0.00 kcal/mol
DOCKED: USER    (2) Final Total Internal Energy     =   -1.24 kcal/mol
DOCKED: USER    (3) Torsional Free Energy           =   +2.68 kcal/mol
DOCKED: USER    (4) Unbound System's Energy  [=(2)] =   -1.24 kcal/mol
DOCKED: USER    
DOCKED: USER    
DOCKED: USER    NEWDPF move ligand.dum.pdbqt
DOCKED: USER    NEWDPF about -0.037000 -0.159000 0.371000
DOCKED: USER    NEWDPF tran0 36.085500 12.178129 121.071998
DOCKED: USER    NEWDPF quaternion0 0.731792 0.647776 0.210818 0.020558
DOCKED: USER    NEWDPF axisangle0 0.731946 0.647913 0.210862 177.644035
DOCKED: USER    NEWDPF quat0 0.731946 0.647913 0.210862 177.644035
DOCKED: USER    NEWDPF dihe0 6.67 -78.19 84.10 -180.00 153.07 146.36 30.57 -174.61 36.03 
DOCKED: USER  keepresnum = 1 
DOCKED: USER  
DOCKED: REMARK  Name = 
DOCKED: REMARK  9 active torsions:
DOCKED: REMARK  status: ('A' for Active; 'I' for Inactive)
DOCKED: REMARK    1  A    between atoms: C_2  and  C_10
DOCKED: REMARK    2  A    between atoms: N_3  and  C_4
DOCKED: REMARK    3  A    between atoms: C_10  and  C_11
DOCKED: REMARK    4  A    between atoms: C_11  and  C_12
DOCKED: REMARK    5  A    between atoms: C_12  and  C_13
DOCKED: REMARK    6  A    between atoms: C_13  and  C_14
DOCKED: REMARK    7  A    between atoms: C_14  and  C_15
DOCKED: REMARK    8  A    between atoms: C_15  and  C_16
DOCKED: REMARK    9  A    between atoms: N_17  and  O_18
DOCKED: REMARK                            x       y       z     vdW  Elec       q    Type
DOCKED: REMARK                         _______ _______ _______ _____ _____    ______ ____
DOCKED: USER                              x       y       z     vdW  Elec       q    Type
DOCKED: USER                           _______ _______ _______ _____ _____    ______ ____
DOCKED: ROOT
DOCKED: ATOM      1  C   UNL     1      36.972  10.686 123.166 -0.62 -0.00    +0.000 C 
DOCKED: ENDROOT
DOCKED: BRANCH   1   3
DOCKED: ATOM      2  O   UNL     1      36.780   9.216 121.297 -2.58 -0.00    +0.000 OA
DOCKED: ATOM      3  C   UNL     1      36.249   9.654 122.354 -0.70 -0.00    +0.000 C 
DOCKED: ATOM      4  N   UNL     1      34.965   9.174 122.782 -0.60 -0.00    +0.000 N 
DOCKED: ATOM      5  H   UNL     1      34.513   9.651 123.515 -0.48 -0.00    +0.000 HD
DOCKED: BRANCH   4   6
DOCKED: ATOM      6  C   UNL     1      34.301   8.038 122.204 -0.61 -0.00    +0.000 A 
DOCKED: ATOM      7  C   UNL     1      33.939   6.924 122.985 -0.68 -0.00    +0.000 A 
DOCKED: ATOM      8  C   UNL     1      33.271   5.843 122.401 -0.60 -0.00    +0.000 A 
DOCKED: ATOM      9  C   UNL     1      32.949   5.868 121.042 -0.07 -0.00    +0.000 A 
DOCKED: ATOM     10  C   UNL     1      33.286   6.979 120.265 -0.38 -0.00    +0.000 A 
DOCKED: ATOM     11  C   UNL     1      33.952   8.064 120.844 -0.53 -0.00    +0.000 A 
DOCKED: ATOM     12  CM  UNL     1      33.616   6.953 121.623 +0.00 -0.00    +0.000 AC
DOCKED: ENDBRANCH   4   6
DOCKED: ENDBRANCH   1   3
DOCKED: BRANCH   1  12
DOCKED: ATOM     13  C   UNL     1      36.618  12.094 122.678 -0.64 -0.00    +0.000 C 
DOCKED: BRANCH  12  13
DOCKED: ATOM     14  C   UNL     1      37.831  13.031 122.769 -0.46 -0.00    +0.000 C 
DOCKED: BRANCH  13  14
DOCKED: ATOM     15  C   UNL     1      37.427  14.503 122.939 -0.47 -0.00    +0.000 C 
DOCKED: BRANCH  14  15
DOCKED: ATOM     16  C   UNL     1      38.321  15.457 122.127 -0.32 -0.00    +0.000 C 
DOCKED: BRANCH  15  16
DOCKED: ATOM     17  C   UNL     1      39.769  14.956 122.033 -0.41 -0.00    +0.000 C 
DOCKED: BRANCH  16  17
DOCKED: ATOM     18  C   UNL     1      40.711  15.824 122.815 -0.38 -0.00    +0.000 C 
DOCKED: ATOM     19  N   UNL     1      42.120  15.580 122.780 -0.50 -0.00    +0.000 N 
DOCKED: ATOM     20  O   UNL     1      40.258  16.794 123.481 -0.36 -0.00    +0.000 OA
DOCKED: ATOM     21  H   UNL     1      42.471  14.821 122.261 -0.04 -0.00    +0.000 HD
DOCKED: BRANCH  18  21
DOCKED: ATOM     22  O   UNL     1      42.974  16.383 123.457 -1.02 -0.00    +0.000 OA
DOCKED: ATOM     23  H   UNL     1      42.469  17.011 123.996 -0.22 -0.00    +0.000 HD
DOCKED: ENDBRANCH  18  21
DOCKED: ENDBRANCH  16  17
DOCKED: ENDBRANCH  15  16
DOCKED: ENDBRANCH  14  15
DOCKED: ENDBRANCH  13  14
DOCKED: ENDBRANCH  12  13
DOCKED: ENDBRANCH   1  12
DOCKED: TORSDOF 9DOCKED: TER
DOCKED: ENDMDL
________________________________________________________________________________


	BEGINNING GENETIC ALGORITHM DOCKING 53 of 100
Run: 53 Seed: 1874696767 139748088 [ Run 53 of 100 GA/GALS ]
Beginning LAMARCKIAN GENETIC ALGORITHM (LGA), with a maximum of 2500000 energy evaluations.

Final-Value: -13.693


	FINAL GENETIC ALGORITHM DOCKED STATE
	_______________________________________________


Detailed state:  trans 35.970 12.240 121.366 quatxyzw 0.729226 0.649646 0.205652 0.062419 center -0.037 -0.159 0.371 ntor 9 2.8634 180.0000 -95.7289 -178.4517 -69.8578 -166.9193 64.0194 -169.6840 113.7195
State:	 35.970  12.240 121.366   0.731  0.651  0.206 172.843      2.86  180.00  -95.73 -178.45  -69.86 -166.92   64.02 -169.68  113.72

DOCKED: MODEL       53
DOCKED: USER    Run = 53
DOCKED: USER    DPF = ligand_dock.biased.dpf
DOCKED: USER  
DOCKED: USER    Estimated Free Energy of Binding    =   -9.43 kcal/mol  [=(1)+(2)+(3)-(4)]
DOCKED: USER    Estimated Inhibition Constant, Ki   =  122.64 nM (nanomolar)  [Temperature = 298.15 K]
DOCKED: USER    
DOCKED: USER    (1) Final Intermolecular Energy     =  -12.11 kcal/mol
DOCKED: USER        vdW + Hbond + desolv Energy     =  -12.11 kcal/mol
DOCKED: USER        Electrostatic Energy            =   +0.00 kcal/mol
DOCKED: USER    (2) Final Total Internal Energy     =   -1.58 kcal/mol
DOCKED: USER    (3) Torsional Free Energy           =   +2.68 kcal/mol
DOCKED: USER    (4) Unbound System's Energy  [=(2)] =   -1.58 kcal/mol
DOCKED: USER    
DOCKED: USER    
DOCKED: USER    NEWDPF move ligand.dum.pdbqt
DOCKED: USER    NEWDPF about -0.037000 -0.159000 0.371000
DOCKED: USER    NEWDPF tran0 35.970178 12.239809 121.366129
DOCKED: USER    NEWDPF quaternion0 0.729226 0.649646 0.205652 0.062419
DOCKED: USER    NEWDPF axisangle0 0.730651 0.650916 0.206054 172.842603
DOCKED: USER    NEWDPF quat0 0.730651 0.650916 0.206054 172.842603
DOCKED: USER    NEWDPF dihe0 2.86 180.00 -95.73 -178.45 -69.86 -166.92 64.02 -169.68 113.72 
DOCKED: USER  keepresnum = 1 
DOCKED: USER  
DOCKED: REMARK  Name = 
DOCKED: REMARK  9 active torsions:
DOCKED: REMARK  status: ('A' for Active; 'I' for Inactive)
DOCKED: REMARK    1  A    between atoms: C_2  and  C_10
DOCKED: REMARK    2  A    between atoms: N_3  and  C_4
DOCKED: REMARK    3  A    between atoms: C_10  and  C_11
DOCKED: REMARK    4  A    between atoms: C_11  and  C_12
DOCKED: REMARK    5  A    between atoms: C_12  and  C_13
DOCKED: REMARK    6  A    between atoms: C_13  and  C_14
DOCKED: REMARK    7  A    between atoms: C_14  and  C_15
DOCKED: REMARK    8  A    between atoms: C_15  and  C_16
DOCKED: REMARK    9  A    between atoms: N_17  and  O_18
DOCKED: REMARK                            x       y       z     vdW  Elec       q    Type
DOCKED: REMARK                         _______ _______ _______ _____ _____    ______ ____
DOCKED: USER                              x       y       z     vdW  Elec       q    Type
DOCKED: USER                           _______ _______ _______ _____ _____    ______ ____
DOCKED: ROOT
DOCKED: ATOM      1  C   UNL     1      37.016  10.662 123.319 -0.59 -0.00    +0.000 C 
DOCKED: ENDROOT
DOCKED: BRANCH   1   3
DOCKED: ATOM      2  O   UNL     1      36.786   9.218 121.433 -2.45 -0.00    +0.000 OA
DOCKED: ATOM      3  C   UNL     1      36.268   9.656 122.496 -0.70 -0.00    +0.000 C 
DOCKED: ATOM      4  N   UNL     1      34.974   9.201 122.922 -0.59 -0.00    +0.000 N 
DOCKED: ATOM      5  H   UNL     1      34.535   9.680 123.661 -0.50 -0.00    +0.000 HD
DOCKED: BRANCH   4   6
DOCKED: ATOM      6  C   UNL     1      34.283   8.088 122.332 -0.61 -0.00    +0.000 A 
DOCKED: ATOM      7  C   UNL     1      33.968   8.063 120.960 -0.54 -0.00    +0.000 A 
DOCKED: ATOM      8  C   UNL     1      33.316   6.956 120.407 -0.41 -0.00    +0.000 A 
DOCKED: ATOM      9  C   UNL     1      32.988   5.861 121.211 -0.14 -0.00    +0.000 A 
DOCKED: ATOM     10  C   UNL     1      33.317   5.869 122.569 -0.59 -0.00    +0.000 A 
DOCKED: ATOM     11  C   UNL     1      33.970   6.973 123.126 -0.69 -0.00    +0.000 A 
DOCKED: ATOM     12  CM  UNL     1      33.640   6.968 121.768 +0.00 -0.00    +0.000 AC
DOCKED: ENDBRANCH   4   6
DOCKED: ENDBRANCH   1   3
DOCKED: BRANCH   1  12
DOCKED: ATOM     13  C   UNL     1      36.602  12.084 122.930 -0.66 -0.00    +0.000 C 
DOCKED: BRANCH  12  13
DOCKED: ATOM     14  C   UNL     1      37.041  12.413 121.495 -0.54 -0.00    +0.000 C 
DOCKED: BRANCH  13  14
DOCKED: ATOM     15  C   UNL     1      38.002  13.610 121.434 -0.44 -0.00    +0.000 C 
DOCKED: BRANCH  14  15
DOCKED: ATOM     16  C   UNL     1      37.271  14.940 121.179 -0.29 -0.00    +0.000 C 
DOCKED: BRANCH  15  16
DOCKED: ATOM     17  C   UNL     1      37.144  15.786 122.454 -0.31 -0.00    +0.000 C 
DOCKED: BRANCH  16  17
DOCKED: ATOM     18  C   UNL     1      35.727  15.842 122.946 -0.37 -0.00    +0.000 C 
DOCKED: ATOM     19  N   UNL     1      35.193  14.780 123.741 -0.54 -0.00    +0.000 N 
DOCKED: ATOM     20  O   UNL     1      35.014  16.847 122.681 -0.38 -0.00    +0.000 OA
DOCKED: ATOM     21  H   UNL     1      35.752  13.996 123.945 -0.04 -0.00    +0.000 HD
DOCKED: BRANCH  18  21
DOCKED: ATOM     22  O   UNL     1      33.926  14.845 124.215 -0.65 -0.00    +0.000 OA
DOCKED: ATOM     23  H   UNL     1      33.501  15.653 123.890 -0.06 -0.00    +0.000 HD
DOCKED: ENDBRANCH  18  21
DOCKED: ENDBRANCH  16  17
DOCKED: ENDBRANCH  15  16
DOCKED: ENDBRANCH  14  15
DOCKED: ENDBRANCH  13  14
DOCKED: ENDBRANCH  12  13
DOCKED: ENDBRANCH   1  12
DOCKED: TORSDOF 9DOCKED: TER
DOCKED: ENDMDL
________________________________________________________________________________


	BEGINNING GENETIC ALGORITHM DOCKING 54 of 100
Run: 54 Seed: 99842538 356720268 [ Run 54 of 100 GA/GALS ]
Beginning LAMARCKIAN GENETIC ALGORITHM (LGA), with a maximum of 2500000 energy evaluations.

Final-Value: -13.940


	FINAL GENETIC ALGORITHM DOCKED STATE
	_______________________________________________


Detailed state:  trans 36.890 14.531 120.464 quatxyzw -0.805065 0.151874 0.523713 0.233515 center -0.037 -0.159 0.371 ntor 9 4.2188 -37.7375 -22.0883 -138.7072 150.0605 -154.5555 -95.7962 15.8127 52.6802
State:	 36.890  14.531 120.464  -0.828  0.156  0.539 152.992      4.22  -37.74  -22.09 -138.71  150.06 -154.56  -95.80   15.81   52.68

DOCKED: MODEL       54
DOCKED: USER    Run = 54
DOCKED: USER    DPF = ligand_dock.biased.dpf
DOCKED: USER  
DOCKED: USER    Estimated Free Energy of Binding    =   -9.68 kcal/mol  [=(1)+(2)+(3)-(4)]
DOCKED: USER    Estimated Inhibition Constant, Ki   =   80.63 nM (nanomolar)  [Temperature = 298.15 K]
DOCKED: USER    
DOCKED: USER    (1) Final Intermolecular Energy     =  -12.36 kcal/mol
DOCKED: USER        vdW + Hbond + desolv Energy     =  -12.36 kcal/mol
DOCKED: USER        Electrostatic Energy            =   +0.00 kcal/mol
DOCKED: USER    (2) Final Total Internal Energy     =   -1.58 kcal/mol
DOCKED: USER    (3) Torsional Free Energy           =   +2.68 kcal/mol
DOCKED: USER    (4) Unbound System's Energy  [=(2)] =   -1.58 kcal/mol
DOCKED: USER    
DOCKED: USER    
DOCKED: USER    NEWDPF move ligand.dum.pdbqt
DOCKED: USER    NEWDPF about -0.037000 -0.159000 0.371000
DOCKED: USER    NEWDPF tran0 36.889920 14.530881 120.464409
DOCKED: USER    NEWDPF quaternion0 -0.805065 0.151874 0.523713 0.233515
DOCKED: USER    NEWDPF axisangle0 -0.827955 0.156192 0.538604 152.991826
DOCKED: USER    NEWDPF quat0 -0.827955 0.156192 0.538604 152.991826
DOCKED: USER    NEWDPF dihe0 4.22 -37.74 -22.09 -138.71 150.06 -154.56 -95.80 15.81 52.68 
DOCKED: USER  keepresnum = 1 
DOCKED: USER  
DOCKED: REMARK  Name = 
DOCKED: REMARK  9 active torsions:
DOCKED: REMARK  status: ('A' for Active; 'I' for Inactive)
DOCKED: REMARK    1  A    between atoms: C_2  and  C_10
DOCKED: REMARK    2  A    between atoms: N_3  and  C_4
DOCKED: REMARK    3  A    between atoms: C_10  and  C_11
DOCKED: REMARK    4  A    between atoms: C_11  and  C_12
DOCKED: REMARK    5  A    between atoms: C_12  and  C_13
DOCKED: REMARK    6  A    between atoms: C_13  and  C_14
DOCKED: REMARK    7  A    between atoms: C_14  and  C_15
DOCKED: REMARK    8  A    between atoms: C_15  and  C_16
DOCKED: REMARK    9  A    between atoms: N_17  and  O_18
DOCKED: REMARK                            x       y       z     vdW  Elec       q    Type
DOCKED: REMARK                         _______ _______ _______ _____ _____    ______ ____
DOCKED: USER                              x       y       z     vdW  Elec       q    Type
DOCKED: USER                           _______ _______ _______ _____ _____    ______ ____
DOCKED: ROOT
DOCKED: ATOM      1  C   UNL     1      38.560  13.951 122.532 -0.41 -0.00    +0.000 C 
DOCKED: ENDROOT
DOCKED: BRANCH   1   3
DOCKED: ATOM      2  O   UNL     1      38.340  16.293 122.931 -0.29 -0.00    +0.000 OA
DOCKED: ATOM      3  C   UNL     1      37.832  15.147 123.067 -0.40 -0.00    +0.000 C 
DOCKED: ATOM      4  N   UNL     1      36.568  14.980 123.728 -0.43 -0.00    +0.000 N 
DOCKED: ATOM      5  H   UNL     1      36.283  14.067 123.959 -0.04 -0.00    +0.000 HD
DOCKED: BRANCH   4   6
DOCKED: ATOM      6  C   UNL     1      35.695  16.069 124.073 -0.38 -0.00    +0.000 A 
DOCKED: ATOM      7  C   UNL     1      35.862  17.349 123.512 -0.27 -0.00    +0.000 A 
DOCKED: ATOM      8  C   UNL     1      34.982  18.384 123.846 -0.26 -0.00    +0.000 A 
DOCKED: ATOM      9  C   UNL     1      33.925  18.149 124.728 -0.32 -0.00    +0.000 A 
DOCKED: ATOM     10  C   UNL     1      33.740  16.876 125.272 -0.26 -0.00    +0.000 A 
DOCKED: ATOM     11  C   UNL     1      34.615  15.837 124.940 -0.44 -0.00    +0.000 A 
DOCKED: ATOM     12  CM  UNL     1      34.803  17.111 124.395 -0.27 -0.00    +0.000 AC
DOCKED: ENDBRANCH   4   6
DOCKED: ENDBRANCH   1   3
DOCKED: BRANCH   1  12
DOCKED: ATOM     13  C   UNL     1      38.314  13.806 121.027 -0.40 -0.00    +0.000 C 
DOCKED: BRANCH  12  13
DOCKED: ATOM     14  C   UNL     1      37.817  12.395 120.683 -0.49 -0.00    +0.000 C 
DOCKED: BRANCH  13  14
DOCKED: ATOM     15  C   UNL     1      36.314  12.217 120.952 -0.25 -0.00    +0.000 C 
DOCKED: BRANCH  14  15
DOCKED: ATOM     16  C   UNL     1      36.012  11.929 122.434 -0.53 -0.00    +0.000 C 
DOCKED: BRANCH  15  16
DOCKED: ATOM     17  C   UNL     1      37.084  11.043 123.083 -0.62 -0.00    +0.000 C 
DOCKED: BRANCH  16  17
DOCKED: ATOM     18  C   UNL     1      37.041   9.638 122.554 -0.61 -0.00    +0.000 C 
DOCKED: ATOM     19  N   UNL     1      37.129   8.525 123.447 -0.66 -0.00    +0.000 N 
DOCKED: ATOM     20  O   UNL     1      36.896   9.442 121.317 -2.41 -0.00    +0.000 OA
DOCKED: ATOM     21  H   UNL     1      37.244   8.682 124.412 -0.52 -0.00    +0.000 HD
DOCKED: BRANCH  18  21
DOCKED: ATOM     22  O   UNL     1      37.055   7.258 122.976 -2.02 -0.00    +0.000 OA
DOCKED: ATOM     23  H   UNL     1      37.010   7.275 122.008 -0.08 -0.00    +0.000 HD
DOCKED: ENDBRANCH  18  21
DOCKED: ENDBRANCH  16  17
DOCKED: ENDBRANCH  15  16
DOCKED: ENDBRANCH  14  15
DOCKED: ENDBRANCH  13  14
DOCKED: ENDBRANCH  12  13
DOCKED: ENDBRANCH   1  12
DOCKED: TORSDOF 9DOCKED: TER
DOCKED: ENDMDL
________________________________________________________________________________


	BEGINNING GENETIC ALGORITHM DOCKING 55 of 100
Run: 55 Seed: 1001483699 1525281191 [ Run 55 of 100 GA/GALS ]
Beginning LAMARCKIAN GENETIC ALGORITHM (LGA), with a maximum of 2500000 energy evaluations.

Final-Value: -13.396


	FINAL GENETIC ALGORITHM DOCKED STATE
	_______________________________________________


Detailed state:  trans 38.715 11.213 120.929 quatxyzw -0.382621 -0.469583 -0.348952 0.715070 center -0.037 -0.159 0.371 ntor 9 2.8911 98.2708 173.0828 20.6430 -22.3474 38.4996 34.5606 97.1414 -38.5794
State:	 38.715  11.213 120.929  -0.547 -0.672 -0.499 88.702      2.89   98.27  173.08   20.64  -22.35   38.50   34.56   97.14  -38.58

DOCKED: MODEL       55
DOCKED: USER    Run = 55
DOCKED: USER    DPF = ligand_dock.biased.dpf
DOCKED: USER  
DOCKED: USER    Estimated Free Energy of Binding    =   -9.48 kcal/mol  [=(1)+(2)+(3)-(4)]
DOCKED: USER    Estimated Inhibition Constant, Ki   =  112.58 nM (nanomolar)  [Temperature = 298.15 K]
DOCKED: USER    
DOCKED: USER    (1) Final Intermolecular Energy     =  -12.16 kcal/mol
DOCKED: USER        vdW + Hbond + desolv Energy     =  -12.16 kcal/mol
DOCKED: USER        Electrostatic Energy            =   +0.00 kcal/mol
DOCKED: USER    (2) Final Total Internal Energy     =   -1.23 kcal/mol
DOCKED: USER    (3) Torsional Free Energy           =   +2.68 kcal/mol
DOCKED: USER    (4) Unbound System's Energy  [=(2)] =   -1.23 kcal/mol
DOCKED: USER    
DOCKED: USER    
DOCKED: USER    NEWDPF move ligand.dum.pdbqt
DOCKED: USER    NEWDPF about -0.037000 -0.159000 0.371000
DOCKED: USER    NEWDPF tran0 38.715094 11.213290 120.928565
DOCKED: USER    NEWDPF quaternion0 -0.382621 -0.469583 -0.348952 0.715070
DOCKED: USER    NEWDPF axisangle0 -0.547343 -0.671742 -0.499178 88.702047
DOCKED: USER    NEWDPF quat0 -0.547343 -0.671742 -0.499178 88.702047
DOCKED: USER    NEWDPF dihe0 2.89 98.27 173.08 20.64 -22.35 38.50 34.56 97.14 -38.58 
DOCKED: USER  keepresnum = 1 
DOCKED: USER  
DOCKED: REMARK  Name = 
DOCKED: REMARK  9 active torsions:
DOCKED: REMARK  status: ('A' for Active; 'I' for Inactive)
DOCKED: REMARK    1  A    between atoms: C_2  and  C_10
DOCKED: REMARK    2  A    between atoms: N_3  and  C_4
DOCKED: REMARK    3  A    between atoms: C_10  and  C_11
DOCKED: REMARK    4  A    between atoms: C_11  and  C_12
DOCKED: REMARK    5  A    between atoms: C_12  and  C_13
DOCKED: REMARK    6  A    between atoms: C_13  and  C_14
DOCKED: REMARK    7  A    between atoms: C_14  and  C_15
DOCKED: REMARK    8  A    between atoms: C_15  and  C_16
DOCKED: REMARK    9  A    between atoms: N_17  and  O_18
DOCKED: REMARK                            x       y       z     vdW  Elec       q    Type
DOCKED: REMARK                         _______ _______ _______ _____ _____    ______ ____
DOCKED: USER                              x       y       z     vdW  Elec       q    Type
DOCKED: USER                           _______ _______ _______ _____ _____    ______ ____
DOCKED: ROOT
DOCKED: ATOM      1  C   UNL     1      36.312  11.870 122.021 -0.57 -0.00    +0.000 C 
DOCKED: ENDROOT
DOCKED: BRANCH   1   3
DOCKED: ATOM      2  O   UNL     1      37.051   9.723 121.288 -2.17 -0.00    +0.000 OA
DOCKED: ATOM      3  C   UNL     1      36.214  10.375 121.970 -0.55 -0.00    +0.000 C 
DOCKED: ATOM      4  N   UNL     1      35.174   9.699 122.694 -0.60 -0.00    +0.000 N 
DOCKED: ATOM      5  H   UNL     1      34.449  10.243 123.079 -0.36 -0.00    +0.000 HD
DOCKED: BRANCH   4   6
DOCKED: ATOM      6  C   UNL     1      35.130   8.277 122.891 -0.61 -0.00    +0.000 A 
DOCKED: ATOM      7  C   UNL     1      33.907   7.590 123.010 -0.64 -0.00    +0.000 A 
DOCKED: ATOM      8  C   UNL     1      33.892   6.201 123.177 -0.66 -0.00    +0.000 A 
DOCKED: ATOM      9  C   UNL     1      35.092   5.486 123.211 -0.53 -0.00    +0.000 A 
DOCKED: ATOM     10  C   UNL     1      36.309   6.158 123.071 -0.58 -0.00    +0.000 A 
DOCKED: ATOM     11  C   UNL     1      36.329   7.546 122.904 -0.70 -0.00    +0.000 A 
DOCKED: ATOM     12  CM  UNL     1      35.110   6.876 123.044 +0.00 -0.00    +0.000 AC
DOCKED: ENDBRANCH   4   6
DOCKED: ENDBRANCH   1   3
DOCKED: BRANCH   1  12
DOCKED: ATOM     13  C   UNL     1      37.489  12.357 121.170 -0.51 -0.00    +0.000 C 
DOCKED: BRANCH  12  13
DOCKED: ATOM     14  C   UNL     1      37.133  13.650 120.423 -0.39 -0.00    +0.000 C 
DOCKED: BRANCH  13  14
DOCKED: ATOM     15  C   UNL     1      37.863  13.773 119.077 -0.30 -0.00    +0.000 C 
DOCKED: BRANCH  14  15
DOCKED: ATOM     16  C   UNL     1      36.907  13.657 117.876 -0.41 -0.00    +0.000 C 
DOCKED: BRANCH  15  16
DOCKED: ATOM     17  C   UNL     1      37.409  14.443 116.656 -0.31 -0.00    +0.000 C 
DOCKED: BRANCH  16  17
DOCKED: ATOM     18  C   UNL     1      38.290  13.603 115.778 -0.46 -0.00    +0.000 C 
DOCKED: ATOM     19  N   UNL     1      38.556  12.238 116.110 -0.43 -0.00    +0.000 N 
DOCKED: ATOM     20  O   UNL     1      38.773  14.097 114.723 -0.39 -0.00    +0.000 OA
DOCKED: ATOM     21  H   UNL     1      38.179  11.855 116.935 -0.08 -0.00    +0.000 HD
DOCKED: BRANCH  18  21
DOCKED: ATOM     22  O   UNL     1      39.322  11.468 115.301 -0.82 -0.00    +0.000 OA
DOCKED: ATOM     23  H   UNL     1      39.649  12.004 114.562 -0.09 -0.00    +0.000 HD
DOCKED: ENDBRANCH  18  21
DOCKED: ENDBRANCH  16  17
DOCKED: ENDBRANCH  15  16
DOCKED: ENDBRANCH  14  15
DOCKED: ENDBRANCH  13  14
DOCKED: ENDBRANCH  12  13
DOCKED: ENDBRANCH   1  12
DOCKED: TORSDOF 9DOCKED: TER
DOCKED: ENDMDL
________________________________________________________________________________


	BEGINNING GENETIC ALGORITHM DOCKING 56 of 100
Run: 56 Seed: 1782826423 1187059642 [ Run 56 of 100 GA/GALS ]
Beginning LAMARCKIAN GENETIC ALGORITHM (LGA), with a maximum of 2500000 energy evaluations.

Final-Value: -14.030


	FINAL GENETIC ALGORITHM DOCKED STATE
	_______________________________________________


Detailed state:  trans 36.929 12.344 120.021 quatxyzw -0.473586 0.550870 -0.088934 0.681432 center -0.037 -0.159 0.371 ntor 9 178.7177 121.5211 83.4999 99.6408 118.9123 6.6754 -68.3351 -80.4112 -11.4318
State:	 36.929  12.344 120.021  -0.647  0.753 -0.122 94.089    178.72  121.52   83.50   99.64  118.91    6.68  -68.34  -80.41  -11.43

DOCKED: MODEL       56
DOCKED: USER    Run = 56
DOCKED: USER    DPF = ligand_dock.biased.dpf
DOCKED: USER  
DOCKED: USER    Estimated Free Energy of Binding    =  -10.49 kcal/mol  [=(1)+(2)+(3)-(4)]
DOCKED: USER    Estimated Inhibition Constant, Ki   =   20.55 nM (nanomolar)  [Temperature = 298.15 K]
DOCKED: USER    
DOCKED: USER    (1) Final Intermolecular Energy     =  -13.17 kcal/mol
DOCKED: USER        vdW + Hbond + desolv Energy     =  -13.17 kcal/mol
DOCKED: USER        Electrostatic Energy            =   +0.00 kcal/mol
DOCKED: USER    (2) Final Total Internal Energy     =   -0.86 kcal/mol
DOCKED: USER    (3) Torsional Free Energy           =   +2.68 kcal/mol
DOCKED: USER    (4) Unbound System's Energy  [=(2)] =   -0.86 kcal/mol
DOCKED: USER    
DOCKED: USER    
DOCKED: USER    NEWDPF move ligand.dum.pdbqt
DOCKED: USER    NEWDPF about -0.037000 -0.159000 0.371000
DOCKED: USER    NEWDPF tran0 36.928807 12.343630 120.020975
DOCKED: USER    NEWDPF quaternion0 -0.473586 0.550870 -0.088934 0.681432
DOCKED: USER    NEWDPF axisangle0 -0.647080 0.752676 -0.121514 94.088775
DOCKED: USER    NEWDPF quat0 -0.647080 0.752676 -0.121514 94.088775
DOCKED: USER    NEWDPF dihe0 178.72 121.52 83.50 99.64 118.91 6.68 -68.34 -80.41 -11.43 
DOCKED: USER  keepresnum = 1 
DOCKED: USER  
DOCKED: REMARK  Name = 
DOCKED: REMARK  9 active torsions:
DOCKED: REMARK  status: ('A' for Active; 'I' for Inactive)
DOCKED: REMARK    1  A    between atoms: C_2  and  C_10
DOCKED: REMARK    2  A    between atoms: N_3  and  C_4
DOCKED: REMARK    3  A    between atoms: C_10  and  C_11
DOCKED: REMARK    4  A    between atoms: C_11  and  C_12
DOCKED: REMARK    5  A    between atoms: C_12  and  C_13
DOCKED: REMARK    6  A    between atoms: C_13  and  C_14
DOCKED: REMARK    7  A    between atoms: C_14  and  C_15
DOCKED: REMARK    8  A    between atoms: C_15  and  C_16
DOCKED: REMARK    9  A    between atoms: N_17  and  O_18
DOCKED: REMARK                            x       y       z     vdW  Elec       q    Type
DOCKED: REMARK                         _______ _______ _______ _____ _____    ______ ____
DOCKED: USER                              x       y       z     vdW  Elec       q    Type
DOCKED: USER                           _______ _______ _______ _____ _____    ______ ____
DOCKED: ROOT
DOCKED: ATOM      1  C   UNL     1      37.068  15.021 120.481 -0.25 -0.00    +0.000 C 
DOCKED: ENDROOT
DOCKED: BRANCH   1   3
DOCKED: ATOM      2  O   UNL     1      36.653  16.057 118.371 -0.17 -0.00    +0.000 OA
DOCKED: ATOM      3  C   UNL     1      36.897  14.986 118.991 -0.26 -0.00    +0.000 C 
DOCKED: ATOM      4  N   UNL     1      37.010  13.740 118.286 -0.37 -0.00    +0.000 N 
DOCKED: ATOM      5  H   UNL     1      37.038  12.910 118.814 -0.04 -0.00    +0.000 HD
DOCKED: BRANCH   4   6
DOCKED: ATOM      6  C   UNL     1      37.086  13.635 116.855 -0.35 -0.00    +0.000 A 
DOCKED: ATOM      7  C   UNL     1      38.190  13.033 116.220 -0.42 -0.00    +0.000 A 
DOCKED: ATOM      8  C   UNL     1      38.226  12.922 114.827 -0.43 -0.00    +0.000 A 
DOCKED: ATOM      9  C   UNL     1      37.160  13.395 114.057 -0.33 -0.00    +0.000 A 
DOCKED: ATOM     10  C   UNL     1      36.052  13.974 114.681 -0.26 -0.00    +0.000 A 
DOCKED: ATOM     11  C   UNL     1      36.010  14.086 116.074 -0.29 -0.00    +0.000 A 
DOCKED: ATOM     12  CM  UNL     1      37.120  13.508 115.452 +0.00 -0.00    +0.000 AC
DOCKED: ENDBRANCH   4   6
DOCKED: ENDBRANCH   1   3
DOCKED: BRANCH   1  12
DOCKED: ATOM     13  C   UNL     1      37.420  13.628 121.010 -0.43 -0.00    +0.000 C 
DOCKED: BRANCH  12  13
DOCKED: ATOM     14  C   UNL     1      37.876  13.693 122.475 -0.50 -0.00    +0.000 C 
DOCKED: BRANCH  13  14
DOCKED: ATOM     15  C   UNL     1      36.832  13.115 123.443 -0.61 -0.00    +0.000 C 
DOCKED: BRANCH  14  15
DOCKED: ATOM     16  C   UNL     1      36.865  11.576 123.493 -0.69 -0.00    +0.000 C 
DOCKED: BRANCH  15  16
DOCKED: ATOM     17  C   UNL     1      36.399  10.943 122.175 -0.64 -0.00    +0.000 C 
DOCKED: BRANCH  16  17
DOCKED: ATOM     18  C   UNL     1      36.690   9.471 122.131 -0.70 -0.00    +0.000 C 
DOCKED: ATOM     19  N   UNL     1      36.836   8.724 123.342 -0.64 -0.00    +0.000 N 
DOCKED: ATOM     20  O   UNL     1      36.775   8.885 121.018 -2.64 -0.00    +0.000 OA
DOCKED: ATOM     21  H   UNL     1      36.771   9.185 124.210 -0.49 -0.00    +0.000 HD
DOCKED: BRANCH  18  21
DOCKED: ATOM     22  O   UNL     1      37.064   7.390 123.305 -2.15 -0.00    +0.000 OA
DOCKED: ATOM     23  H   UNL     1      37.157   7.053 124.209 -0.50 -0.00    +0.000 HD
DOCKED: ENDBRANCH  18  21
DOCKED: ENDBRANCH  16  17
DOCKED: ENDBRANCH  15  16
DOCKED: ENDBRANCH  14  15
DOCKED: ENDBRANCH  13  14
DOCKED: ENDBRANCH  12  13
DOCKED: ENDBRANCH   1  12
DOCKED: TORSDOF 9DOCKED: TER
DOCKED: ENDMDL
________________________________________________________________________________


	BEGINNING GENETIC ALGORITHM DOCKING 57 of 100
Run: 57 Seed: 663628490 1792786482 [ Run 57 of 100 GA/GALS ]
Beginning LAMARCKIAN GENETIC ALGORITHM (LGA), with a maximum of 2500000 energy evaluations.

Final-Value: -12.981


	FINAL GENETIC ALGORITHM DOCKED STATE
	_______________________________________________


Detailed state:  trans 39.554 12.715 119.905 quatxyzw -0.306540 0.888175 -0.223749 -0.259066 center -0.037 -0.159 0.371 ntor 9 56.9151 -39.9520 80.4498 -138.0543 138.5449 133.0018 -81.6416 31.8769 -101.3627
State:	 39.554  12.715 119.905  -0.317  0.920 -0.232 -149.971     56.92  -39.95   80.45 -138.05  138.54  133.00  -81.64   31.88 -101.36

DOCKED: MODEL       57
DOCKED: USER    Run = 57
DOCKED: USER    DPF = ligand_dock.biased.dpf
DOCKED: USER  
DOCKED: USER    Estimated Free Energy of Binding    =   -9.28 kcal/mol  [=(1)+(2)+(3)-(4)]
DOCKED: USER    Estimated Inhibition Constant, Ki   =  158.20 nM (nanomolar)  [Temperature = 298.15 K]
DOCKED: USER    
DOCKED: USER    (1) Final Intermolecular Energy     =  -11.96 kcal/mol
DOCKED: USER        vdW + Hbond + desolv Energy     =  -11.96 kcal/mol
DOCKED: USER        Electrostatic Energy            =   +0.00 kcal/mol
DOCKED: USER    (2) Final Total Internal Energy     =   -1.02 kcal/mol
DOCKED: USER    (3) Torsional Free Energy           =   +2.68 kcal/mol
DOCKED: USER    (4) Unbound System's Energy  [=(2)] =   -1.02 kcal/mol
DOCKED: USER    
DOCKED: USER    
DOCKED: USER    NEWDPF move ligand.dum.pdbqt
DOCKED: USER    NEWDPF about -0.037000 -0.159000 0.371000
DOCKED: USER    NEWDPF tran0 39.554413 12.715454 119.904964
DOCKED: USER    NEWDPF quaternion0 -0.306540 0.888175 -0.223749 -0.259066
DOCKED: USER    NEWDPF axisangle0 -0.317375 0.919569 -0.231658 -149.970753
DOCKED: USER    NEWDPF quat0 -0.317375 0.919569 -0.231658 -149.970753
DOCKED: USER    NEWDPF dihe0 56.92 -39.95 80.45 -138.05 138.54 133.00 -81.64 31.88 -101.36 
DOCKED: USER  keepresnum = 1 
DOCKED: USER  
DOCKED: REMARK  Name = 
DOCKED: REMARK  9 active torsions:
DOCKED: REMARK  status: ('A' for Active; 'I' for Inactive)
DOCKED: REMARK    1  A    between atoms: C_2  and  C_10
DOCKED: REMARK    2  A    between atoms: N_3  and  C_4
DOCKED: REMARK    3  A    between atoms: C_10  and  C_11
DOCKED: REMARK    4  A    between atoms: C_11  and  C_12
DOCKED: REMARK    5  A    between atoms: C_12  and  C_13
DOCKED: REMARK    6  A    between atoms: C_13  and  C_14
DOCKED: REMARK    7  A    between atoms: C_14  and  C_15
DOCKED: REMARK    8  A    between atoms: C_15  and  C_16
DOCKED: REMARK    9  A    between atoms: N_17  and  O_18
DOCKED: REMARK                            x       y       z     vdW  Elec       q    Type
DOCKED: REMARK                         _______ _______ _______ _____ _____    ______ ____
DOCKED: USER                              x       y       z     vdW  Elec       q    Type
DOCKED: USER                           _______ _______ _______ _____ _____    ______ ____
DOCKED: ROOT
DOCKED: ATOM      1  C   UNL     1      38.042  14.775 120.837 -0.31 -0.00    +0.000 C 
DOCKED: ENDROOT
DOCKED: BRANCH   1   3
DOCKED: ATOM      2  O   UNL     1      39.704  14.405 122.509 -0.91 -0.00    +0.000 OA
DOCKED: ATOM      3  C   UNL     1      39.362  15.061 121.487 -0.34 -0.00    +0.000 C 
DOCKED: ATOM      4  N   UNL     1      40.224  16.074 120.945 -0.19 -0.00    +0.000 N 
DOCKED: ATOM      5  H   UNL     1      39.858  16.672 120.254 +0.00 -0.00    +0.000 HD
DOCKED: BRANCH   4   6
DOCKED: ATOM      6  C   UNL     1      41.588  16.267 121.353 -0.23 -0.00    +0.000 A 
DOCKED: ATOM      7  C   UNL     1      42.654  16.114 120.446 -0.20 -0.00    +0.000 A 
DOCKED: ATOM      8  C   UNL     1      43.971  16.332 120.864 -0.23 -0.00    +0.000 A 
DOCKED: ATOM      9  C   UNL     1      44.235  16.716 122.181 -0.29 -0.00    +0.000 A 
DOCKED: ATOM     10  C   UNL     1      43.180  16.890 123.082 -0.35 -0.00    +0.000 A 
DOCKED: ATOM     11  C   UNL     1      41.862  16.675 122.668 -0.34 -0.00    +0.000 A 
DOCKED: ATOM     12  CM  UNL     1      42.915  16.499 121.766 +0.00 -0.00    +0.000 AC
DOCKED: ENDBRANCH   4   6
DOCKED: ENDBRANCH   1   3
DOCKED: BRANCH   1  12
DOCKED: ATOM     13  C   UNL     1      38.028  13.356 120.260 -0.41 -0.00    +0.000 C 
DOCKED: BRANCH  12  13
DOCKED: ATOM     14  C   UNL     1      37.794  12.314 121.364 -0.35 -0.00    +0.000 C 
DOCKED: BRANCH  13  14
DOCKED: ATOM     15  C   UNL     1      36.314  11.926 121.504 -0.46 -0.00    +0.000 C 
DOCKED: BRANCH  14  15
DOCKED: ATOM     16  C   UNL     1      35.966  11.432 122.921 -0.68 -0.00    +0.000 C 
DOCKED: BRANCH  15  16
DOCKED: ATOM     17  C   UNL     1      36.969  10.389 123.433 -0.51 -0.00    +0.000 C 
DOCKED: BRANCH  16  17
DOCKED: ATOM     18  C   UNL     1      36.857   9.094 122.681 -0.71 -0.00    +0.000 C 
DOCKED: ATOM     19  N   UNL     1      36.905   7.845 123.377 -0.75 -0.00    +0.000 N 
DOCKED: ATOM     20  O   UNL     1      36.691   9.110 121.431 -2.43 -0.00    +0.000 OA
DOCKED: ATOM     21  H   UNL     1      37.037   7.835 124.352 -0.41 -0.00    +0.000 HD
DOCKED: BRANCH  18  21
DOCKED: ATOM     22  O   UNL     1      36.770   6.678 122.705 -1.40 -0.00    +0.000 OA
DOCKED: ATOM     23  H   UNL     1      37.447   6.623 122.014 -0.48 -0.00    +0.000 HD
DOCKED: ENDBRANCH  18  21
DOCKED: ENDBRANCH  16  17
DOCKED: ENDBRANCH  15  16
DOCKED: ENDBRANCH  14  15
DOCKED: ENDBRANCH  13  14
DOCKED: ENDBRANCH  12  13
DOCKED: ENDBRANCH   1  12
DOCKED: TORSDOF 9DOCKED: TER
DOCKED: ENDMDL
________________________________________________________________________________


	BEGINNING GENETIC ALGORITHM DOCKING 58 of 100
Run: 58 Seed: 489957653 713344744 [ Run 58 of 100 GA/GALS ]
Beginning LAMARCKIAN GENETIC ALGORITHM (LGA), with a maximum of 2500000 energy evaluations.

Final-Value: -13.946


	FINAL GENETIC ALGORITHM DOCKED STATE
	_______________________________________________


Detailed state:  trans 36.175 13.391 122.886 quatxyzw 0.246566 -0.882656 0.345778 -0.201398 center -0.037 -0.159 0.371 ntor 9 -11.0741 -157.9317 -91.7109 -176.1540 12.0827 23.6932 23.9457 168.3650 -163.2683
State:	 36.175  13.391 122.886   0.252 -0.901  0.353 -156.763    -11.07 -157.93  -91.71 -176.15   12.08   23.69   23.95  168.36 -163.27

DOCKED: MODEL       58
DOCKED: USER    Run = 58
DOCKED: USER    DPF = ligand_dock.biased.dpf
DOCKED: USER  
DOCKED: USER    Estimated Free Energy of Binding    =   -9.82 kcal/mol  [=(1)+(2)+(3)-(4)]
DOCKED: USER    Estimated Inhibition Constant, Ki   =   63.71 nM (nanomolar)  [Temperature = 298.15 K]
DOCKED: USER    
DOCKED: USER    (1) Final Intermolecular Energy     =  -12.50 kcal/mol
DOCKED: USER        vdW + Hbond + desolv Energy     =  -12.50 kcal/mol
DOCKED: USER        Electrostatic Energy            =   +0.00 kcal/mol
DOCKED: USER    (2) Final Total Internal Energy     =   -1.44 kcal/mol
DOCKED: USER    (3) Torsional Free Energy           =   +2.68 kcal/mol
DOCKED: USER    (4) Unbound System's Energy  [=(2)] =   -1.44 kcal/mol
DOCKED: USER    
DOCKED: USER    
DOCKED: USER    NEWDPF move ligand.dum.pdbqt
DOCKED: USER    NEWDPF about -0.037000 -0.159000 0.371000
DOCKED: USER    NEWDPF tran0 36.175165 13.390917 122.885808
DOCKED: USER    NEWDPF quaternion0 0.246566 -0.882656 0.345778 -0.201398
DOCKED: USER    NEWDPF axisangle0 0.251724 -0.901121 0.353011 -156.762607
DOCKED: USER    NEWDPF quat0 0.251724 -0.901121 0.353011 -156.762607
DOCKED: USER    NEWDPF dihe0 -11.07 -157.93 -91.71 -176.15 12.08 23.69 23.95 168.36 -163.27 
DOCKED: USER  keepresnum = 1 
DOCKED: USER  
DOCKED: REMARK  Name = 
DOCKED: REMARK  9 active torsions:
DOCKED: REMARK  status: ('A' for Active; 'I' for Inactive)
DOCKED: REMARK    1  A    between atoms: C_2  and  C_10
DOCKED: REMARK    2  A    between atoms: N_3  and  C_4
DOCKED: REMARK    3  A    between atoms: C_10  and  C_11
DOCKED: REMARK    4  A    between atoms: C_11  and  C_12
DOCKED: REMARK    5  A    between atoms: C_12  and  C_13
DOCKED: REMARK    6  A    between atoms: C_13  and  C_14
DOCKED: REMARK    7  A    between atoms: C_14  and  C_15
DOCKED: REMARK    8  A    between atoms: C_15  and  C_16
DOCKED: REMARK    9  A    between atoms: N_17  and  O_18
DOCKED: REMARK                            x       y       z     vdW  Elec       q    Type
DOCKED: REMARK                         _______ _______ _______ _____ _____    ______ ____
DOCKED: USER                              x       y       z     vdW  Elec       q    Type
DOCKED: USER                           _______ _______ _______ _____ _____    ______ ____
DOCKED: ROOT
DOCKED: ATOM      1  C   UNL     1      36.155  16.096 123.169 -0.38 -0.00    +0.000 C 
DOCKED: ENDROOT
DOCKED: BRANCH   1   3
DOCKED: ATOM      2  O   UNL     1      37.761  15.278 121.605 -0.27 -0.00    +0.000 OA
DOCKED: ATOM      3  C   UNL     1      37.562  15.858 122.707 -0.32 -0.00    +0.000 C 
DOCKED: ATOM      4  N   UNL     1      38.666  16.290 123.518 -0.24 -0.00    +0.000 N 
DOCKED: ATOM      5  H   UNL     1      38.477  16.588 124.437 -0.02 -0.00    +0.000 HD
DOCKED: BRANCH   4   6
DOCKED: ATOM      6  C   UNL     1      40.030  16.311 123.067 -0.23 -0.00    +0.000 A 
DOCKED: ATOM      7  C   UNL     1      40.645  15.162 122.535 -0.41 -0.00    +0.000 A 
DOCKED: ATOM      8  C   UNL     1      41.967  15.217 122.080 -0.42 -0.00    +0.000 A 
DOCKED: ATOM      9  C   UNL     1      42.680  16.417 122.139 -0.34 -0.00    +0.000 A 
DOCKED: ATOM     10  C   UNL     1      42.069  17.567 122.646 -0.24 -0.00    +0.000 A 
DOCKED: ATOM     11  C   UNL     1      40.747  17.517 123.100 -0.23 -0.00    +0.000 A 
DOCKED: ATOM     12  CM  UNL     1      41.357  16.365 122.594 +0.00 -0.00    +0.000 AC
DOCKED: ENDBRANCH   4   6
DOCKED: ENDBRANCH   1   3
DOCKED: BRANCH   1  12
DOCKED: ATOM     13  C   UNL     1      35.502  14.776 123.589 -0.52 -0.00    +0.000 C 
DOCKED: BRANCH  12  13
DOCKED: ATOM     14  C   UNL     1      36.558  13.685 123.813 -0.51 -0.00    +0.000 C 
DOCKED: BRANCH  13  14
DOCKED: ATOM     15  C   UNL     1      35.966  12.268 123.743 -0.64 -0.00    +0.000 C 
DOCKED: BRANCH  14  15
DOCKED: ATOM     16  C   UNL     1      36.146  11.623 122.357 -0.61 -0.00    +0.000 C 
DOCKED: BRANCH  15  16
DOCKED: ATOM     17  C   UNL     1      35.437  10.265 122.253 -0.58 -0.00    +0.000 C 
DOCKED: BRANCH  16  17
DOCKED: ATOM     18  C   UNL     1      36.414   9.126 122.254 -0.72 -0.00    +0.000 C 
DOCKED: ATOM     19  N   UNL     1      36.585   8.317 123.421 -0.67 -0.00    +0.000 N 
DOCKED: ATOM     20  O   UNL     1      37.066   8.863 121.207 -2.69 -0.00    +0.000 OA
DOCKED: ATOM     21  H   UNL     1      36.076   8.527 124.237 -0.21 -0.00    +0.000 HD
DOCKED: BRANCH  18  21
DOCKED: ATOM     22  O   UNL     1      37.440   7.268 123.413 -1.88 -0.00    +0.000 OA
DOCKED: ATOM     23  H   UNL     1      37.724   7.090 122.503 -0.35 -0.00    +0.000 HD
DOCKED: ENDBRANCH  18  21
DOCKED: ENDBRANCH  16  17
DOCKED: ENDBRANCH  15  16
DOCKED: ENDBRANCH  14  15
DOCKED: ENDBRANCH  13  14
DOCKED: ENDBRANCH  12  13
DOCKED: ENDBRANCH   1  12
DOCKED: TORSDOF 9DOCKED: TER
DOCKED: ENDMDL
________________________________________________________________________________


	BEGINNING GENETIC ALGORITHM DOCKING 59 of 100
Run: 59 Seed: 828060942 1156503577 [ Run 59 of 100 GA/GALS ]
Beginning LAMARCKIAN GENETIC ALGORITHM (LGA), with a maximum of 2500000 energy evaluations.

Final-Value: -13.168


	FINAL GENETIC ALGORITHM DOCKED STATE
	_______________________________________________


Detailed state:  trans 35.420 14.318 125.395 quatxyzw 0.144867 -0.474103 0.697659 0.517215 center -0.037 -0.159 0.371 ntor 9 3.2777 -148.2011 -143.0448 109.8652 -113.4771 143.9008 126.8462 -163.4333 83.5297
State:	 35.420  14.318 125.395   0.169 -0.554  0.815 117.709      3.28 -148.20 -143.04  109.87 -113.48  143.90  126.85 -163.43   83.53

DOCKED: MODEL       59
DOCKED: USER    Run = 59
DOCKED: USER    DPF = ligand_dock.biased.dpf
DOCKED: USER  
DOCKED: USER    Estimated Free Energy of Binding    =   -9.16 kcal/mol  [=(1)+(2)+(3)-(4)]
DOCKED: USER    Estimated Inhibition Constant, Ki   =  192.78 nM (nanomolar)  [Temperature = 298.15 K]
DOCKED: USER    
DOCKED: USER    (1) Final Intermolecular Energy     =  -11.85 kcal/mol
DOCKED: USER        vdW + Hbond + desolv Energy     =  -11.85 kcal/mol
DOCKED: USER        Electrostatic Energy            =   +0.00 kcal/mol
DOCKED: USER    (2) Final Total Internal Energy     =   -1.32 kcal/mol
DOCKED: USER    (3) Torsional Free Energy           =   +2.68 kcal/mol
DOCKED: USER    (4) Unbound System's Energy  [=(2)] =   -1.32 kcal/mol
DOCKED: USER    
DOCKED: USER    
DOCKED: USER    NEWDPF move ligand.dum.pdbqt
DOCKED: USER    NEWDPF about -0.037000 -0.159000 0.371000
DOCKED: USER    NEWDPF tran0 35.419798 14.317620 125.394502
DOCKED: USER    NEWDPF quaternion0 0.144867 -0.474103 0.697659 0.517215
DOCKED: USER    NEWDPF axisangle0 0.169266 -0.553952 0.815160 117.708724
DOCKED: USER    NEWDPF quat0 0.169266 -0.553952 0.815160 117.708724
DOCKED: USER    NEWDPF dihe0 3.28 -148.20 -143.04 109.87 -113.48 143.90 126.85 -163.43 83.53 
DOCKED: USER  keepresnum = 1 
DOCKED: USER  
DOCKED: REMARK  Name = 
DOCKED: REMARK  9 active torsions:
DOCKED: REMARK  status: ('A' for Active; 'I' for Inactive)
DOCKED: REMARK    1  A    between atoms: C_2  and  C_10
DOCKED: REMARK    2  A    between atoms: N_3  and  C_4
DOCKED: REMARK    3  A    between atoms: C_10  and  C_11
DOCKED: REMARK    4  A    between atoms: C_11  and  C_12
DOCKED: REMARK    5  A    between atoms: C_12  and  C_13
DOCKED: REMARK    6  A    between atoms: C_13  and  C_14
DOCKED: REMARK    7  A    between atoms: C_14  and  C_15
DOCKED: REMARK    8  A    between atoms: C_15  and  C_16
DOCKED: REMARK    9  A    between atoms: N_17  and  O_18
DOCKED: REMARK                            x       y       z     vdW  Elec       q    Type
DOCKED: REMARK                         _______ _______ _______ _____ _____    ______ ____
DOCKED: USER                              x       y       z     vdW  Elec       q    Type
DOCKED: USER                           _______ _______ _______ _____ _____    ______ ____
DOCKED: ROOT
DOCKED: ATOM      1  C   UNL     1      35.161  15.918 123.211 -0.43 -0.00    +0.000 C 
DOCKED: ENDROOT
DOCKED: BRANCH   1   3
DOCKED: ATOM      2  O   UNL     1      36.634  17.199 124.583 -0.29 -0.00    +0.000 OA
DOCKED: ATOM      3  C   UNL     1      35.440  16.927 124.284 -0.39 -0.00    +0.000 C 
DOCKED: ATOM      4  N   UNL     1      34.350  17.573 124.962 -0.38 -0.00    +0.000 N 
DOCKED: ATOM      5  H   UNL     1      33.442  17.221 124.819 -0.02 -0.00    +0.000 HD
DOCKED: BRANCH   4   6
DOCKED: ATOM      6  C   UNL     1      34.508  18.703 125.836 -0.26 -0.00    +0.000 A 
DOCKED: ATOM      7  C   UNL     1      34.404  18.569 127.234 -0.19 -0.00    +0.000 A 
DOCKED: ATOM      8  C   UNL     1      34.586  19.681 128.062 -0.09 -0.00    +0.000 A 
DOCKED: ATOM      9  C   UNL     1      34.887  20.928 127.508 -0.06 -0.00    +0.000 A 
DOCKED: ATOM     10  C   UNL     1      35.014  21.063 126.123 -0.12 -0.00    +0.000 A 
DOCKED: ATOM     11  C   UNL     1      34.834  19.955 125.290 -0.16 -0.00    +0.000 A 
DOCKED: ATOM     12  CM  UNL     1      34.706  19.817 126.675 +0.00 -0.00    +0.000 AC
DOCKED: ENDBRANCH   4   6
DOCKED: ENDBRANCH   1   3
DOCKED: BRANCH   1  12
DOCKED: ATOM     13  C   UNL     1      34.817  14.561 123.831 -0.47 -0.00    +0.000 C 
DOCKED: BRANCH  12  13
DOCKED: ATOM     14  C   UNL     1      36.053  13.650 123.884 -0.55 -0.00    +0.000 C 
DOCKED: BRANCH  13  14
DOCKED: ATOM     15  C   UNL     1      36.688  13.437 122.501 -0.51 -0.00    +0.000 C 
DOCKED: BRANCH  14  15
DOCKED: ATOM     16  C   UNL     1      37.227  12.008 122.314 -0.53 -0.00    +0.000 C 
DOCKED: BRANCH  15  16
DOCKED: ATOM     17  C   UNL     1      36.126  10.949 122.457 -0.67 -0.00    +0.000 C 
DOCKED: BRANCH  16  17
DOCKED: ATOM     18  C   UNL     1      36.657   9.561 122.247 -0.71 -0.00    +0.000 C 
DOCKED: ATOM     19  N   UNL     1      36.671   8.619 123.322 -0.65 -0.00    +0.000 N 
DOCKED: ATOM     20  O   UNL     1      37.065   9.216 121.105 -2.74 -0.00    +0.000 OA
DOCKED: ATOM     21  H   UNL     1      36.354   8.891 124.213 -0.34 -0.00    +0.000 HD
DOCKED: BRANCH  18  21
DOCKED: ATOM     22  O   UNL     1      37.118   7.356 123.126 -2.13 -0.00    +0.000 OA
DOCKED: ATOM     23  H   UNL     1      37.439   7.265 122.216 -0.16 -0.00    +0.000 HD
DOCKED: ENDBRANCH  18  21
DOCKED: ENDBRANCH  16  17
DOCKED: ENDBRANCH  15  16
DOCKED: ENDBRANCH  14  15
DOCKED: ENDBRANCH  13  14
DOCKED: ENDBRANCH  12  13
DOCKED: ENDBRANCH   1  12
DOCKED: TORSDOF 9DOCKED: TER
DOCKED: ENDMDL
________________________________________________________________________________


	BEGINNING GENETIC ALGORITHM DOCKING 60 of 100
Run: 60 Seed: 100840548 41460106 [ Run 60 of 100 GA/GALS ]
Beginning LAMARCKIAN GENETIC ALGORITHM (LGA), with a maximum of 2500000 energy evaluations.

Final-Value: -13.271


	FINAL GENETIC ALGORITHM DOCKED STATE
	_______________________________________________


Detailed state:  trans 38.212 15.692 124.473 quatxyzw -0.063744 0.040935 -0.975090 -0.208472 center -0.037 -0.159 0.371 ntor 9 -4.0624 149.7513 -96.2578 12.4735 -89.3470 85.0360 -90.9459 88.1871 -10.1601
State:	 38.212  15.692 124.473  -0.065  0.042 -0.997 -155.934     -4.06  149.75  -96.26   12.47  -89.35   85.04  -90.95   88.19  -10.16

DOCKED: MODEL       60
DOCKED: USER    Run = 60
DOCKED: USER    DPF = ligand_dock.biased.dpf
DOCKED: USER  
DOCKED: USER    Estimated Free Energy of Binding    =   -9.31 kcal/mol  [=(1)+(2)+(3)-(4)]
DOCKED: USER    Estimated Inhibition Constant, Ki   =  150.80 nM (nanomolar)  [Temperature = 298.15 K]
DOCKED: USER    
DOCKED: USER    (1) Final Intermolecular Energy     =  -11.99 kcal/mol
DOCKED: USER        vdW + Hbond + desolv Energy     =  -11.99 kcal/mol
DOCKED: USER        Electrostatic Energy            =   +0.00 kcal/mol
DOCKED: USER    (2) Final Total Internal Energy     =   -1.28 kcal/mol
DOCKED: USER    (3) Torsional Free Energy           =   +2.68 kcal/mol
DOCKED: USER    (4) Unbound System's Energy  [=(2)] =   -1.28 kcal/mol
DOCKED: USER    
DOCKED: USER    
DOCKED: USER    NEWDPF move ligand.dum.pdbqt
DOCKED: USER    NEWDPF about -0.037000 -0.159000 0.371000
DOCKED: USER    NEWDPF tran0 38.211903 15.692246 124.472668
DOCKED: USER    NEWDPF quaternion0 -0.063744 0.040935 -0.975090 -0.208472
DOCKED: USER    NEWDPF axisangle0 -0.065176 0.041855 -0.996996 -155.934311
DOCKED: USER    NEWDPF quat0 -0.065176 0.041855 -0.996996 -155.934311
DOCKED: USER    NEWDPF dihe0 -4.06 149.75 -96.26 12.47 -89.35 85.04 -90.95 88.19 -10.16 
DOCKED: USER  keepresnum = 1 
DOCKED: USER  
DOCKED: REMARK  Name = 
DOCKED: REMARK  9 active torsions:
DOCKED: REMARK  status: ('A' for Active; 'I' for Inactive)
DOCKED: REMARK    1  A    between atoms: C_2  and  C_10
DOCKED: REMARK    2  A    between atoms: N_3  and  C_4
DOCKED: REMARK    3  A    between atoms: C_10  and  C_11
DOCKED: REMARK    4  A    between atoms: C_11  and  C_12
DOCKED: REMARK    5  A    between atoms: C_12  and  C_13
DOCKED: REMARK    6  A    between atoms: C_13  and  C_14
DOCKED: REMARK    7  A    between atoms: C_14  and  C_15
DOCKED: REMARK    8  A    between atoms: C_15  and  C_16
DOCKED: REMARK    9  A    between atoms: N_17  and  O_18
DOCKED: REMARK                            x       y       z     vdW  Elec       q    Type
DOCKED: REMARK                         _______ _______ _______ _____ _____    ______ ____
DOCKED: USER                              x       y       z     vdW  Elec       q    Type
DOCKED: USER                           _______ _______ _______ _____ _____    ______ ____
DOCKED: ROOT
DOCKED: ATOM      1  C   UNL     1      39.130  14.615 122.150 -0.42 -0.00    +0.000 C 
DOCKED: ENDROOT
DOCKED: BRANCH   1   3
DOCKED: ATOM      2  O   UNL     1      39.677  16.766 123.024 -0.28 -0.00    +0.000 OA
DOCKED: ATOM      3  C   UNL     1      40.042  15.794 122.309 -0.35 -0.00    +0.000 C 
DOCKED: ATOM      4  N   UNL     1      41.317  15.809 121.648 -0.30 -0.00    +0.000 N 
DOCKED: ATOM      5  H   UNL     1      41.498  15.114 120.974 -0.00 -0.00    +0.000 HD
DOCKED: BRANCH   4   6
DOCKED: ATOM      6  C   UNL     1      42.345  16.777 121.913 -0.27 -0.00    +0.000 A 
DOCKED: ATOM      7  C   UNL     1      42.118  18.155 121.736 -0.11 -0.00    +0.000 A 
DOCKED: ATOM      8  C   UNL     1      43.128  19.078 122.025 -0.10 -0.00    +0.000 A 
DOCKED: ATOM      9  C   UNL     1      44.364  18.638 122.505 -0.17 -0.00    +0.000 A 
DOCKED: ATOM     10  C   UNL     1      44.590  17.274 122.703 -0.30 -0.00    +0.000 A 
DOCKED: ATOM     11  C   UNL     1      43.583  16.347 122.417 -0.29 -0.00    +0.000 A 
DOCKED: ATOM     12  CM  UNL     1      43.355  17.712 122.217 +0.00 -0.00    +0.000 AC
DOCKED: ENDBRANCH   4   6
DOCKED: ENDBRANCH   1   3
DOCKED: BRANCH   1  12
DOCKED: ATOM     13  C   UNL     1      37.940  14.728 123.107 -0.42 -0.00    +0.000 C 
DOCKED: BRANCH  12  13
DOCKED: ATOM     14  C   UNL     1      36.872  13.672 122.787 -0.53 -0.00    +0.000 C 
DOCKED: BRANCH  13  14
DOCKED: ATOM     15  C   UNL     1      37.154  12.323 123.467 -0.64 -0.00    +0.000 C 
DOCKED: BRANCH  14  15
DOCKED: ATOM     16  C   UNL     1      35.888  11.459 123.611 -0.65 -0.00    +0.000 C 
DOCKED: BRANCH  15  16
DOCKED: ATOM     17  C   UNL     1      35.586  10.657 122.337 -0.64 -0.00    +0.000 C 
DOCKED: BRANCH  16  17
DOCKED: ATOM     18  C   UNL     1      36.410   9.404 122.259 -0.70 -0.00    +0.000 C 
DOCKED: ATOM     19  N   UNL     1      36.434   8.484 123.354 -0.64 -0.00    +0.000 N 
DOCKED: ATOM     20  O   UNL     1      37.060   9.149 121.210 -2.73 -0.00    +0.000 OA
DOCKED: ATOM     21  H   UNL     1      35.927   8.687 124.173 -0.18 -0.00    +0.000 HD
DOCKED: BRANCH  18  21
DOCKED: ATOM     22  O   UNL     1      37.149   7.337 123.272 -2.09 -0.00    +0.000 OA
DOCKED: ATOM     23  H   UNL     1      37.533   7.258 122.386 -0.18 -0.00    +0.000 HD
DOCKED: ENDBRANCH  18  21
DOCKED: ENDBRANCH  16  17
DOCKED: ENDBRANCH  15  16
DOCKED: ENDBRANCH  14  15
DOCKED: ENDBRANCH  13  14
DOCKED: ENDBRANCH  12  13
DOCKED: ENDBRANCH   1  12
DOCKED: TORSDOF 9DOCKED: TER
DOCKED: ENDMDL
________________________________________________________________________________


	BEGINNING GENETIC ALGORITHM DOCKING 61 of 100
Run: 61 Seed: 1286164831 1254045894 [ Run 61 of 100 GA/GALS ]
Beginning LAMARCKIAN GENETIC ALGORITHM (LGA), with a maximum of 2500000 energy evaluations.

Final-Value: -12.647


	FINAL GENETIC ALGORITHM DOCKED STATE
	_______________________________________________


Detailed state:  trans 38.411 13.882 122.924 quatxyzw -0.267254 0.370278 -0.563128 -0.688735 center -0.037 -0.159 0.371 ntor 9 -4.1370 -179.7738 -112.7140 86.9795 67.0713 1.9153 -63.4122 16.3777 179.6507
State:	 38.411  13.882 122.924  -0.369  0.511 -0.777 -92.940     -4.14 -179.77 -112.71   86.98   67.07    1.92  -63.41   16.38  179.65

DOCKED: MODEL       61
DOCKED: USER    Run = 61
DOCKED: USER    DPF = ligand_dock.biased.dpf
DOCKED: USER  
DOCKED: USER    Estimated Free Energy of Binding    =   -8.42 kcal/mol  [=(1)+(2)+(3)-(4)]
DOCKED: USER    Estimated Inhibition Constant, Ki   =  678.36 nM (nanomolar)  [Temperature = 298.15 K]
DOCKED: USER    
DOCKED: USER    (1) Final Intermolecular Energy     =  -11.10 kcal/mol
DOCKED: USER        vdW + Hbond + desolv Energy     =  -11.10 kcal/mol
DOCKED: USER        Electrostatic Energy            =   +0.00 kcal/mol
DOCKED: USER    (2) Final Total Internal Energy     =   -1.55 kcal/mol
DOCKED: USER    (3) Torsional Free Energy           =   +2.68 kcal/mol
DOCKED: USER    (4) Unbound System's Energy  [=(2)] =   -1.55 kcal/mol
DOCKED: USER    
DOCKED: USER    
DOCKED: USER    NEWDPF move ligand.dum.pdbqt
DOCKED: USER    NEWDPF about -0.037000 -0.159000 0.371000
DOCKED: USER    NEWDPF tran0 38.411162 13.882382 122.923909
DOCKED: USER    NEWDPF quaternion0 -0.267254 0.370278 -0.563128 -0.688735
DOCKED: USER    NEWDPF axisangle0 -0.368620 0.510720 -0.776714 -92.939872
DOCKED: USER    NEWDPF quat0 -0.368620 0.510720 -0.776714 -92.939872
DOCKED: USER    NEWDPF dihe0 -4.14 -179.77 -112.71 86.98 67.07 1.92 -63.41 16.38 179.65 
DOCKED: USER  keepresnum = 1 
DOCKED: USER  
DOCKED: REMARK  Name = 
DOCKED: REMARK  9 active torsions:
DOCKED: REMARK  status: ('A' for Active; 'I' for Inactive)
DOCKED: REMARK    1  A    between atoms: C_2  and  C_10
DOCKED: REMARK    2  A    between atoms: N_3  and  C_4
DOCKED: REMARK    3  A    between atoms: C_10  and  C_11
DOCKED: REMARK    4  A    between atoms: C_11  and  C_12
DOCKED: REMARK    5  A    between atoms: C_12  and  C_13
DOCKED: REMARK    6  A    between atoms: C_13  and  C_14
DOCKED: REMARK    7  A    between atoms: C_14  and  C_15
DOCKED: REMARK    8  A    between atoms: C_15  and  C_16
DOCKED: REMARK    9  A    between atoms: N_17  and  O_18
DOCKED: REMARK                            x       y       z     vdW  Elec       q    Type
DOCKED: REMARK                         _______ _______ _______ _____ _____    ______ ____
DOCKED: USER                              x       y       z     vdW  Elec       q    Type
DOCKED: USER                           _______ _______ _______ _____ _____    ______ ____
DOCKED: ROOT
DOCKED: ATOM      1  C   UNL     1      37.565  14.961 120.574 -0.28 -0.00    +0.000 C 
DOCKED: ENDROOT
DOCKED: BRANCH   1   3
DOCKED: ATOM      2  O   UNL     1      36.047  16.085 122.032 -0.29 -0.00    +0.000 OA
DOCKED: ATOM      3  C   UNL     1      37.209  16.048 121.543 -0.23 -0.00    +0.000 C 
DOCKED: ATOM      4  N   UNL     1      38.188  17.035 121.905 -0.13 -0.00    +0.000 N 
DOCKED: ATOM      5  H   UNL     1      39.023  17.071 121.386 +0.01 -0.00    +0.000 HD
DOCKED: BRANCH   4   6
DOCKED: ATOM      6  C   UNL     1      38.019  17.972 122.981 -0.14 -0.00    +0.000 A 
DOCKED: ATOM      7  C   UNL     1      37.170  19.088 122.856 -0.12 -0.00    +0.000 A 
DOCKED: ATOM      8  C   UNL     1      37.006  19.971 123.928 -0.12 -0.00    +0.000 A 
DOCKED: ATOM      9  C   UNL     1      37.673  19.743 125.134 -0.10 -0.00    +0.000 A 
DOCKED: ATOM     10  C   UNL     1      38.500  18.626 125.273 -0.17 -0.00    +0.000 A 
DOCKED: ATOM     11  C   UNL     1      38.667  17.739 124.205 -0.20 -0.00    +0.000 A 
DOCKED: ATOM     12  CM  UNL     1      37.840  18.857 124.063 +0.00 -0.00    +0.000 AC
DOCKED: ENDBRANCH   4   6
DOCKED: ENDBRANCH   1   3
DOCKED: BRANCH   1  12
DOCKED: ATOM     13  C   UNL     1      37.900  13.667 121.324 -0.44 -0.00    +0.000 C 
DOCKED: BRANCH  12  13
DOCKED: ATOM     14  C   UNL     1      37.784  13.865 122.843 -0.51 -0.00    +0.000 C 
DOCKED: BRANCH  13  14
DOCKED: ATOM     15  C   UNL     1      36.628  13.058 123.455 -0.63 -0.00    +0.000 C 
DOCKED: BRANCH  14  15
DOCKED: ATOM     16  C   UNL     1      36.949  11.556 123.558 -0.68 -0.00    +0.000 C 
DOCKED: BRANCH  15  16
DOCKED: ATOM     17  C   UNL     1      35.965  10.696 122.752 -0.69 -0.00    +0.000 C 
DOCKED: BRANCH  16  17
DOCKED: ATOM     18  C   UNL     1      36.565   9.374 122.370 -0.72 -0.00    +0.000 C 
DOCKED: ATOM     19  N   UNL     1      36.566   8.283 123.295 -0.69 -0.00    +0.000 N 
DOCKED: ATOM     20  O   UNL     1      37.044   9.217 121.214 -2.73 -0.00    +0.000 OA
DOCKED: ATOM     21  H   UNL     1      36.194   8.410 124.198 -0.24 -0.00    +0.000 HD
DOCKED: BRANCH  18  21
DOCKED: ATOM     22  O   UNL     1      37.076   7.080 122.941 -1.83 -0.00    +0.000 OA
DOCKED: ATOM     23  H   UNL     1      37.339   7.103 122.008 -0.17 -0.00    +0.000 HD
DOCKED: ENDBRANCH  18  21
DOCKED: ENDBRANCH  16  17
DOCKED: ENDBRANCH  15  16
DOCKED: ENDBRANCH  14  15
DOCKED: ENDBRANCH  13  14
DOCKED: ENDBRANCH  12  13
DOCKED: ENDBRANCH   1  12
DOCKED: TORSDOF 9DOCKED: TER
DOCKED: ENDMDL
________________________________________________________________________________


	BEGINNING GENETIC ALGORITHM DOCKING 62 of 100
Run: 62 Seed: 188204583 644975976 [ Run 62 of 100 GA/GALS ]
Beginning LAMARCKIAN GENETIC ALGORITHM (LGA), with a maximum of 2500000 energy evaluations.

Final-Value: -13.181


	FINAL GENETIC ALGORITHM DOCKED STATE
	_______________________________________________


Detailed state:  trans 36.694 14.807 125.617 quatxyzw 0.382883 -0.463824 0.634413 0.485580 center -0.037 -0.159 0.371 ntor 9 12.3875 -169.6266 -165.2688 -180.0000 139.3903 133.2448 -79.0609 165.4465 15.6191
State:	 36.694  14.807 125.617   0.438 -0.531  0.726 121.899     12.39 -169.63 -165.27 -180.00  139.39  133.24  -79.06  165.45   15.62

DOCKED: MODEL       62
DOCKED: USER    Run = 62
DOCKED: USER    DPF = ligand_dock.biased.dpf
DOCKED: USER  
DOCKED: USER    Estimated Free Energy of Binding    =   -9.24 kcal/mol  [=(1)+(2)+(3)-(4)]
DOCKED: USER    Estimated Inhibition Constant, Ki   =  169.97 nM (nanomolar)  [Temperature = 298.15 K]
DOCKED: USER    
DOCKED: USER    (1) Final Intermolecular Energy     =  -11.92 kcal/mol
DOCKED: USER        vdW + Hbond + desolv Energy     =  -11.92 kcal/mol
DOCKED: USER        Electrostatic Energy            =   +0.00 kcal/mol
DOCKED: USER    (2) Final Total Internal Energy     =   -1.26 kcal/mol
DOCKED: USER    (3) Torsional Free Energy           =   +2.68 kcal/mol
DOCKED: USER    (4) Unbound System's Energy  [=(2)] =   -1.26 kcal/mol
DOCKED: USER    
DOCKED: USER    
DOCKED: USER    NEWDPF move ligand.dum.pdbqt
DOCKED: USER    NEWDPF about -0.037000 -0.159000 0.371000
DOCKED: USER    NEWDPF tran0 36.694114 14.806729 125.617320
DOCKED: USER    NEWDPF quaternion0 0.382883 -0.463824 0.634413 0.485580
DOCKED: USER    NEWDPF axisangle0 0.437985 -0.530575 0.725713 121.899030
DOCKED: USER    NEWDPF quat0 0.437985 -0.530575 0.725713 121.899030
DOCKED: USER    NEWDPF dihe0 12.39 -169.63 -165.27 -180.00 139.39 133.24 -79.06 165.45 15.62 
DOCKED: USER  keepresnum = 1 
DOCKED: USER  
DOCKED: REMARK  Name = 
DOCKED: REMARK  9 active torsions:
DOCKED: REMARK  status: ('A' for Active; 'I' for Inactive)
DOCKED: REMARK    1  A    between atoms: C_2  and  C_10
DOCKED: REMARK    2  A    between atoms: N_3  and  C_4
DOCKED: REMARK    3  A    between atoms: C_10  and  C_11
DOCKED: REMARK    4  A    between atoms: C_11  and  C_12
DOCKED: REMARK    5  A    between atoms: C_12  and  C_13
DOCKED: REMARK    6  A    between atoms: C_13  and  C_14
DOCKED: REMARK    7  A    between atoms: C_14  and  C_15
DOCKED: REMARK    8  A    between atoms: C_15  and  C_16
DOCKED: REMARK    9  A    between atoms: N_17  and  O_18
DOCKED: REMARK                            x       y       z     vdW  Elec       q    Type
DOCKED: REMARK                         _______ _______ _______ _____ _____    ______ ____
DOCKED: USER                              x       y       z     vdW  Elec       q    Type
DOCKED: USER                           _______ _______ _______ _____ _____    ______ ____
DOCKED: ROOT
DOCKED: ATOM      1  C   UNL     1      35.286  15.725 123.479 -0.49 -0.00    +0.000 C 
DOCKED: ENDROOT
DOCKED: BRANCH   1   3
DOCKED: ATOM      2  O   UNL     1      36.812  17.277 124.455 -0.28 -0.00    +0.000 OA
DOCKED: ATOM      3  C   UNL     1      35.610  17.004 124.190 -0.37 -0.00    +0.000 C 
DOCKED: ATOM      4  N   UNL     1      34.555  17.905 124.563 -0.35 -0.00    +0.000 N 
DOCKED: ATOM      5  H   UNL     1      33.626  17.587 124.487 -0.02 -0.00    +0.000 HD
DOCKED: BRANCH   4   6
DOCKED: ATOM      6  C   UNL     1      34.775  19.243 125.039 -0.21 -0.00    +0.000 A 
DOCKED: ATOM      7  C   UNL     1      34.197  19.699 126.239 -0.19 -0.00    +0.000 A 
DOCKED: ATOM      8  C   UNL     1      34.448  20.998 126.692 -0.12 -0.00    +0.000 A 
DOCKED: ATOM      9  C   UNL     1      35.286  21.846 125.963 -0.11 -0.00    +0.000 A 
DOCKED: ATOM     10  C   UNL     1      35.881  21.393 124.783 -0.14 -0.00    +0.000 A 
DOCKED: ATOM     11  C   UNL     1      35.634  20.094 124.326 -0.14 -0.00    +0.000 A 
DOCKED: ATOM     12  CM  UNL     1      35.037  20.546 125.507 +0.00 -0.00    +0.000 AC
DOCKED: ENDBRANCH   4   6
DOCKED: ENDBRANCH   1   3
DOCKED: BRANCH   1  12
DOCKED: ATOM     13  C   UNL     1      35.564  14.524 124.388 -0.42 -0.00    +0.000 C 
DOCKED: BRANCH  12  13
DOCKED: ATOM     14  C   UNL     1      35.612  13.219 123.579 -0.47 -0.00    +0.000 C 
DOCKED: BRANCH  13  14
DOCKED: ATOM     15  C   UNL     1      37.047  12.799 123.225 -0.62 -0.00    +0.000 C 
DOCKED: BRANCH  14  15
DOCKED: ATOM     16  C   UNL     1      37.111  11.941 121.949 -0.56 -0.00    +0.000 C 
DOCKED: BRANCH  15  16
DOCKED: ATOM     17  C   UNL     1      36.067  10.817 121.953 -0.54 -0.00    +0.000 C 
DOCKED: BRANCH  16  17
DOCKED: ATOM     18  C   UNL     1      36.705   9.464 122.082 -0.70 -0.00    +0.000 C 
DOCKED: ATOM     19  N   UNL     1      36.876   8.863 123.369 -0.61 -0.00    +0.000 N 
DOCKED: ATOM     20  O   UNL     1      37.064   8.842 121.046 -2.70 -0.00    +0.000 OA
DOCKED: ATOM     21  H   UNL     1      36.597   9.352 124.176 -0.44 -0.00    +0.000 HD
DOCKED: BRANCH  18  21
DOCKED: ATOM     22  O   UNL     1      37.420   7.629 123.485 -2.12 -0.00    +0.000 OA
DOCKED: ATOM     23  H   UNL     1      37.815   7.369 122.639 -0.33 -0.00    +0.000 HD
DOCKED: ENDBRANCH  18  21
DOCKED: ENDBRANCH  16  17
DOCKED: ENDBRANCH  15  16
DOCKED: ENDBRANCH  14  15
DOCKED: ENDBRANCH  13  14
DOCKED: ENDBRANCH  12  13
DOCKED: ENDBRANCH   1  12
DOCKED: TORSDOF 9DOCKED: TER
DOCKED: ENDMDL
________________________________________________________________________________


	BEGINNING GENETIC ALGORITHM DOCKING 63 of 100
Run: 63 Seed: 1988695365 285118865 [ Run 63 of 100 GA/GALS ]
Beginning LAMARCKIAN GENETIC ALGORITHM (LGA), with a maximum of 2500000 energy evaluations.

Final-Value: -13.790


	FINAL GENETIC ALGORITHM DOCKED STATE
	_______________________________________________


Detailed state:  trans 36.878 15.253 122.250 quatxyzw -0.244740 0.099434 0.963033 0.052748 center -0.037 -0.159 0.371 ntor 9 3.6547 133.8948 -72.0828 84.8446 -147.3492 -168.8485 -174.6483 -180.0000 99.5312
State:	 36.878  15.253 122.250  -0.245  0.100  0.964 173.953      3.65  133.89  -72.08   84.84 -147.35 -168.85 -174.65 -180.00   99.53

DOCKED: MODEL       63
DOCKED: USER    Run = 63
DOCKED: USER    DPF = ligand_dock.biased.dpf
DOCKED: USER  
DOCKED: USER    Estimated Free Energy of Binding    =   -9.97 kcal/mol  [=(1)+(2)+(3)-(4)]
DOCKED: USER    Estimated Inhibition Constant, Ki   =   48.94 nM (nanomolar)  [Temperature = 298.15 K]
DOCKED: USER    
DOCKED: USER    (1) Final Intermolecular Energy     =  -12.66 kcal/mol
DOCKED: USER        vdW + Hbond + desolv Energy     =  -12.66 kcal/mol
DOCKED: USER        Electrostatic Energy            =   +0.00 kcal/mol
DOCKED: USER    (2) Final Total Internal Energy     =   -1.13 kcal/mol
DOCKED: USER    (3) Torsional Free Energy           =   +2.68 kcal/mol
DOCKED: USER    (4) Unbound System's Energy  [=(2)] =   -1.13 kcal/mol
DOCKED: USER    
DOCKED: USER    
DOCKED: USER    NEWDPF move ligand.dum.pdbqt
DOCKED: USER    NEWDPF about -0.037000 -0.159000 0.371000
DOCKED: USER    NEWDPF tran0 36.878044 15.252811 122.250273
DOCKED: USER    NEWDPF quaternion0 -0.244740 0.099434 0.963033 0.052748
DOCKED: USER    NEWDPF axisangle0 -0.245081 0.099572 0.964376 173.952721
DOCKED: USER    NEWDPF quat0 -0.245081 0.099572 0.964376 173.952721
DOCKED: USER    NEWDPF dihe0 3.65 133.89 -72.08 84.84 -147.35 -168.85 -174.65 -180.00 99.53 
DOCKED: USER  keepresnum = 1 
DOCKED: USER  
DOCKED: REMARK  Name = 
DOCKED: REMARK  9 active torsions:
DOCKED: REMARK  status: ('A' for Active; 'I' for Inactive)
DOCKED: REMARK    1  A    between atoms: C_2  and  C_10
DOCKED: REMARK    2  A    between atoms: N_3  and  C_4
DOCKED: REMARK    3  A    between atoms: C_10  and  C_11
DOCKED: REMARK    4  A    between atoms: C_11  and  C_12
DOCKED: REMARK    5  A    between atoms: C_12  and  C_13
DOCKED: REMARK    6  A    between atoms: C_13  and  C_14
DOCKED: REMARK    7  A    between atoms: C_14  and  C_15
DOCKED: REMARK    8  A    between atoms: C_15  and  C_16
DOCKED: REMARK    9  A    between atoms: N_17  and  O_18
DOCKED: REMARK                            x       y       z     vdW  Elec       q    Type
DOCKED: REMARK                         _______ _______ _______ _____ _____    ______ ____
DOCKED: USER                              x       y       z     vdW  Elec       q    Type
DOCKED: USER                           _______ _______ _______ _____ _____    ______ ____
DOCKED: ROOT
DOCKED: ATOM      1  C   UNL     1      38.535  13.443 121.076 -0.37 -0.00    +0.000 C 
DOCKED: ENDROOT
DOCKED: BRANCH   1   3
DOCKED: ATOM      2  O   UNL     1      39.629  14.411 122.963 -0.77 -0.00    +0.000 OA
DOCKED: ATOM      3  C   UNL     1      39.521  14.380 121.707 -0.29 -0.00    +0.000 C 
DOCKED: ATOM      4  N   UNL     1      40.331  15.232 120.881 -0.24 -0.00    +0.000 N 
DOCKED: ATOM      5  H   UNL     1      40.107  15.298 119.924 -0.03 -0.00    +0.000 HD
DOCKED: BRANCH   4   6
DOCKED: ATOM      6  C   UNL     1      41.449  15.992 121.368 -0.26 -0.00    +0.000 A 
DOCKED: ATOM      7  C   UNL     1      41.448  16.552 122.660 -0.33 -0.00    +0.000 A 
DOCKED: ATOM      8  C   UNL     1      42.559  17.266 123.118 -0.33 -0.00    +0.000 A 
DOCKED: ATOM      9  C   UNL     1      43.683  17.417 122.302 -0.27 -0.00    +0.000 A 
DOCKED: ATOM     10  C   UNL     1      43.699  16.845 121.026 -0.20 -0.00    +0.000 A 
DOCKED: ATOM     11  C   UNL     1      42.591  16.129 120.564 -0.20 -0.00    +0.000 A 
DOCKED: ATOM     12  CM  UNL     1      42.572  16.700 121.840 +0.00 -0.00    +0.000 AC
DOCKED: ENDBRANCH   4   6
DOCKED: ENDBRANCH   1   3
DOCKED: BRANCH   1  12
DOCKED: ATOM     13  C   UNL     1      37.136  14.067 121.069 -0.34 -0.00    +0.000 C 
DOCKED: BRANCH  12  13
DOCKED: ATOM     14  C   UNL     1      36.456  13.908 122.437 -0.33 -0.00    +0.000 C 
DOCKED: BRANCH  13  14
DOCKED: ATOM     15  C   UNL     1      37.358  13.210 123.466 -0.55 -0.00    +0.000 C 
DOCKED: BRANCH  14  15
DOCKED: ATOM     16  C   UNL     1      37.085  11.697 123.558 -0.66 -0.00    +0.000 C 
DOCKED: BRANCH  15  16
DOCKED: ATOM     17  C   UNL     1      36.502  11.133 122.254 -0.65 -0.00    +0.000 C 
DOCKED: BRANCH  16  17
DOCKED: ATOM     18  C   UNL     1      36.814   9.674 122.091 -0.66 -0.00    +0.000 C 
DOCKED: ATOM     19  N   UNL     1      36.833   8.805 123.226 -0.66 -0.00    +0.000 N 
DOCKED: ATOM     20  O   UNL     1      37.030   9.208 120.939 -2.72 -0.00    +0.000 OA
DOCKED: ATOM     21  H   UNL     1      36.666   9.173 124.124 -0.46 -0.00    +0.000 HD
DOCKED: BRANCH  18  21
DOCKED: ATOM     22  O   UNL     1      37.080   7.482 123.077 -2.22 -0.00    +0.000 OA
DOCKED: ATOM     23  H   UNL     1      37.279   7.294 122.147 -0.12 -0.00    +0.000 HD
DOCKED: ENDBRANCH  18  21
DOCKED: ENDBRANCH  16  17
DOCKED: ENDBRANCH  15  16
DOCKED: ENDBRANCH  14  15
DOCKED: ENDBRANCH  13  14
DOCKED: ENDBRANCH  12  13
DOCKED: ENDBRANCH   1  12
DOCKED: TORSDOF 9DOCKED: TER
DOCKED: ENDMDL
________________________________________________________________________________


	BEGINNING GENETIC ALGORITHM DOCKING 64 of 100
Run: 64 Seed: 300708189 930519510 [ Run 64 of 100 GA/GALS ]
Beginning LAMARCKIAN GENETIC ALGORITHM (LGA), with a maximum of 2500000 energy evaluations.

Final-Value: -13.889


	FINAL GENETIC ALGORITHM DOCKED STATE
	_______________________________________________


Detailed state:  trans 40.063 15.053 119.777 quatxyzw 0.299786 -0.926815 -0.193972 0.116265 center -0.037 -0.159 0.371 ntor 9 -8.0717 176.2701 105.6710 18.0085 -54.2047 57.2985 77.3677 -48.1968 -23.4980
State:	 40.063  15.053 119.777   0.302 -0.933 -0.195 166.647     -8.07  176.27  105.67   18.01  -54.20   57.30   77.37  -48.20  -23.50

DOCKED: MODEL       64
DOCKED: USER    Run = 64
DOCKED: USER    DPF = ligand_dock.biased.dpf
DOCKED: USER  
DOCKED: USER    Estimated Free Energy of Binding    =   -9.96 kcal/mol  [=(1)+(2)+(3)-(4)]
DOCKED: USER    Estimated Inhibition Constant, Ki   =   49.92 nM (nanomolar)  [Temperature = 298.15 K]
DOCKED: USER    
DOCKED: USER    (1) Final Intermolecular Energy     =  -12.65 kcal/mol
DOCKED: USER        vdW + Hbond + desolv Energy     =  -12.65 kcal/mol
DOCKED: USER        Electrostatic Energy            =   +0.00 kcal/mol
DOCKED: USER    (2) Final Total Internal Energy     =   -1.24 kcal/mol
DOCKED: USER    (3) Torsional Free Energy           =   +2.68 kcal/mol
DOCKED: USER    (4) Unbound System's Energy  [=(2)] =   -1.24 kcal/mol
DOCKED: USER    
DOCKED: USER    
DOCKED: USER    NEWDPF move ligand.dum.pdbqt
DOCKED: USER    NEWDPF about -0.037000 -0.159000 0.371000
DOCKED: USER    NEWDPF tran0 40.062961 15.053233 119.776892
DOCKED: USER    NEWDPF quaternion0 0.299786 -0.926815 -0.193972 0.116265
DOCKED: USER    NEWDPF axisangle0 0.301833 -0.933143 -0.195296 166.646845
DOCKED: USER    NEWDPF quat0 0.301833 -0.933143 -0.195296 166.646845
DOCKED: USER    NEWDPF dihe0 -8.07 176.27 105.67 18.01 -54.20 57.30 77.37 -48.20 -23.50 
DOCKED: USER  keepresnum = 1 
DOCKED: USER  
DOCKED: REMARK  Name = 
DOCKED: REMARK  9 active torsions:
DOCKED: REMARK  status: ('A' for Active; 'I' for Inactive)
DOCKED: REMARK    1  A    between atoms: C_2  and  C_10
DOCKED: REMARK    2  A    between atoms: N_3  and  C_4
DOCKED: REMARK    3  A    between atoms: C_10  and  C_11
DOCKED: REMARK    4  A    between atoms: C_11  and  C_12
DOCKED: REMARK    5  A    between atoms: C_12  and  C_13
DOCKED: REMARK    6  A    between atoms: C_13  and  C_14
DOCKED: REMARK    7  A    between atoms: C_14  and  C_15
DOCKED: REMARK    8  A    between atoms: C_15  and  C_16
DOCKED: REMARK    9  A    between atoms: N_17  and  O_18
DOCKED: REMARK                            x       y       z     vdW  Elec       q    Type
DOCKED: REMARK                         _______ _______ _______ _____ _____    ______ ____
DOCKED: USER                              x       y       z     vdW  Elec       q    Type
DOCKED: USER                           _______ _______ _______ _____ _____    ______ ____
DOCKED: ROOT
DOCKED: ATOM      1  C   UNL     1      39.399  15.662 122.344 -0.34 -0.00    +0.000 C 
DOCKED: ENDROOT
DOCKED: BRANCH   1   3
DOCKED: ATOM      2  O   UNL     1      41.498  15.848 123.463 -1.02 +0.00    +0.000 OA
DOCKED: ATOM      3  C   UNL     1      40.883  15.879 122.363 -0.40 -0.00    +0.000 C 
DOCKED: ATOM      4  N   UNL     1      41.588  16.119 121.136 -0.23 -0.00    +0.000 N 
DOCKED: ATOM      5  H   UNL     1      41.060  16.297 120.324 -0.00 -0.00    +0.000 HD
DOCKED: BRANCH   4   6
DOCKED: ATOM      6  C   UNL     1      43.021  16.115 121.022 -0.25 -0.00    +0.000 A 
DOCKED: ATOM      7  C   UNL     1      43.665  15.601 119.880 -0.22 -0.00    +0.000 A 
DOCKED: ATOM      8  C   UNL     1      45.060  15.631 119.785 -0.28 +0.00    +0.000 A 
DOCKED: ATOM      9  C   UNL     1      45.822  16.186 120.817 -0.24 +0.00    +0.000 A 
DOCKED: ATOM     10  C   UNL     1      45.188  16.718 121.943 -0.26 +0.00    +0.000 A 
DOCKED: ATOM     11  C   UNL     1      43.794  16.691 122.042 -0.30 -0.00    +0.000 A 
DOCKED: ATOM     12  CM  UNL     1      44.425  16.157 120.915 +0.00 -0.00    +0.000 AC
DOCKED: ENDBRANCH   4   6
DOCKED: ENDBRANCH   1   3
DOCKED: BRANCH   1  12
DOCKED: ATOM     13  C   UNL     1      38.988  14.906 121.077 -0.32 -0.00    +0.000 C 
DOCKED: BRANCH  12  13
DOCKED: ATOM     14  C   UNL     1      37.653  14.174 121.281 -0.39 -0.00    +0.000 C 
DOCKED: BRANCH  13  14
DOCKED: ATOM     15  C   UNL     1      37.831  12.654 121.425 -0.43 -0.00    +0.000 C 
DOCKED: BRANCH  14  15
DOCKED: ATOM     16  C   UNL     1      37.090  12.088 122.650 -0.61 -0.00    +0.000 C 
DOCKED: BRANCH  15  16
DOCKED: ATOM     17  C   UNL     1      36.024  11.055 122.257 -0.64 -0.00    +0.000 C 
DOCKED: BRANCH  16  17
DOCKED: ATOM     18  C   UNL     1      36.601   9.674 122.148 -0.68 -0.00    +0.000 C 
DOCKED: ATOM     19  N   UNL     1      36.854   8.898 123.323 -0.62 -0.00    +0.000 N 
DOCKED: ATOM     20  O   UNL     1      36.837   9.185 121.010 -2.65 -0.00    +0.000 OA
DOCKED: ATOM     21  H   UNL     1      36.671   9.284 124.210 -0.47 -0.00    +0.000 HD
DOCKED: BRANCH  18  21
DOCKED: ATOM     22  O   UNL     1      37.342   7.639 123.224 -2.17 -0.00    +0.000 OA
DOCKED: ATOM     23  H   UNL     1      37.346   7.366 122.294 -0.13 -0.00    +0.000 HD
DOCKED: ENDBRANCH  18  21
DOCKED: ENDBRANCH  16  17
DOCKED: ENDBRANCH  15  16
DOCKED: ENDBRANCH  14  15
DOCKED: ENDBRANCH  13  14
DOCKED: ENDBRANCH  12  13
DOCKED: ENDBRANCH   1  12
DOCKED: TORSDOF 9DOCKED: TER
DOCKED: ENDMDL
________________________________________________________________________________


	BEGINNING GENETIC ALGORITHM DOCKING 65 of 100
Run: 65 Seed: 447582760 1631476627 [ Run 65 of 100 GA/GALS ]
Beginning LAMARCKIAN GENETIC ALGORITHM (LGA), with a maximum of 2500000 energy evaluations.

Final-Value: -14.063


	FINAL GENETIC ALGORITHM DOCKED STATE
	_______________________________________________


Detailed state:  trans 38.470 11.069 120.302 quatxyzw -0.477750 -0.553757 -0.268883 0.626746 center -0.037 -0.159 0.371 ntor 9 0.8940 150.7156 179.9977 88.6987 -72.6673 -175.4890 -166.9055 105.9274 21.5331
State:	 38.470  11.069 120.302  -0.613 -0.711 -0.345 102.379      0.89  150.72  180.00   88.70  -72.67 -175.49 -166.91  105.93   21.53

DOCKED: MODEL       65
DOCKED: USER    Run = 65
DOCKED: USER    DPF = ligand_dock.biased.dpf
DOCKED: USER  
DOCKED: USER    Estimated Free Energy of Binding    =  -10.04 kcal/mol  [=(1)+(2)+(3)-(4)]
DOCKED: USER    Estimated Inhibition Constant, Ki   =   43.59 nM (nanomolar)  [Temperature = 298.15 K]
DOCKED: USER    
DOCKED: USER    (1) Final Intermolecular Energy     =  -12.73 kcal/mol
DOCKED: USER        vdW + Hbond + desolv Energy     =  -12.73 kcal/mol
DOCKED: USER        Electrostatic Energy            =   +0.00 kcal/mol
DOCKED: USER    (2) Final Total Internal Energy     =   -1.34 kcal/mol
DOCKED: USER    (3) Torsional Free Energy           =   +2.68 kcal/mol
DOCKED: USER    (4) Unbound System's Energy  [=(2)] =   -1.34 kcal/mol
DOCKED: USER    
DOCKED: USER    
DOCKED: USER    NEWDPF move ligand.dum.pdbqt
DOCKED: USER    NEWDPF about -0.037000 -0.159000 0.371000
DOCKED: USER    NEWDPF tran0 38.469923 11.069169 120.301618
DOCKED: USER    NEWDPF quaternion0 -0.477750 -0.553757 -0.268883 0.626746
DOCKED: USER    NEWDPF axisangle0 -0.613110 -0.710652 -0.345065 102.379070
DOCKED: USER    NEWDPF quat0 -0.613110 -0.710652 -0.345065 102.379070
DOCKED: USER    NEWDPF dihe0 0.89 150.72 180.00 88.70 -72.67 -175.49 -166.91 105.93 21.53 
DOCKED: USER  keepresnum = 1 
DOCKED: USER  
DOCKED: REMARK  Name = 
DOCKED: REMARK  9 active torsions:
DOCKED: REMARK  status: ('A' for Active; 'I' for Inactive)
DOCKED: REMARK    1  A    between atoms: C_2  and  C_10
DOCKED: REMARK    2  A    between atoms: N_3  and  C_4
DOCKED: REMARK    3  A    between atoms: C_10  and  C_11
DOCKED: REMARK    4  A    between atoms: C_11  and  C_12
DOCKED: REMARK    5  A    between atoms: C_12  and  C_13
DOCKED: REMARK    6  A    between atoms: C_13  and  C_14
DOCKED: REMARK    7  A    between atoms: C_14  and  C_15
DOCKED: REMARK    8  A    between atoms: C_15  and  C_16
DOCKED: REMARK    9  A    between atoms: N_17  and  O_18
DOCKED: REMARK                            x       y       z     vdW  Elec       q    Type
DOCKED: REMARK                         _______ _______ _______ _____ _____    ______ ____
DOCKED: USER                              x       y       z     vdW  Elec       q    Type
DOCKED: USER                           _______ _______ _______ _____ _____    ______ ____
DOCKED: ROOT
DOCKED: ATOM      1  C   UNL     1      36.617  11.790 122.158 -0.61 -0.00    +0.000 C 
DOCKED: ENDROOT
DOCKED: BRANCH   1   3
DOCKED: ATOM      2  O   UNL     1      37.017   9.638 121.208 -2.34 -0.00    +0.000 OA
DOCKED: ATOM      3  C   UNL     1      36.376  10.313 122.059 -0.61 -0.00    +0.000 C 
DOCKED: ATOM      4  N   UNL     1      35.424   9.682 122.929 -0.60 -0.00    +0.000 N 
DOCKED: ATOM      5  H   UNL     1      34.831  10.258 123.462 -0.41 -0.00    +0.000 HD
DOCKED: BRANCH   4   6
DOCKED: ATOM      6  C   UNL     1      35.286   8.258 123.066 -0.61 -0.00    +0.000 A 
DOCKED: ATOM      7  C   UNL     1      34.025   7.655 123.232 -0.62 -0.00    +0.000 A 
DOCKED: ATOM      8  C   UNL     1      33.918   6.265 123.339 -0.67 -0.00    +0.000 A 
DOCKED: ATOM      9  C   UNL     1      35.061   5.465 123.267 -0.49 -0.00    +0.000 A 
DOCKED: ATOM     10  C   UNL     1      36.314   6.055 123.081 -0.54 -0.00    +0.000 A 
DOCKED: ATOM     11  C   UNL     1      36.427   7.444 122.972 -0.70 -0.00    +0.000 A 
DOCKED: ATOM     12  CM  UNL     1      35.172   6.857 123.160 +0.00 -0.00    +0.000 AC
DOCKED: ENDBRANCH   4   6
DOCKED: ENDBRANCH   1   3
DOCKED: BRANCH   1  12
DOCKED: ATOM     13  C   UNL     1      37.494  12.266 120.996 -0.51 -0.00    +0.000 C 
DOCKED: BRANCH  12  13
DOCKED: ATOM     14  C   UNL     1      38.184  13.596 121.336 -0.43 -0.00    +0.000 C 
DOCKED: BRANCH  13  14
DOCKED: ATOM     15  C   UNL     1      38.012  13.989 122.811 -0.49 -0.00    +0.000 C 
DOCKED: BRANCH  14  15
DOCKED: ATOM     16  C   UNL     1      36.944  15.080 123.009 -0.42 -0.00    +0.000 C 
DOCKED: BRANCH  15  16
DOCKED: ATOM     17  C   UNL     1      35.606  14.501 123.492 -0.52 -0.00    +0.000 C 
DOCKED: BRANCH  16  17
DOCKED: ATOM     18  C   UNL     1      34.768  15.537 124.183 -0.58 -0.00    +0.000 C 
DOCKED: ATOM     19  N   UNL     1      34.476  16.780 123.540 -0.43 -0.00    +0.000 N 
DOCKED: ATOM     20  O   UNL     1      34.295  15.295 125.327 -0.64 -0.00    +0.000 OA
DOCKED: ATOM     21  H   UNL     1      34.848  16.967 122.648 -0.01 -0.00    +0.000 HD
DOCKED: BRANCH  18  21
DOCKED: ATOM     22  O   UNL     1      33.692  17.701 124.148 -0.46 -0.00    +0.000 OA
DOCKED: ATOM     23  H   UNL     1      33.420  17.371 125.018 -0.02 -0.00    +0.000 HD
DOCKED: ENDBRANCH  18  21
DOCKED: ENDBRANCH  16  17
DOCKED: ENDBRANCH  15  16
DOCKED: ENDBRANCH  14  15
DOCKED: ENDBRANCH  13  14
DOCKED: ENDBRANCH  12  13
DOCKED: ENDBRANCH   1  12
DOCKED: TORSDOF 9DOCKED: TER
DOCKED: ENDMDL
________________________________________________________________________________


	BEGINNING GENETIC ALGORITHM DOCKING 66 of 100
Run: 66 Seed: 786558830 685612413 [ Run 66 of 100 GA/GALS ]
Beginning LAMARCKIAN GENETIC ALGORITHM (LGA), with a maximum of 2500000 energy evaluations.

Final-Value: -12.994


	FINAL GENETIC ALGORITHM DOCKED STATE
	_______________________________________________


Detailed state:  trans 39.086 12.799 118.495 quatxyzw -0.498601 0.522858 -0.688510 -0.063013 center -0.037 -0.159 0.371 ntor 9 12.2831 -67.1518 -146.9204 168.7563 9.8682 -151.8979 8.8616 7.8809 -106.0034
State:	 39.086  12.799 118.495  -0.500  0.524 -0.690 -172.774     12.28  -67.15 -146.92  168.76    9.87 -151.90    8.86    7.88 -106.00

DOCKED: MODEL       66
DOCKED: USER    Run = 66
DOCKED: USER    DPF = ligand_dock.biased.dpf
DOCKED: USER  
DOCKED: USER    Estimated Free Energy of Binding    =   -8.98 kcal/mol  [=(1)+(2)+(3)-(4)]
DOCKED: USER    Estimated Inhibition Constant, Ki   =  262.64 nM (nanomolar)  [Temperature = 298.15 K]
DOCKED: USER    
DOCKED: USER    (1) Final Intermolecular Energy     =  -11.66 kcal/mol
DOCKED: USER        vdW + Hbond + desolv Energy     =  -11.66 kcal/mol
DOCKED: USER        Electrostatic Energy            =   +0.00 kcal/mol
DOCKED: USER    (2) Final Total Internal Energy     =   -1.33 kcal/mol
DOCKED: USER    (3) Torsional Free Energy           =   +2.68 kcal/mol
DOCKED: USER    (4) Unbound System's Energy  [=(2)] =   -1.33 kcal/mol
DOCKED: USER    
DOCKED: USER    
DOCKED: USER    NEWDPF move ligand.dum.pdbqt
DOCKED: USER    NEWDPF about -0.037000 -0.159000 0.371000
DOCKED: USER    NEWDPF tran0 39.085935 12.798673 118.495321
DOCKED: USER    NEWDPF quaternion0 -0.498601 0.522858 -0.688510 -0.063013
DOCKED: USER    NEWDPF axisangle0 -0.499594 0.523899 -0.689881 -172.774440
DOCKED: USER    NEWDPF quat0 -0.499594 0.523899 -0.689881 -172.774440
DOCKED: USER    NEWDPF dihe0 12.28 -67.15 -146.92 168.76 9.87 -151.90 8.86 7.88 -106.00 
DOCKED: USER  keepresnum = 1 
DOCKED: USER  
DOCKED: REMARK  Name = 
DOCKED: REMARK  9 active torsions:
DOCKED: REMARK  status: ('A' for Active; 'I' for Inactive)
DOCKED: REMARK    1  A    between atoms: C_2  and  C_10
DOCKED: REMARK    2  A    between atoms: N_3  and  C_4
DOCKED: REMARK    3  A    between atoms: C_10  and  C_11
DOCKED: REMARK    4  A    between atoms: C_11  and  C_12
DOCKED: REMARK    5  A    between atoms: C_12  and  C_13
DOCKED: REMARK    6  A    between atoms: C_13  and  C_14
DOCKED: REMARK    7  A    between atoms: C_14  and  C_15
DOCKED: REMARK    8  A    between atoms: C_15  and  C_16
DOCKED: REMARK    9  A    between atoms: N_17  and  O_18
DOCKED: REMARK                            x       y       z     vdW  Elec       q    Type
DOCKED: REMARK                         _______ _______ _______ _____ _____    ______ ____
DOCKED: USER                              x       y       z     vdW  Elec       q    Type
DOCKED: USER                           _______ _______ _______ _____ _____    ______ ____
DOCKED: ROOT
DOCKED: ATOM      1  C   UNL     1      37.120  13.861 116.944 -0.38 -0.00    +0.000 C 
DOCKED: ENDROOT
DOCKED: BRANCH   1   3
DOCKED: ATOM      2  O   UNL     1      38.236  15.943 117.277 -0.14 -0.00    +0.000 OA
DOCKED: ATOM      3  C   UNL     1      38.243  14.824 116.698 -0.25 -0.00    +0.000 C 
DOCKED: ATOM      4  N   UNL     1      39.312  14.466 115.808 -0.34 -0.00    +0.000 N 
DOCKED: ATOM      5  H   UNL     1      39.203  13.660 115.253 -0.04 -0.00    +0.000 HD
DOCKED: BRANCH   4   6
DOCKED: ATOM      6  C   UNL     1      40.532  15.215 115.681 -0.30 -0.00    +0.000 A 
DOCKED: ATOM      7  C   UNL     1      40.816  15.963 114.522 -0.21 -0.00    +0.000 A 
DOCKED: ATOM      8  C   UNL     1      42.000  16.703 114.435 -0.16 -0.00    +0.000 A 
DOCKED: ATOM      9  C   UNL     1      42.901  16.715 115.503 -0.18 -0.00    +0.000 A 
DOCKED: ATOM     10  C   UNL     1      42.615  15.992 116.664 -0.26 -0.00    +0.000 A 
DOCKED: ATOM     11  C   UNL     1      41.432  15.252 116.757 -0.24 -0.00    +0.000 A 
DOCKED: ATOM     12  CM  UNL     1      41.716  15.973 115.594 +0.00 -0.00    +0.000 AC
DOCKED: ENDBRANCH   4   6
DOCKED: ENDBRANCH   1   3
DOCKED: BRANCH   1  12
DOCKED: ATOM     13  C   UNL     1      37.437  12.968 118.148 -0.36 -0.00    +0.000 C 
DOCKED: BRANCH  12  13
DOCKED: ATOM     14  C   UNL     1      37.297  13.748 119.464 -0.40 -0.00    +0.000 C 
DOCKED: BRANCH  13  14
DOCKED: ATOM     15  C   UNL     1      37.731  12.923 120.686 -0.49 -0.00    +0.000 C 
DOCKED: BRANCH  14  15
DOCKED: ATOM     16  C   UNL     1      36.652  11.920 121.132 -0.46 -0.00    +0.000 C 
DOCKED: BRANCH  15  16
DOCKED: ATOM     17  C   UNL     1      37.059  11.156 122.399 -0.58 -0.00    +0.000 C 
DOCKED: BRANCH  16  17
DOCKED: ATOM     18  C   UNL     1      37.064   9.671 122.177 -0.60 -0.00    +0.000 C 
DOCKED: ATOM     19  N   UNL     1      37.091   8.772 123.288 -0.65 -0.00    +0.000 N 
DOCKED: ATOM     20  O   UNL     1      37.014   9.217 121.002 -2.72 -0.00    +0.000 OA
DOCKED: ATOM     21  H   UNL     1      37.132   9.130 124.204 -0.58 -0.00    +0.000 HD
DOCKED: BRANCH  18  21
DOCKED: ATOM     22  O   UNL     1      37.061   7.433 123.091 -2.21 -0.00    +0.000 OA
DOCKED: ATOM     23  H   UNL     1      37.216   7.241 122.153 -0.12 -0.00    +0.000 HD
DOCKED: ENDBRANCH  18  21
DOCKED: ENDBRANCH  16  17
DOCKED: ENDBRANCH  15  16
DOCKED: ENDBRANCH  14  15
DOCKED: ENDBRANCH  13  14
DOCKED: ENDBRANCH  12  13
DOCKED: ENDBRANCH   1  12
DOCKED: TORSDOF 9DOCKED: TER
DOCKED: ENDMDL
________________________________________________________________________________


	BEGINNING GENETIC ALGORITHM DOCKING 67 of 100
Run: 67 Seed: 1254389901 942257919 [ Run 67 of 100 GA/GALS ]
Beginning LAMARCKIAN GENETIC ALGORITHM (LGA), with a maximum of 2500000 energy evaluations.

Final-Value: -13.520


	FINAL GENETIC ALGORITHM DOCKED STATE
	_______________________________________________


Detailed state:  trans 38.906 12.248 119.278 quatxyzw -0.290188 0.812895 -0.439534 -0.248600 center -0.037 -0.159 0.371 ntor 9 0.7090 -162.2712 61.3410 -5.8434 -111.4446 98.0041 86.4345 -161.2472 -88.8817
State:	 38.906  12.248 119.278  -0.300  0.839 -0.454 -151.211      0.71 -162.27   61.34   -5.84 -111.44   98.00   86.43 -161.25  -88.88

DOCKED: MODEL       67
DOCKED: USER    Run = 67
DOCKED: USER    DPF = ligand_dock.biased.dpf
DOCKED: USER  
DOCKED: USER    Estimated Free Energy of Binding    =   -9.16 kcal/mol  [=(1)+(2)+(3)-(4)]
DOCKED: USER    Estimated Inhibition Constant, Ki   =  191.84 nM (nanomolar)  [Temperature = 298.15 K]
DOCKED: USER    
DOCKED: USER    (1) Final Intermolecular Energy     =  -11.85 kcal/mol
DOCKED: USER        vdW + Hbond + desolv Energy     =  -11.85 kcal/mol
DOCKED: USER        Electrostatic Energy            =   +0.00 kcal/mol
DOCKED: USER    (2) Final Total Internal Energy     =   -1.67 kcal/mol
DOCKED: USER    (3) Torsional Free Energy           =   +2.68 kcal/mol
DOCKED: USER    (4) Unbound System's Energy  [=(2)] =   -1.67 kcal/mol
DOCKED: USER    
DOCKED: USER    
DOCKED: USER    NEWDPF move ligand.dum.pdbqt
DOCKED: USER    NEWDPF about -0.037000 -0.159000 0.371000
DOCKED: USER    NEWDPF tran0 38.905921 12.248294 119.277699
DOCKED: USER    NEWDPF quaternion0 -0.290188 0.812895 -0.439534 -0.248600
DOCKED: USER    NEWDPF axisangle0 -0.299593 0.839242 -0.453780 -151.210636
DOCKED: USER    NEWDPF quat0 -0.299593 0.839242 -0.453780 -151.210636
DOCKED: USER    NEWDPF dihe0 0.71 -162.27 61.34 -5.84 -111.44 98.00 86.43 -161.25 -88.88 
DOCKED: USER  keepresnum = 1 
DOCKED: USER  
DOCKED: REMARK  Name = 
DOCKED: REMARK  9 active torsions:
DOCKED: REMARK  status: ('A' for Active; 'I' for Inactive)
DOCKED: REMARK    1  A    between atoms: C_2  and  C_10
DOCKED: REMARK    2  A    between atoms: N_3  and  C_4
DOCKED: REMARK    3  A    between atoms: C_10  and  C_11
DOCKED: REMARK    4  A    between atoms: C_11  and  C_12
DOCKED: REMARK    5  A    between atoms: C_12  and  C_13
DOCKED: REMARK    6  A    between atoms: C_13  and  C_14
DOCKED: REMARK    7  A    between atoms: C_14  and  C_15
DOCKED: REMARK    8  A    between atoms: C_15  and  C_16
DOCKED: REMARK    9  A    between atoms: N_17  and  O_18
DOCKED: REMARK                            x       y       z     vdW  Elec       q    Type
DOCKED: REMARK                         _______ _______ _______ _____ _____    ______ ____
DOCKED: USER                              x       y       z     vdW  Elec       q    Type
DOCKED: USER                           _______ _______ _______ _____ _____    ______ ____
DOCKED: ROOT
DOCKED: ATOM      1  C   UNL     1      37.562  14.601 119.035 -0.29 -0.00    +0.000 C 
DOCKED: ENDROOT
DOCKED: BRANCH   1   3
DOCKED: ATOM      2  O   UNL     1      39.818  15.375 119.062 -0.16 -0.00    +0.000 OA
DOCKED: ATOM      3  C   UNL     1      38.808  15.044 119.741 -0.21 -0.00    +0.000 C 
DOCKED: ATOM      4  N   UNL     1      38.843  15.089 121.176 -0.27 -0.00    +0.000 N 
DOCKED: ATOM      5  H   UNL     1      38.100  14.673 121.670 -0.00 -0.00    +0.000 HD
DOCKED: BRANCH   4   6
DOCKED: ATOM      6  C   UNL     1      39.897  15.705 121.932 -0.28 -0.00    +0.000 A 
DOCKED: ATOM      7  C   UNL     1      39.762  17.005 122.455 -0.19 -0.00    +0.000 A 
DOCKED: ATOM      8  C   UNL     1      40.795  17.572 123.209 -0.24 -0.00    +0.000 A 
DOCKED: ATOM      9  C   UNL     1      41.962  16.845 123.459 -0.32 -0.00    +0.000 A 
DOCKED: ATOM     10  C   UNL     1      42.095  15.546 122.961 -0.40 +0.00    +0.000 A 
DOCKED: ATOM     11  C   UNL     1      41.064  14.975 122.208 -0.43 -0.00    +0.000 A 
DOCKED: ATOM     12  CM  UNL     1      40.930  16.275 122.704 +0.00 -0.00    +0.000 AC
DOCKED: ENDBRANCH   4   6
DOCKED: ENDBRANCH   1   3
DOCKED: BRANCH   1  12
DOCKED: ATOM     13  C   UNL     1      37.441  13.074 119.075 -0.44 -0.00    +0.000 C 
DOCKED: BRANCH  12  13
DOCKED: ATOM     14  C   UNL     1      36.647  12.615 120.306 -0.36 -0.00    +0.000 C 
DOCKED: BRANCH  13  14
DOCKED: ATOM     15  C   UNL     1      37.557  12.195 121.471 -0.43 -0.00    +0.000 C 
DOCKED: BRANCH  14  15
DOCKED: ATOM     16  C   UNL     1      36.771  11.946 122.771 -0.65 -0.00    +0.000 C 
DOCKED: BRANCH  15  16
DOCKED: ATOM     17  C   UNL     1      35.757  10.802 122.627 -0.66 -0.00    +0.000 C 
DOCKED: BRANCH  16  17
DOCKED: ATOM     18  C   UNL     1      36.433   9.492 122.343 -0.71 -0.00    +0.000 C 
DOCKED: ATOM     19  N   UNL     1      36.641   8.541 123.391 -0.65 -0.00    +0.000 N 
DOCKED: ATOM     20  O   UNL     1      36.792   9.218 121.166 -2.66 -0.00    +0.000 OA
DOCKED: ATOM     21  H   UNL     1      36.361   8.759 124.309 -0.29 -0.00    +0.000 HD
DOCKED: BRANCH  18  21
DOCKED: ATOM     22  O   UNL     1      37.218   7.345 123.130 -2.07 -0.00    +0.000 OA
DOCKED: ATOM     23  H   UNL     1      37.442   7.293 122.188 -0.15 -0.00    +0.000 HD
DOCKED: ENDBRANCH  18  21
DOCKED: ENDBRANCH  16  17
DOCKED: ENDBRANCH  15  16
DOCKED: ENDBRANCH  14  15
DOCKED: ENDBRANCH  13  14
DOCKED: ENDBRANCH  12  13
DOCKED: ENDBRANCH   1  12
DOCKED: TORSDOF 9DOCKED: TER
DOCKED: ENDMDL
________________________________________________________________________________


	BEGINNING GENETIC ALGORITHM DOCKING 68 of 100
Run: 68 Seed: 2062915111 899258941 [ Run 68 of 100 GA/GALS ]
Beginning LAMARCKIAN GENETIC ALGORITHM (LGA), with a maximum of 2500000 energy evaluations.

Final-Value: -13.819


	FINAL GENETIC ALGORITHM DOCKED STATE
	_______________________________________________


Detailed state:  trans 38.428 12.662 120.512 quatxyzw -0.491672 0.337611 -0.312916 0.739162 center -0.037 -0.159 0.371 ntor 9 7.7463 168.5103 -146.0103 55.4055 155.0167 112.6272 72.2346 -149.0365 103.3313
State:	 38.428  12.662 120.512  -0.730  0.501 -0.465 84.680      7.75  168.51 -146.01   55.41  155.02  112.63   72.23 -149.04  103.33

DOCKED: MODEL       68
DOCKED: USER    Run = 68
DOCKED: USER    DPF = ligand_dock.biased.dpf
DOCKED: USER  
DOCKED: USER    Estimated Free Energy of Binding    =   -9.65 kcal/mol  [=(1)+(2)+(3)-(4)]
DOCKED: USER    Estimated Inhibition Constant, Ki   =   84.39 nM (nanomolar)  [Temperature = 298.15 K]
DOCKED: USER    
DOCKED: USER    (1) Final Intermolecular Energy     =  -12.33 kcal/mol
DOCKED: USER        vdW + Hbond + desolv Energy     =  -12.33 kcal/mol
DOCKED: USER        Electrostatic Energy            =   +0.00 kcal/mol
DOCKED: USER    (2) Final Total Internal Energy     =   -1.48 kcal/mol
DOCKED: USER    (3) Torsional Free Energy           =   +2.68 kcal/mol
DOCKED: USER    (4) Unbound System's Energy  [=(2)] =   -1.48 kcal/mol
DOCKED: USER    
DOCKED: USER    
DOCKED: USER    NEWDPF move ligand.dum.pdbqt
DOCKED: USER    NEWDPF about -0.037000 -0.159000 0.371000
DOCKED: USER    NEWDPF tran0 38.428316 12.661658 120.511686
DOCKED: USER    NEWDPF quaternion0 -0.491672 0.337611 -0.312916 0.739162
DOCKED: USER    NEWDPF axisangle0 -0.729996 0.501258 -0.464593 84.679791
DOCKED: USER    NEWDPF quat0 -0.729996 0.501258 -0.464593 84.679791
DOCKED: USER    NEWDPF dihe0 7.75 168.51 -146.01 55.41 155.02 112.63 72.23 -149.04 103.33 
DOCKED: USER  keepresnum = 1 
DOCKED: USER  
DOCKED: REMARK  Name = 
DOCKED: REMARK  9 active torsions:
DOCKED: REMARK  status: ('A' for Active; 'I' for Inactive)
DOCKED: REMARK    1  A    between atoms: C_2  and  C_10
DOCKED: REMARK    2  A    between atoms: N_3  and  C_4
DOCKED: REMARK    3  A    between atoms: C_10  and  C_11
DOCKED: REMARK    4  A    between atoms: C_11  and  C_12
DOCKED: REMARK    5  A    between atoms: C_12  and  C_13
DOCKED: REMARK    6  A    between atoms: C_13  and  C_14
DOCKED: REMARK    7  A    between atoms: C_14  and  C_15
DOCKED: REMARK    8  A    between atoms: C_15  and  C_16
DOCKED: REMARK    9  A    between atoms: N_17  and  O_18
DOCKED: REMARK                            x       y       z     vdW  Elec       q    Type
DOCKED: REMARK                         _______ _______ _______ _____ _____    ______ ____
DOCKED: USER                              x       y       z     vdW  Elec       q    Type
DOCKED: USER                           _______ _______ _______ _____ _____    ______ ____
DOCKED: ROOT
DOCKED: ATOM      1  C   UNL     1      37.197  15.069 120.213 -0.25 -0.00    +0.000 C 
DOCKED: ENDROOT
DOCKED: BRANCH   1   3
DOCKED: ATOM      2  O   UNL     1      35.869  13.939 118.584 -0.36 -0.00    +0.000 OA
DOCKED: ATOM      3  C   UNL     1      36.984  14.459 118.860 -0.32 -0.00    +0.000 C 
DOCKED: ATOM      4  N   UNL     1      38.047  14.469 117.893 -0.24 -0.00    +0.000 N 
DOCKED: ATOM      5  H   UNL     1      38.945  14.733 118.195 -0.10 -0.00    +0.000 HD
DOCKED: BRANCH   4   6
DOCKED: ATOM      6  C   UNL     1      37.874  14.117 116.511 -0.32 -0.00    +0.000 A 
DOCKED: ATOM      7  C   UNL     1      38.395  12.917 115.989 -0.44 -0.00    +0.000 A 
DOCKED: ATOM      8  C   UNL     1      38.191  12.588 114.645 -0.27 -0.00    +0.000 A 
DOCKED: ATOM      9  C   UNL     1      37.457  13.441 113.816 -0.29 -0.00    +0.000 A 
DOCKED: ATOM     10  C   UNL     1      36.919  14.622 114.333 -0.22 -0.00    +0.000 A 
DOCKED: ATOM     11  C   UNL     1      37.119  14.956 115.676 -0.20 -0.00    +0.000 A 
DOCKED: ATOM     12  CM  UNL     1      37.659  13.774 115.161 +0.00 -0.00    +0.000 AC
DOCKED: ENDBRANCH   4   6
DOCKED: ENDBRANCH   1   3
DOCKED: BRANCH   1  12
DOCKED: ATOM     13  C   UNL     1      38.245  14.274 120.998 -0.37 -0.00    +0.000 C 
DOCKED: BRANCH  12  13
DOCKED: ATOM     14  C   UNL     1      37.648  12.971 121.550 -0.49 -0.00    +0.000 C 
DOCKED: BRANCH  13  14
DOCKED: ATOM     15  C   UNL     1      37.526  12.982 123.082 -0.57 -0.00    +0.000 C 
DOCKED: BRANCH  14  15
DOCKED: ATOM     16  C   UNL     1      37.060  11.627 123.645 -0.67 -0.00    +0.000 C 
DOCKED: BRANCH  15  16
DOCKED: ATOM     17  C   UNL     1      36.127  10.886 122.677 -0.69 -0.00    +0.000 C 
DOCKED: BRANCH  16  17
DOCKED: ATOM     18  C   UNL     1      36.636   9.511 122.357 -0.72 -0.00    +0.000 C 
DOCKED: ATOM     19  N   UNL     1      36.602   8.477 123.344 -0.66 -0.00    +0.000 N 
DOCKED: ATOM     20  O   UNL     1      37.068   9.259 121.199 -2.70 -0.00    +0.000 OA
DOCKED: ATOM     21  H   UNL     1      36.266   8.677 124.248 -0.28 -0.00    +0.000 HD
DOCKED: BRANCH  18  21
DOCKED: ATOM     22  O   UNL     1      37.028   7.227 123.047 -2.02 -0.00    +0.000 OA
DOCKED: ATOM     23  H   UNL     1      37.437   7.225 122.168 -0.16 -0.00    +0.000 HD
DOCKED: ENDBRANCH  18  21
DOCKED: ENDBRANCH  16  17
DOCKED: ENDBRANCH  15  16
DOCKED: ENDBRANCH  14  15
DOCKED: ENDBRANCH  13  14
DOCKED: ENDBRANCH  12  13
DOCKED: ENDBRANCH   1  12
DOCKED: TORSDOF 9DOCKED: TER
DOCKED: ENDMDL
________________________________________________________________________________


	BEGINNING GENETIC ALGORITHM DOCKING 69 of 100
Run: 69 Seed: 2050437110 850679258 [ Run 69 of 100 GA/GALS ]
Beginning LAMARCKIAN GENETIC ALGORITHM (LGA), with a maximum of 2500000 energy evaluations.

Final-Value: -13.362


	FINAL GENETIC ALGORITHM DOCKED STATE
	_______________________________________________


Detailed state:  trans 38.468 13.550 121.471 quatxyzw 0.400320 -0.820453 0.408152 0.003642 center -0.037 -0.159 0.371 ntor 9 -12.3462 161.2530 -141.7090 106.6210 60.7573 6.1228 -34.9828 -104.5633 -90.1717
State:	 38.468  13.550 121.471   0.400 -0.820  0.408 179.583    -12.35  161.25 -141.71  106.62   60.76    6.12  -34.98 -104.56  -90.17

DOCKED: MODEL       69
DOCKED: USER    Run = 69
DOCKED: USER    DPF = ligand_dock.biased.dpf
DOCKED: USER  
DOCKED: USER    Estimated Free Energy of Binding    =   -9.31 kcal/mol  [=(1)+(2)+(3)-(4)]
DOCKED: USER    Estimated Inhibition Constant, Ki   =  149.41 nM (nanomolar)  [Temperature = 298.15 K]
DOCKED: USER    
DOCKED: USER    (1) Final Intermolecular Energy     =  -12.00 kcal/mol
DOCKED: USER        vdW + Hbond + desolv Energy     =  -12.00 kcal/mol
DOCKED: USER        Electrostatic Energy            =   +0.00 kcal/mol
DOCKED: USER    (2) Final Total Internal Energy     =   -1.37 kcal/mol
DOCKED: USER    (3) Torsional Free Energy           =   +2.68 kcal/mol
DOCKED: USER    (4) Unbound System's Energy  [=(2)] =   -1.37 kcal/mol
DOCKED: USER    
DOCKED: USER    
DOCKED: USER    NEWDPF move ligand.dum.pdbqt
DOCKED: USER    NEWDPF about -0.037000 -0.159000 0.371000
DOCKED: USER    NEWDPF tran0 38.467926 13.550464 121.470958
DOCKED: USER    NEWDPF quaternion0 0.400320 -0.820453 0.408152 0.003642
DOCKED: USER    NEWDPF axisangle0 0.400323 -0.820458 0.408155 179.582697
DOCKED: USER    NEWDPF quat0 0.400323 -0.820458 0.408155 179.582697
DOCKED: USER    NEWDPF dihe0 -12.35 161.25 -141.71 106.62 60.76 6.12 -34.98 -104.56 -90.17 
DOCKED: USER  keepresnum = 1 
DOCKED: USER  
DOCKED: REMARK  Name = 
DOCKED: REMARK  9 active torsions:
DOCKED: REMARK  status: ('A' for Active; 'I' for Inactive)
DOCKED: REMARK    1  A    between atoms: C_2  and  C_10
DOCKED: REMARK    2  A    between atoms: N_3  and  C_4
DOCKED: REMARK    3  A    between atoms: C_10  and  C_11
DOCKED: REMARK    4  A    between atoms: C_11  and  C_12
DOCKED: REMARK    5  A    between atoms: C_12  and  C_13
DOCKED: REMARK    6  A    between atoms: C_13  and  C_14
DOCKED: REMARK    7  A    between atoms: C_14  and  C_15
DOCKED: REMARK    8  A    between atoms: C_15  and  C_16
DOCKED: REMARK    9  A    between atoms: N_17  and  O_18
DOCKED: REMARK                            x       y       z     vdW  Elec       q    Type
DOCKED: REMARK                         _______ _______ _______ _____ _____    ______ ____
DOCKED: USER                              x       y       z     vdW  Elec       q    Type
DOCKED: USER                           _______ _______ _______ _____ _____    ______ ____
DOCKED: ROOT
DOCKED: ATOM      1  C   UNL     1      37.155  15.929 121.600 -0.24 -0.00    +0.000 C 
DOCKED: ENDROOT
DOCKED: BRANCH   1   3
DOCKED: ATOM      2  O   UNL     1      38.861  17.442 120.897 -0.09 -0.00    +0.000 OA
DOCKED: ATOM      3  C   UNL     1      38.581  16.384 121.523 -0.19 -0.00    +0.000 C 
DOCKED: ATOM      4  N   UNL     1      39.614  15.614 122.159 -0.29 -0.00    +0.000 N 
DOCKED: ATOM      5  H   UNL     1      39.384  14.718 122.495 -0.02 -0.00    +0.000 HD
DOCKED: BRANCH   4   6
DOCKED: ATOM      6  C   UNL     1      40.964  16.076 122.333 -0.33 -0.00    +0.000 A 
DOCKED: ATOM      7  C   UNL     1      42.014  15.595 121.528 -0.31 -0.00    +0.000 A 
DOCKED: ATOM      8  C   UNL     1      43.314  16.080 121.703 -0.28 -0.00    +0.000 A 
DOCKED: ATOM      9  C   UNL     1      43.576  17.055 122.669 -0.33 -0.00    +0.000 A 
DOCKED: ATOM     10  C   UNL     1      42.534  17.553 123.457 -0.23 -0.00    +0.000 A 
DOCKED: ATOM     11  C   UNL     1      41.233  17.072 123.285 -0.31 -0.00    +0.000 A 
DOCKED: ATOM     12  CM  UNL     1      42.273  16.572 122.496 +0.00 -0.00    +0.000 AC
DOCKED: ENDBRANCH   4   6
DOCKED: ENDBRANCH   1   3
DOCKED: BRANCH   1  12
DOCKED: ATOM     13  C   UNL     1      37.088  14.430 121.908 -0.38 -0.00    +0.000 C 
DOCKED: BRANCH  12  13
DOCKED: ATOM     14  C   UNL     1      37.054  14.180 123.423 -0.50 -0.00    +0.000 C 
DOCKED: BRANCH  13  14
DOCKED: ATOM     15  C   UNL     1      36.113  13.027 123.808 -0.61 -0.00    +0.000 C 
DOCKED: BRANCH  14  15
DOCKED: ATOM     16  C   UNL     1      36.749  11.645 123.573 -0.70 -0.00    +0.000 C 
DOCKED: BRANCH  15  16
DOCKED: ATOM     17  C   UNL     1      35.872  10.745 122.693 -0.68 -0.00    +0.000 C 
DOCKED: BRANCH  16  17
DOCKED: ATOM     18  C   UNL     1      36.547   9.440 122.382 -0.72 -0.00    +0.000 C 
DOCKED: ATOM     19  N   UNL     1      36.857   8.518 123.430 -0.66 -0.00    +0.000 N 
DOCKED: ATOM     20  O   UNL     1      36.814   9.145 121.186 -2.66 -0.00    +0.000 OA
DOCKED: ATOM     21  H   UNL     1      36.649   8.752 124.363 -0.38 -0.00    +0.000 HD
DOCKED: BRANCH  18  21
DOCKED: ATOM     22  O   UNL     1      37.435   7.326 123.148 -1.92 -0.00    +0.000 OA
DOCKED: ATOM     23  H   UNL     1      37.395   7.165 122.193 -0.17 -0.00    +0.000 HD
DOCKED: ENDBRANCH  18  21
DOCKED: ENDBRANCH  16  17
DOCKED: ENDBRANCH  15  16
DOCKED: ENDBRANCH  14  15
DOCKED: ENDBRANCH  13  14
DOCKED: ENDBRANCH  12  13
DOCKED: ENDBRANCH   1  12
DOCKED: TORSDOF 9DOCKED: TER
DOCKED: ENDMDL
________________________________________________________________________________


	BEGINNING GENETIC ALGORITHM DOCKING 70 of 100
Run: 70 Seed: 591954554 1680648113 [ Run 70 of 100 GA/GALS ]
Beginning LAMARCKIAN GENETIC ALGORITHM (LGA), with a maximum of 2500000 energy evaluations.

Final-Value: -14.019


	FINAL GENETIC ALGORITHM DOCKED STATE
	_______________________________________________


Detailed state:  trans 36.979 15.532 123.917 quatxyzw -0.486885 0.593292 -0.145396 -0.624346 center -0.037 -0.159 0.371 ntor 9 7.9911 45.5824 -11.7629 50.2055 -18.9513 -149.0133 -13.3980 168.2290 -116.1537
State:	 36.979  15.532 123.917  -0.623  0.760 -0.186 -102.732      7.99   45.58  -11.76   50.21  -18.95 -149.01  -13.40  168.23 -116.15

DOCKED: MODEL       70
DOCKED: USER    Run = 70
DOCKED: USER    DPF = ligand_dock.biased.dpf
DOCKED: USER  
DOCKED: USER    Estimated Free Energy of Binding    =  -10.05 kcal/mol  [=(1)+(2)+(3)-(4)]
DOCKED: USER    Estimated Inhibition Constant, Ki   =   42.99 nM (nanomolar)  [Temperature = 298.15 K]
DOCKED: USER    
DOCKED: USER    (1) Final Intermolecular Energy     =  -12.73 kcal/mol
DOCKED: USER        vdW + Hbond + desolv Energy     =  -12.73 kcal/mol
DOCKED: USER        Electrostatic Energy            =   +0.00 kcal/mol
DOCKED: USER    (2) Final Total Internal Energy     =   -1.28 kcal/mol
DOCKED: USER    (3) Torsional Free Energy           =   +2.68 kcal/mol
DOCKED: USER    (4) Unbound System's Energy  [=(2)] =   -1.28 kcal/mol
DOCKED: USER    
DOCKED: USER    
DOCKED: USER    NEWDPF move ligand.dum.pdbqt
DOCKED: USER    NEWDPF about -0.037000 -0.159000 0.371000
DOCKED: USER    NEWDPF tran0 36.979448 15.531630 123.917384
DOCKED: USER    NEWDPF quaternion0 -0.486885 0.593292 -0.145396 -0.624346
DOCKED: USER    NEWDPF axisangle0 -0.623294 0.759513 -0.186131 -102.731538
DOCKED: USER    NEWDPF quat0 -0.623294 0.759513 -0.186131 -102.731538
DOCKED: USER    NEWDPF dihe0 7.99 45.58 -11.76 50.21 -18.95 -149.01 -13.40 168.23 -116.15 
DOCKED: USER  keepresnum = 1 
DOCKED: USER  
DOCKED: REMARK  Name = 
DOCKED: REMARK  9 active torsions:
DOCKED: REMARK  status: ('A' for Active; 'I' for Inactive)
DOCKED: REMARK    1  A    between atoms: C_2  and  C_10
DOCKED: REMARK    2  A    between atoms: N_3  and  C_4
DOCKED: REMARK    3  A    between atoms: C_10  and  C_11
DOCKED: REMARK    4  A    between atoms: C_11  and  C_12
DOCKED: REMARK    5  A    between atoms: C_12  and  C_13
DOCKED: REMARK    6  A    between atoms: C_13  and  C_14
DOCKED: REMARK    7  A    between atoms: C_14  and  C_15
DOCKED: REMARK    8  A    between atoms: C_15  and  C_16
DOCKED: REMARK    9  A    between atoms: N_17  and  O_18
DOCKED: REMARK                            x       y       z     vdW  Elec       q    Type
DOCKED: REMARK                         _______ _______ _______ _____ _____    ______ ____
DOCKED: USER                              x       y       z     vdW  Elec       q    Type
DOCKED: USER                           _______ _______ _______ _____ _____    ______ ____
DOCKED: ROOT
DOCKED: ATOM      1  C   UNL     1      34.325  15.868 123.428 -0.47 -0.00    +0.000 C 
DOCKED: ENDROOT
DOCKED: BRANCH   1   3
DOCKED: ATOM      2  O   UNL     1      35.299  17.553 124.809 -0.34 -0.00    +0.000 OA
DOCKED: ATOM      3  C   UNL     1      34.480  16.598 124.729 -0.50 -0.00    +0.000 C 
DOCKED: ATOM      4  N   UNL     1      33.700  16.205 125.869 -0.48 -0.00    +0.000 N 
DOCKED: ATOM      5  H   UNL     1      33.196  15.360 125.818 -0.13 -0.00    +0.000 HD
DOCKED: BRANCH   4   6
DOCKED: ATOM      6  C   UNL     1      33.611  16.972 127.081 -0.36 -0.00    +0.000 A 
DOCKED: ATOM      7  C   UNL     1      33.820  18.364 127.085 -0.24 -0.00    +0.000 A 
DOCKED: ATOM      8  C   UNL     1      33.702  19.090 128.274 -0.12 -0.00    +0.000 A 
DOCKED: ATOM      9  C   UNL     1      33.363  18.440 129.463 -0.11 -0.00    +0.000 A 
DOCKED: ATOM     10  C   UNL     1      33.133  17.061 129.463 -0.26 -0.00    +0.000 A 
DOCKED: ATOM     11  C   UNL     1      33.247  16.331 128.276 -0.36 -0.00    +0.000 A 
DOCKED: ATOM     12  CM  UNL     1      33.479  17.710 128.274 +0.00 -0.00    +0.000 AC
DOCKED: ENDBRANCH   4   6
DOCKED: ENDBRANCH   1   3
DOCKED: BRANCH   1  12
DOCKED: ATOM     13  C   UNL     1      35.564  15.014 123.145 -0.37 -0.00    +0.000 C 
DOCKED: BRANCH  12  13
DOCKED: ATOM     14  C   UNL     1      35.730  13.914 124.205 -0.43 -0.00    +0.000 C 
DOCKED: BRANCH  13  14
DOCKED: ATOM     15  C   UNL     1      36.683  12.797 123.751 -0.60 -0.00    +0.000 C 
DOCKED: BRANCH  14  15
DOCKED: ATOM     16  C   UNL     1      36.031  11.846 122.731 -0.62 -0.00    +0.000 C 
DOCKED: BRANCH  15  16
DOCKED: ATOM     17  C   UNL     1      37.069  11.164 121.829 -0.54 -0.00    +0.000 C 
DOCKED: BRANCH  16  17
DOCKED: ATOM     18  C   UNL     1      37.037   9.670 121.975 -0.60 -0.00    +0.000 C 
DOCKED: ATOM     19  N   UNL     1      37.117   9.066 123.268 -0.60 -0.00    +0.000 N 
DOCKED: ATOM     20  O   UNL     1      36.909   8.946 120.951 -2.67 -0.00    +0.000 OA
DOCKED: ATOM     21  H   UNL     1      37.220   9.634 124.066 -0.55 -0.00    +0.000 HD
DOCKED: BRANCH  18  21
DOCKED: ATOM     22  O   UNL     1      37.054   7.720 123.405 -2.29 -0.00    +0.000 OA
DOCKED: ATOM     23  H   UNL     1      37.081   7.305 122.529 -0.09 -0.00    +0.000 HD
DOCKED: ENDBRANCH  18  21
DOCKED: ENDBRANCH  16  17
DOCKED: ENDBRANCH  15  16
DOCKED: ENDBRANCH  14  15
DOCKED: ENDBRANCH  13  14
DOCKED: ENDBRANCH  12  13
DOCKED: ENDBRANCH   1  12
DOCKED: TORSDOF 9DOCKED: TER
DOCKED: ENDMDL
________________________________________________________________________________


	BEGINNING GENETIC ALGORITHM DOCKING 71 of 100
Run: 71 Seed: 1828303419 1582583228 [ Run 71 of 100 GA/GALS ]
Beginning LAMARCKIAN GENETIC ALGORITHM (LGA), with a maximum of 2500000 energy evaluations.

Final-Value: -13.907


	FINAL GENETIC ALGORITHM DOCKED STATE
	_______________________________________________


Detailed state:  trans 35.927 13.322 121.408 quatxyzw 0.459269 0.348414 -0.613595 -0.539612 center -0.037 -0.159 0.371 ntor 9 -9.1084 -179.4117 -119.4826 35.4277 -162.4007 91.6857 165.2343 -138.8580 118.1476
State:	 35.927  13.322 121.408   0.546  0.414 -0.729 -114.686     -9.11 -179.41 -119.48   35.43 -162.40   91.69  165.23 -138.86  118.15

DOCKED: MODEL       71
DOCKED: USER    Run = 71
DOCKED: USER    DPF = ligand_dock.biased.dpf
DOCKED: USER  
DOCKED: USER    Estimated Free Energy of Binding    =   -9.76 kcal/mol  [=(1)+(2)+(3)-(4)]
DOCKED: USER    Estimated Inhibition Constant, Ki   =   69.65 nM (nanomolar)  [Temperature = 298.15 K]
DOCKED: USER    
DOCKED: USER    (1) Final Intermolecular Energy     =  -12.45 kcal/mol
DOCKED: USER        vdW + Hbond + desolv Energy     =  -12.45 kcal/mol
DOCKED: USER        Electrostatic Energy            =   +0.00 kcal/mol
DOCKED: USER    (2) Final Total Internal Energy     =   -1.46 kcal/mol
DOCKED: USER    (3) Torsional Free Energy           =   +2.68 kcal/mol
DOCKED: USER    (4) Unbound System's Energy  [=(2)] =   -1.46 kcal/mol
DOCKED: USER    
DOCKED: USER    
DOCKED: USER    NEWDPF move ligand.dum.pdbqt
DOCKED: USER    NEWDPF about -0.037000 -0.159000 0.371000
DOCKED: USER    NEWDPF tran0 35.926573 13.321619 121.408204
DOCKED: USER    NEWDPF quaternion0 0.459269 0.348414 -0.613595 -0.539612
DOCKED: USER    NEWDPF axisangle0 0.545506 0.413836 -0.728809 -114.685597
DOCKED: USER    NEWDPF quat0 0.545506 0.413836 -0.728809 -114.685597
DOCKED: USER    NEWDPF dihe0 -9.11 -179.41 -119.48 35.43 -162.40 91.69 165.23 -138.86 118.15 
DOCKED: USER  keepresnum = 1 
DOCKED: USER  
DOCKED: REMARK  Name = 
DOCKED: REMARK  9 active torsions:
DOCKED: REMARK  status: ('A' for Active; 'I' for Inactive)
DOCKED: REMARK    1  A    between atoms: C_2  and  C_10
DOCKED: REMARK    2  A    between atoms: N_3  and  C_4
DOCKED: REMARK    3  A    between atoms: C_10  and  C_11
DOCKED: REMARK    4  A    between atoms: C_11  and  C_12
DOCKED: REMARK    5  A    between atoms: C_12  and  C_13
DOCKED: REMARK    6  A    between atoms: C_13  and  C_14
DOCKED: REMARK    7  A    between atoms: C_14  and  C_15
DOCKED: REMARK    8  A    between atoms: C_15  and  C_16
DOCKED: REMARK    9  A    between atoms: N_17  and  O_18
DOCKED: REMARK                            x       y       z     vdW  Elec       q    Type
DOCKED: REMARK                         _______ _______ _______ _____ _____    ______ ____
DOCKED: USER                              x       y       z     vdW  Elec       q    Type
DOCKED: USER                           _______ _______ _______ _____ _____    ______ ____
DOCKED: ROOT
DOCKED: ATOM      1  C   UNL     1      37.887  15.207 121.407 -0.29 -0.00    +0.000 C 
DOCKED: ENDROOT
DOCKED: BRANCH   1   3
DOCKED: ATOM      2  O   UNL     1      37.664  15.390 123.776 -0.37 -0.00    +0.000 OA
DOCKED: ATOM      3  C   UNL     1      37.129  15.571 122.649 -0.35 -0.00    +0.000 C 
DOCKED: ATOM      4  N   UNL     1      35.805  16.119 122.546 -0.29 -0.00    +0.000 N 
DOCKED: ATOM      5  H   UNL     1      35.361  16.094 121.668 -0.01 -0.00    +0.000 HD
DOCKED: BRANCH   4   6
DOCKED: ATOM      6  C   UNL     1      35.092  16.702 123.649 -0.39 -0.00    +0.000 A 
DOCKED: ATOM      7  C   UNL     1      34.394  15.904 124.575 -0.51 -0.00    +0.000 A 
DOCKED: ATOM      8  C   UNL     1      33.729  16.495 125.654 -0.31 -0.00    +0.000 A 
DOCKED: ATOM      9  C   UNL     1      33.765  17.881 125.826 -0.34 -0.00    +0.000 A 
DOCKED: ATOM     10  C   UNL     1      34.474  18.678 124.923 -0.27 -0.00    +0.000 A 
DOCKED: ATOM     11  C   UNL     1      35.142  18.091 123.844 -0.29 -0.00    +0.000 A 
DOCKED: ATOM     12  CM  UNL     1      34.433  17.292 124.745 -0.33 -0.00    +0.000 AC
DOCKED: ENDBRANCH   4   6
DOCKED: ENDBRANCH   1   3
DOCKED: BRANCH   1  12
DOCKED: ATOM     13  C   UNL     1      37.076  14.226 120.555 -0.30 -0.00    +0.000 C 
DOCKED: BRANCH  12  13
DOCKED: ATOM     14  C   UNL     1      36.821  12.916 121.315 -0.43 -0.00    +0.000 C 
DOCKED: BRANCH  13  14
DOCKED: ATOM     15  C   UNL     1      37.781  12.726 122.500 -0.37 -0.00    +0.000 C 
DOCKED: BRANCH  14  15
DOCKED: ATOM     16  C   UNL     1      37.304  11.633 123.474 -0.53 -0.00    +0.000 C 
DOCKED: BRANCH  15  16
DOCKED: ATOM     17  C   UNL     1      36.139  10.814 122.901 -0.69 -0.00    +0.000 C 
DOCKED: BRANCH  16  17
DOCKED: ATOM     18  C   UNL     1      36.587   9.457 122.439 -0.72 -0.00    +0.000 C 
DOCKED: ATOM     19  N   UNL     1      36.714   8.380 123.371 -0.68 -0.00    +0.000 N 
DOCKED: ATOM     20  O   UNL     1      36.823   9.262 121.216 -2.62 -0.00    +0.000 OA
DOCKED: ATOM     21  H   UNL     1      36.531   8.536 124.325 -0.33 -0.00    +0.000 HD
DOCKED: BRANCH  18  21
DOCKED: ATOM     22  O   UNL     1      37.084   7.147 122.950 -1.89 -0.00    +0.000 OA
DOCKED: ATOM     23  H   UNL     1      37.085   7.123 121.981 -0.12 -0.00    +0.000 HD
DOCKED: ENDBRANCH  18  21
DOCKED: ENDBRANCH  16  17
DOCKED: ENDBRANCH  15  16
DOCKED: ENDBRANCH  14  15
DOCKED: ENDBRANCH  13  14
DOCKED: ENDBRANCH  12  13
DOCKED: ENDBRANCH   1  12
DOCKED: TORSDOF 9DOCKED: TER
DOCKED: ENDMDL
________________________________________________________________________________


	BEGINNING GENETIC ALGORITHM DOCKING 72 of 100
Run: 72 Seed: 1894459927 1940022414 [ Run 72 of 100 GA/GALS ]
Beginning LAMARCKIAN GENETIC ALGORITHM (LGA), with a maximum of 2500000 energy evaluations.

Final-Value: -14.093


	FINAL GENETIC ALGORITHM DOCKED STATE
	_______________________________________________


Detailed state:  trans 36.949 16.019 123.174 quatxyzw -0.095001 0.387522 0.900077 0.175110 center -0.037 -0.159 0.371 ntor 9 28.2229 95.9899 -171.6317 27.2385 -70.6747 -172.0256 142.5651 106.6107 34.7586
State:	 36.949  16.019 123.174  -0.096  0.394  0.914 159.830     28.22   95.99 -171.63   27.24  -70.67 -172.03  142.57  106.61   34.76

DOCKED: MODEL       72
DOCKED: USER    Run = 72
DOCKED: USER    DPF = ligand_dock.biased.dpf
DOCKED: USER  
DOCKED: USER    Estimated Free Energy of Binding    =  -10.14 kcal/mol  [=(1)+(2)+(3)-(4)]
DOCKED: USER    Estimated Inhibition Constant, Ki   =   36.81 nM (nanomolar)  [Temperature = 298.15 K]
DOCKED: USER    
DOCKED: USER    (1) Final Intermolecular Energy     =  -12.83 kcal/mol
DOCKED: USER        vdW + Hbond + desolv Energy     =  -12.83 kcal/mol
DOCKED: USER        Electrostatic Energy            =   +0.00 kcal/mol
DOCKED: USER    (2) Final Total Internal Energy     =   -1.27 kcal/mol
DOCKED: USER    (3) Torsional Free Energy           =   +2.68 kcal/mol
DOCKED: USER    (4) Unbound System's Energy  [=(2)] =   -1.27 kcal/mol
DOCKED: USER    
DOCKED: USER    
DOCKED: USER    NEWDPF move ligand.dum.pdbqt
DOCKED: USER    NEWDPF about -0.037000 -0.159000 0.371000
DOCKED: USER    NEWDPF tran0 36.948664 16.019347 123.173658
DOCKED: USER    NEWDPF quaternion0 -0.095001 0.387522 0.900077 0.175110
DOCKED: USER    NEWDPF axisangle0 -0.096491 0.393603 0.914202 159.829921
DOCKED: USER    NEWDPF quat0 -0.096491 0.393603 0.914202 159.829921
DOCKED: USER    NEWDPF dihe0 28.22 95.99 -171.63 27.24 -70.67 -172.03 142.57 106.61 34.76 
DOCKED: USER  keepresnum = 1 
DOCKED: USER  
DOCKED: REMARK  Name = 
DOCKED: REMARK  9 active torsions:
DOCKED: REMARK  status: ('A' for Active; 'I' for Inactive)
DOCKED: REMARK    1  A    between atoms: C_2  and  C_10
DOCKED: REMARK    2  A    between atoms: N_3  and  C_4
DOCKED: REMARK    3  A    between atoms: C_10  and  C_11
DOCKED: REMARK    4  A    between atoms: C_11  and  C_12
DOCKED: REMARK    5  A    between atoms: C_12  and  C_13
DOCKED: REMARK    6  A    between atoms: C_13  and  C_14
DOCKED: REMARK    7  A    between atoms: C_14  and  C_15
DOCKED: REMARK    8  A    between atoms: C_15  and  C_16
DOCKED: REMARK    9  A    between atoms: N_17  and  O_18
DOCKED: REMARK                            x       y       z     vdW  Elec       q    Type
DOCKED: REMARK                         _______ _______ _______ _____ _____    ______ ____
DOCKED: USER                              x       y       z     vdW  Elec       q    Type
DOCKED: USER                           _______ _______ _______ _____ _____    ______ ____
DOCKED: ROOT
DOCKED: ATOM      1  C   UNL     1      38.567  13.847 122.925 -0.37 -0.00    +0.000 C 
DOCKED: ENDROOT
DOCKED: BRANCH   1   3
DOCKED: ATOM      2  O   UNL     1      39.083  16.144 122.538 -0.27 -0.00    +0.000 OA
DOCKED: ATOM      3  C   UNL     1      39.515  14.960 122.594 -0.40 -0.00    +0.000 C 
DOCKED: ATOM      4  N   UNL     1      40.899  14.673 122.343 -0.48 -0.00    +0.000 N 
DOCKED: ATOM      5  H   UNL     1      41.165  13.731 122.235 -0.04 +0.00    +0.000 HD
DOCKED: BRANCH   4   6
DOCKED: ATOM      6  C   UNL     1      41.920  15.679 122.240 -0.41 -0.00    +0.000 A 
DOCKED: ATOM      7  C   UNL     1      42.874  15.653 121.206 -0.26 -0.00    +0.000 A 
DOCKED: ATOM      8  C   UNL     1      43.842  16.659 121.115 -0.22 -0.00    +0.000 A 
DOCKED: ATOM      9  C   UNL     1      43.858  17.703 122.044 -0.22 -0.00    +0.000 A 
DOCKED: ATOM     10  C   UNL     1      42.901  17.746 123.061 -0.24 -0.00    +0.000 A 
DOCKED: ATOM     11  C   UNL     1      41.931  16.744 123.155 -0.36 -0.00    +0.000 A 
DOCKED: ATOM     12  CM  UNL     1      42.888  16.698 122.137 +0.00 -0.00    +0.000 AC
DOCKED: ENDBRANCH   4   6
DOCKED: ENDBRANCH   1   3
DOCKED: BRANCH   1  12
DOCKED: ATOM     13  C   UNL     1      37.122  14.355 122.912 -0.48 -0.00    +0.000 C 
DOCKED: BRANCH  12  13
DOCKED: ATOM     14  C   UNL     1      36.278  13.645 123.981 -0.46 -0.00    +0.000 C 
DOCKED: BRANCH  13  14
DOCKED: ATOM     15  C   UNL     1      36.583  12.142 124.070 -0.57 -0.00    +0.000 C 
DOCKED: BRANCH  14  15
DOCKED: ATOM     16  C   UNL     1      35.554  11.287 123.309 -0.57 -0.00    +0.000 C 
DOCKED: BRANCH  15  16
DOCKED: ATOM     17  C   UNL     1      36.093  10.796 121.958 -0.55 -0.00    +0.000 C 
DOCKED: BRANCH  16  17
DOCKED: ATOM     18  C   UNL     1      36.653   9.406 122.054 -0.70 -0.00    +0.000 C 
DOCKED: ATOM     19  N   UNL     1      36.669   8.716 123.307 -0.64 -0.00    +0.000 N 
DOCKED: ATOM     20  O   UNL     1      37.083   8.834 121.016 -2.68 -0.00    +0.000 OA
DOCKED: ATOM     21  H   UNL     1      36.334   9.166 124.116 -0.34 -0.00    +0.000 HD
DOCKED: BRANCH  18  21
DOCKED: ATOM     22  O   UNL     1      37.141   7.450 123.389 -2.14 -0.00    +0.000 OA
DOCKED: ATOM     23  H   UNL     1      37.805   7.307 122.697 -0.40 -0.00    +0.000 HD
DOCKED: ENDBRANCH  18  21
DOCKED: ENDBRANCH  16  17
DOCKED: ENDBRANCH  15  16
DOCKED: ENDBRANCH  14  15
DOCKED: ENDBRANCH  13  14
DOCKED: ENDBRANCH  12  13
DOCKED: ENDBRANCH   1  12
DOCKED: TORSDOF 9DOCKED: TER
DOCKED: ENDMDL
________________________________________________________________________________


	BEGINNING GENETIC ALGORITHM DOCKING 73 of 100
Run: 73 Seed: 1949857012 1259577921 [ Run 73 of 100 GA/GALS ]
Beginning LAMARCKIAN GENETIC ALGORITHM (LGA), with a maximum of 2500000 energy evaluations.

Final-Value: -13.093


	FINAL GENETIC ALGORITHM DOCKED STATE
	_______________________________________________


Detailed state:  trans 35.674 12.980 121.851 quatxyzw -0.167265 0.842271 0.166259 0.484726 center -0.037 -0.159 0.371 ntor 9 148.0220 -148.0492 74.3149 27.7055 9.3785 -165.5563 68.2006 -22.1217 -84.9438
State:	 35.674  12.980 121.851  -0.191  0.963  0.190 122.011    148.02 -148.05   74.31   27.71    9.38 -165.56   68.20  -22.12  -84.94

DOCKED: MODEL       73
DOCKED: USER    Run = 73
DOCKED: USER    DPF = ligand_dock.biased.dpf
DOCKED: USER  
DOCKED: USER    Estimated Free Energy of Binding    =   -9.44 kcal/mol  [=(1)+(2)+(3)-(4)]
DOCKED: USER    Estimated Inhibition Constant, Ki   =  119.78 nM (nanomolar)  [Temperature = 298.15 K]
DOCKED: USER    
DOCKED: USER    (1) Final Intermolecular Energy     =  -12.13 kcal/mol
DOCKED: USER        vdW + Hbond + desolv Energy     =  -12.13 kcal/mol
DOCKED: USER        Electrostatic Energy            =   +0.00 kcal/mol
DOCKED: USER    (2) Final Total Internal Energy     =   -0.97 kcal/mol
DOCKED: USER    (3) Torsional Free Energy           =   +2.68 kcal/mol
DOCKED: USER    (4) Unbound System's Energy  [=(2)] =   -0.97 kcal/mol
DOCKED: USER    
DOCKED: USER    
DOCKED: USER    NEWDPF move ligand.dum.pdbqt
DOCKED: USER    NEWDPF about -0.037000 -0.159000 0.371000
DOCKED: USER    NEWDPF tran0 35.674440 12.980174 121.851171
DOCKED: USER    NEWDPF quaternion0 -0.167265 0.842271 0.166259 0.484726
DOCKED: USER    NEWDPF axisangle0 -0.191233 0.962963 0.190083 122.010947
DOCKED: USER    NEWDPF quat0 -0.191233 0.962963 0.190083 122.010947
DOCKED: USER    NEWDPF dihe0 148.02 -148.05 74.31 27.71 9.38 -165.56 68.20 -22.12 -84.94 
DOCKED: USER  keepresnum = 1 
DOCKED: USER  
DOCKED: REMARK  Name = 
DOCKED: REMARK  9 active torsions:
DOCKED: REMARK  status: ('A' for Active; 'I' for Inactive)
DOCKED: REMARK    1  A    between atoms: C_2  and  C_10
DOCKED: REMARK    2  A    between atoms: N_3  and  C_4
DOCKED: REMARK    3  A    between atoms: C_10  and  C_11
DOCKED: REMARK    4  A    between atoms: C_11  and  C_12
DOCKED: REMARK    5  A    between atoms: C_12  and  C_13
DOCKED: REMARK    6  A    between atoms: C_13  and  C_14
DOCKED: REMARK    7  A    between atoms: C_14  and  C_15
DOCKED: REMARK    8  A    between atoms: C_15  and  C_16
DOCKED: REMARK    9  A    between atoms: N_17  and  O_18
DOCKED: REMARK                            x       y       z     vdW  Elec       q    Type
DOCKED: REMARK                         _______ _______ _______ _____ _____    ______ ____
DOCKED: USER                              x       y       z     vdW  Elec       q    Type
DOCKED: USER                           _______ _______ _______ _____ _____    ______ ____
DOCKED: ROOT
DOCKED: ATOM      1  C   UNL     1      37.623  14.432 123.074 -0.48 -0.00    +0.000 C 
DOCKED: ENDROOT
DOCKED: BRANCH   1   3
DOCKED: ATOM      2  O   UNL     1      39.335  14.087 121.448 -0.78 -0.00    +0.000 OA
DOCKED: ATOM      3  C   UNL     1      38.129  14.388 121.664 -0.40 -0.00    +0.000 C 
DOCKED: ATOM      4  N   UNL     1      37.243  14.687 120.574 -0.26 -0.00    +0.000 N 
DOCKED: ATOM      5  H   UNL     1      36.362  15.072 120.786 -0.01 -0.00    +0.000 HD
DOCKED: BRANCH   4   6
DOCKED: ATOM      6  C   UNL     1      37.566  14.456 119.193 -0.27 -0.00    +0.000 A 
DOCKED: ATOM      7  C   UNL     1      36.902  13.471 118.438 -0.37 -0.00    +0.000 A 
DOCKED: ATOM      8  C   UNL     1      37.219  13.284 117.089 -0.35 -0.00    +0.000 A 
DOCKED: ATOM      9  C   UNL     1      38.188  14.085 116.479 -0.32 -0.00    +0.000 A 
DOCKED: ATOM     10  C   UNL     1      38.836  15.080 117.216 -0.16 -0.00    +0.000 A 
DOCKED: ATOM     11  C   UNL     1      38.521  15.271 118.564 -0.16 -0.00    +0.000 A 
DOCKED: ATOM     12  CM  UNL     1      37.872  14.275 117.830 +0.00 -0.00    +0.000 AC
DOCKED: ENDBRANCH   4   6
DOCKED: ENDBRANCH   1   3
DOCKED: BRANCH   1  12
DOCKED: ATOM     13  C   UNL     1      36.495  13.414 123.268 -0.59 -0.00    +0.000 C 
DOCKED: BRANCH  12  13
DOCKED: ATOM     14  C   UNL     1      37.036  12.092 123.832 -0.64 -0.00    +0.000 C 
DOCKED: BRANCH  13  14
DOCKED: ATOM     15  C   UNL     1      36.865  10.920 122.852 -0.65 -0.00    +0.000 C 
DOCKED: BRANCH  14  15
DOCKED: ATOM     16  C   UNL     1      35.551  10.150 123.079 -0.64 -0.00    +0.000 C 
DOCKED: BRANCH  15  16
DOCKED: ATOM     17  C   UNL     1      35.418   8.941 122.142 -0.65 -0.00    +0.000 C 
DOCKED: BRANCH  16  17
DOCKED: ATOM     18  C   UNL     1      35.856   7.669 122.809 -0.76 -0.00    +0.000 C 
DOCKED: ATOM     19  N   UNL     1      34.912   6.627 123.071 -0.70 -0.00    +0.000 N 
DOCKED: ATOM     20  O   UNL     1      37.069   7.509 123.112 -2.24 -0.00    +0.000 OA
DOCKED: ATOM     21  H   UNL     1      33.965   6.756 122.834 -0.02 -0.00    +0.000 HD
DOCKED: BRANCH  18  21
DOCKED: ATOM     22  O   UNL     1      35.311   5.465 123.640 -1.05 -0.00    +0.000 OA
DOCKED: ATOM     23  H   UNL     1      34.594   5.111 124.188 -0.61 -0.00    +0.000 HD
DOCKED: ENDBRANCH  18  21
DOCKED: ENDBRANCH  16  17
DOCKED: ENDBRANCH  15  16
DOCKED: ENDBRANCH  14  15
DOCKED: ENDBRANCH  13  14
DOCKED: ENDBRANCH  12  13
DOCKED: ENDBRANCH   1  12
DOCKED: TORSDOF 9DOCKED: TER
DOCKED: ENDMDL
________________________________________________________________________________


	BEGINNING GENETIC ALGORITHM DOCKING 74 of 100
Run: 74 Seed: 309073028 403180741 [ Run 74 of 100 GA/GALS ]
Beginning LAMARCKIAN GENETIC ALGORITHM (LGA), with a maximum of 2500000 energy evaluations.

Final-Value: -12.678


	FINAL GENETIC ALGORITHM DOCKED STATE
	_______________________________________________


Detailed state:  trans 36.459 12.184 122.642 quatxyzw -0.467744 0.811073 -0.169884 0.307433 center -0.037 -0.159 0.371 ntor 9 -173.0958 -66.0656 115.7454 -167.1653 87.1037 63.7223 -25.5220 -144.7612 152.5030
State:	 36.459  12.184 122.642  -0.492  0.852 -0.179 144.191   -173.10  -66.07  115.75 -167.17   87.10   63.72  -25.52 -144.76  152.50

DOCKED: MODEL       74
DOCKED: USER    Run = 74
DOCKED: USER    DPF = ligand_dock.biased.dpf
DOCKED: USER  
DOCKED: USER    Estimated Free Energy of Binding    =   -9.15 kcal/mol  [=(1)+(2)+(3)-(4)]
DOCKED: USER    Estimated Inhibition Constant, Ki   =  196.35 nM (nanomolar)  [Temperature = 298.15 K]
DOCKED: USER    
DOCKED: USER    (1) Final Intermolecular Energy     =  -11.83 kcal/mol
DOCKED: USER        vdW + Hbond + desolv Energy     =  -11.83 kcal/mol
DOCKED: USER        Electrostatic Energy            =   +0.00 kcal/mol
DOCKED: USER    (2) Final Total Internal Energy     =   -0.84 kcal/mol
DOCKED: USER    (3) Torsional Free Energy           =   +2.68 kcal/mol
DOCKED: USER    (4) Unbound System's Energy  [=(2)] =   -0.84 kcal/mol
DOCKED: USER    
DOCKED: USER    
DOCKED: USER    NEWDPF move ligand.dum.pdbqt
DOCKED: USER    NEWDPF about -0.037000 -0.159000 0.371000
DOCKED: USER    NEWDPF tran0 36.458999 12.184456 122.641645
DOCKED: USER    NEWDPF quaternion0 -0.467744 0.811073 -0.169884 0.307433
DOCKED: USER    NEWDPF axisangle0 -0.491550 0.852353 -0.178531 144.190780
DOCKED: USER    NEWDPF quat0 -0.491550 0.852353 -0.178531 144.190780
DOCKED: USER    NEWDPF dihe0 -173.10 -66.07 115.75 -167.17 87.10 63.72 -25.52 -144.76 152.50 
DOCKED: USER  keepresnum = 1 
DOCKED: USER  
DOCKED: REMARK  Name = 
DOCKED: REMARK  9 active torsions:
DOCKED: REMARK  status: ('A' for Active; 'I' for Inactive)
DOCKED: REMARK    1  A    between atoms: C_2  and  C_10
DOCKED: REMARK    2  A    between atoms: N_3  and  C_4
DOCKED: REMARK    3  A    between atoms: C_10  and  C_11
DOCKED: REMARK    4  A    between atoms: C_11  and  C_12
DOCKED: REMARK    5  A    between atoms: C_12  and  C_13
DOCKED: REMARK    6  A    between atoms: C_13  and  C_14
DOCKED: REMARK    7  A    between atoms: C_14  and  C_15
DOCKED: REMARK    8  A    between atoms: C_15  and  C_16
DOCKED: REMARK    9  A    between atoms: N_17  and  O_18
DOCKED: REMARK                            x       y       z     vdW  Elec       q    Type
DOCKED: REMARK                         _______ _______ _______ _____ _____    ______ ____
DOCKED: USER                              x       y       z     vdW  Elec       q    Type
DOCKED: USER                           _______ _______ _______ _____ _____    ______ ____
DOCKED: ROOT
DOCKED: ATOM      1  C   UNL     1      36.035  14.594 123.831 -0.52 -0.00    +0.000 C 
DOCKED: ENDROOT
DOCKED: BRANCH   1   3
DOCKED: ATOM      2  O   UNL     1      36.718  15.574 121.766 -0.28 -0.00    +0.000 OA
DOCKED: ATOM      3  C   UNL     1      37.068  14.950 122.804 -0.42 -0.00    +0.000 C 
DOCKED: ATOM      4  N   UNL     1      38.440  14.578 123.007 -0.41 -0.00    +0.000 N 
DOCKED: ATOM      5  H   UNL     1      38.647  13.955 123.741 -0.04 -0.00    +0.000 HD
DOCKED: BRANCH   4   6
DOCKED: ATOM      6  C   UNL     1      39.528  15.061 122.202 -0.36 -0.00    +0.000 A 
DOCKED: ATOM      7  C   UNL     1      40.836  15.152 122.715 -0.43 -0.00    +0.000 A 
DOCKED: ATOM      8  C   UNL     1      41.881  15.603 121.903 -0.38 -0.00    +0.000 A 
DOCKED: ATOM      9  C   UNL     1      41.635  15.953 120.572 -0.16 -0.00    +0.000 A 
DOCKED: ATOM     10  C   UNL     1      40.344  15.844 120.050 -0.14 -0.00    +0.000 A 
DOCKED: ATOM     11  C   UNL     1      39.296  15.392 120.858 -0.22 -0.00    +0.000 A 
DOCKED: ATOM     12  CM  UNL     1      40.586  15.501 121.383 +0.00 -0.00    +0.000 AC
DOCKED: ENDBRANCH   4   6
DOCKED: ENDBRANCH   1   3
DOCKED: BRANCH   1  12
DOCKED: ATOM     13  C   UNL     1      35.940  13.073 123.987 -0.51 -0.00    +0.000 C 
DOCKED: BRANCH  12  13
DOCKED: ATOM     14  C   UNL     1      36.345  12.360 122.688 -0.62 -0.00    +0.000 C 
DOCKED: BRANCH  13  14
DOCKED: ATOM     15  C   UNL     1      36.948  10.970 122.943 -0.64 -0.00    +0.000 C 
DOCKED: BRANCH  14  15
DOCKED: ATOM     16  C   UNL     1      36.419   9.909 121.962 -0.61 -0.00    +0.000 C 
DOCKED: BRANCH  15  16
DOCKED: ATOM     17  C   UNL     1      35.305   9.052 122.579 -0.68 -0.00    +0.000 C 
DOCKED: BRANCH  16  17
DOCKED: ATOM     18  C   UNL     1      35.829   7.743 123.093 -0.76 -0.00    +0.000 C 
DOCKED: ATOM     19  N   UNL     1      34.934   6.666 123.381 -0.71 -0.00    +0.000 N 
DOCKED: ATOM     20  O   UNL     1      37.071   7.584 123.244 -2.26 -0.00    +0.000 OA
DOCKED: ATOM     21  H   UNL     1      33.965   6.793 123.264 -0.04 -0.00    +0.000 HD
DOCKED: BRANCH  18  21
DOCKED: ATOM     22  O   UNL     1      35.408   5.473 123.812 -1.04 -0.00    +0.000 OA
DOCKED: ATOM     23  H   UNL     1      34.681   4.832 123.852 -0.60 -0.00    +0.000 HD
DOCKED: ENDBRANCH  18  21
DOCKED: ENDBRANCH  16  17
DOCKED: ENDBRANCH  15  16
DOCKED: ENDBRANCH  14  15
DOCKED: ENDBRANCH  13  14
DOCKED: ENDBRANCH  12  13
DOCKED: ENDBRANCH   1  12
DOCKED: TORSDOF 9DOCKED: TER
DOCKED: ENDMDL
________________________________________________________________________________


	BEGINNING GENETIC ALGORITHM DOCKING 75 of 100
Run: 75 Seed: 992436646 578227980 [ Run 75 of 100 GA/GALS ]
Beginning LAMARCKIAN GENETIC ALGORITHM (LGA), with a maximum of 2500000 energy evaluations.

Final-Value: -13.679


	FINAL GENETIC ALGORITHM DOCKED STATE
	_______________________________________________


Detailed state:  trans 35.913 11.733 119.556 quatxyzw 0.686531 0.722735 -0.027761 -0.074553 center -0.037 -0.159 0.371 ntor 9 -6.7676 -136.3704 -165.7297 7.1616 77.9432 100.7840 77.0377 -177.1775 20.7472
State:	 35.913  11.733 119.556   0.688  0.725 -0.028 -171.449     -6.77 -136.37 -165.73    7.16   77.94  100.78   77.04 -177.18   20.75

DOCKED: MODEL       75
DOCKED: USER    Run = 75
DOCKED: USER    DPF = ligand_dock.biased.dpf
DOCKED: USER  
DOCKED: USER    Estimated Free Energy of Binding    =   -9.61 kcal/mol  [=(1)+(2)+(3)-(4)]
DOCKED: USER    Estimated Inhibition Constant, Ki   =   90.06 nM (nanomolar)  [Temperature = 298.15 K]
DOCKED: USER    
DOCKED: USER    (1) Final Intermolecular Energy     =  -12.30 kcal/mol
DOCKED: USER        vdW + Hbond + desolv Energy     =  -12.30 kcal/mol
DOCKED: USER        Electrostatic Energy            =   +0.00 kcal/mol
DOCKED: USER    (2) Final Total Internal Energy     =   -1.38 kcal/mol
DOCKED: USER    (3) Torsional Free Energy           =   +2.68 kcal/mol
DOCKED: USER    (4) Unbound System's Energy  [=(2)] =   -1.38 kcal/mol
DOCKED: USER    
DOCKED: USER    
DOCKED: USER    NEWDPF move ligand.dum.pdbqt
DOCKED: USER    NEWDPF about -0.037000 -0.159000 0.371000
DOCKED: USER    NEWDPF tran0 35.913319 11.732571 119.556076
DOCKED: USER    NEWDPF quaternion0 0.686531 0.722735 -0.027761 -0.074553
DOCKED: USER    NEWDPF axisangle0 0.688447 0.724752 -0.027839 -171.448952
DOCKED: USER    NEWDPF quat0 0.688447 0.724752 -0.027839 -171.448952
DOCKED: USER    NEWDPF dihe0 -6.77 -136.37 -165.73 7.16 77.94 100.78 77.04 -177.18 20.75 
DOCKED: USER  keepresnum = 1 
DOCKED: USER  
DOCKED: REMARK  Name = 
DOCKED: REMARK  9 active torsions:
DOCKED: REMARK  status: ('A' for Active; 'I' for Inactive)
DOCKED: REMARK    1  A    between atoms: C_2  and  C_10
DOCKED: REMARK    2  A    between atoms: N_3  and  C_4
DOCKED: REMARK    3  A    between atoms: C_10  and  C_11
DOCKED: REMARK    4  A    between atoms: C_11  and  C_12
DOCKED: REMARK    5  A    between atoms: C_12  and  C_13
DOCKED: REMARK    6  A    between atoms: C_13  and  C_14
DOCKED: REMARK    7  A    between atoms: C_14  and  C_15
DOCKED: REMARK    8  A    between atoms: C_15  and  C_16
DOCKED: REMARK    9  A    between atoms: N_17  and  O_18
DOCKED: REMARK                            x       y       z     vdW  Elec       q    Type
DOCKED: REMARK                         _______ _______ _______ _____ _____    ______ ____
DOCKED: USER                              x       y       z     vdW  Elec       q    Type
DOCKED: USER                           _______ _______ _______ _____ _____    ______ ____
DOCKED: ROOT
DOCKED: ATOM      1  C   UNL     1      37.386  11.494 121.830 -0.33 -0.00    +0.000 C 
DOCKED: ENDROOT
DOCKED: BRANCH   1   3
DOCKED: ATOM      2  O   UNL     1      37.129   9.320 120.881 -2.61 -0.00    +0.000 OA
DOCKED: ATOM      3  C   UNL     1      36.740  10.143 121.754 -0.50 -0.00    +0.000 C 
DOCKED: ATOM      4  N   UNL     1      35.689   9.798 122.670 -0.60 -0.00    +0.000 N 
DOCKED: ATOM      5  H   UNL     1      35.304  10.514 123.224 -0.14 -0.00    +0.000 HD
DOCKED: BRANCH   4   6
DOCKED: ATOM      6  C   UNL     1      35.167   8.468 122.824 -0.60 -0.00    +0.000 A 
DOCKED: ATOM      7  C   UNL     1      33.784   8.210 122.753 -0.61 -0.00    +0.000 A 
DOCKED: ATOM      8  C   UNL     1      33.305   6.902 122.883 -0.61 -0.00    +0.000 A 
DOCKED: ATOM      9  C   UNL     1      34.197   5.843 123.070 -0.55 -0.00    +0.000 A 
DOCKED: ATOM     10  C   UNL     1      35.572   6.089 123.120 -0.65 -0.00    +0.000 A 
DOCKED: ATOM     11  C   UNL     1      36.056   7.394 122.990 -0.69 -0.00    +0.000 A 
DOCKED: ATOM     12  CM  UNL     1      34.680   7.151 122.940 +0.00 -0.00    +0.000 AC
DOCKED: ENDBRANCH   4   6
DOCKED: ENDBRANCH   1   3
DOCKED: BRANCH   1  12
DOCKED: ATOM     13  C   UNL     1      36.707  12.465 120.860 -0.46 -0.00    +0.000 C 
DOCKED: BRANCH  12  13
DOCKED: ATOM     14  C   UNL     1      37.625  13.653 120.536 -0.42 -0.00    +0.000 C 
DOCKED: BRANCH  13  14
DOCKED: ATOM     15  C   UNL     1      37.173  14.952 121.222 -0.28 -0.00    +0.000 C 
DOCKED: BRANCH  14  15
DOCKED: ATOM     16  C   UNL     1      38.175  16.103 121.020 -0.19 -0.00    +0.000 C 
DOCKED: BRANCH  15  16
DOCKED: ATOM     17  C   UNL     1      38.932  16.446 122.311 -0.24 -0.00    +0.000 C 
DOCKED: BRANCH  16  17
DOCKED: ATOM     18  C   UNL     1      40.001  15.437 122.614 -0.38 -0.00    +0.000 C 
DOCKED: ATOM     19  N   UNL     1      41.351  15.856 122.834 -0.42 -0.00    +0.000 N 
DOCKED: ATOM     20  O   UNL     1      39.699  14.216 122.704 -0.87 -0.00    +0.000 OA
DOCKED: ATOM     21  H   UNL     1      41.584  16.809 122.761 -0.01 -0.00    +0.000 HD
DOCKED: BRANCH  18  21
DOCKED: ATOM     22  O   UNL     1      42.310  14.951 123.142 -1.03 +0.00    +0.000 OA
DOCKED: ATOM     23  H   UNL     1      41.903  14.082 123.280 -0.10 -0.00    +0.000 HD
DOCKED: ENDBRANCH  18  21
DOCKED: ENDBRANCH  16  17
DOCKED: ENDBRANCH  15  16
DOCKED: ENDBRANCH  14  15
DOCKED: ENDBRANCH  13  14
DOCKED: ENDBRANCH  12  13
DOCKED: ENDBRANCH   1  12
DOCKED: TORSDOF 9DOCKED: TER
DOCKED: ENDMDL
________________________________________________________________________________


	BEGINNING GENETIC ALGORITHM DOCKING 76 of 100
Run: 76 Seed: 1490155786 37504259 [ Run 76 of 100 GA/GALS ]
Beginning LAMARCKIAN GENETIC ALGORITHM (LGA), with a maximum of 2500000 energy evaluations.

Final-Value: -13.655


	FINAL GENETIC ALGORITHM DOCKED STATE
	_______________________________________________


Detailed state:  trans 35.794 14.468 121.243 quatxyzw 0.102822 0.590994 0.566118 0.565388 center -0.037 -0.159 0.371 ntor 9 -9.6533 154.1393 -118.1304 -24.3465 -55.8838 -141.4910 79.2624 -117.1447 9.9255
State:	 35.794  14.468 121.243   0.125  0.717  0.686 111.142     -9.65  154.14 -118.13  -24.35  -55.88 -141.49   79.26 -117.14    9.93

DOCKED: MODEL       76
DOCKED: USER    Run = 76
DOCKED: USER    DPF = ligand_dock.biased.dpf
DOCKED: USER  
DOCKED: USER    Estimated Free Energy of Binding    =   -9.44 kcal/mol  [=(1)+(2)+(3)-(4)]
DOCKED: USER    Estimated Inhibition Constant, Ki   =  120.18 nM (nanomolar)  [Temperature = 298.15 K]
DOCKED: USER    
DOCKED: USER    (1) Final Intermolecular Energy     =  -12.13 kcal/mol
DOCKED: USER        vdW + Hbond + desolv Energy     =  -12.13 kcal/mol
DOCKED: USER        Electrostatic Energy            =   +0.00 kcal/mol
DOCKED: USER    (2) Final Total Internal Energy     =   -1.53 kcal/mol
DOCKED: USER    (3) Torsional Free Energy           =   +2.68 kcal/mol
DOCKED: USER    (4) Unbound System's Energy  [=(2)] =   -1.53 kcal/mol
DOCKED: USER    
DOCKED: USER    
DOCKED: USER    NEWDPF move ligand.dum.pdbqt
DOCKED: USER    NEWDPF about -0.037000 -0.159000 0.371000
DOCKED: USER    NEWDPF tran0 35.794017 14.468081 121.242578
DOCKED: USER    NEWDPF quaternion0 0.102822 0.590994 0.566118 0.565388
DOCKED: USER    NEWDPF axisangle0 0.124660 0.716509 0.686349 111.141554
DOCKED: USER    NEWDPF quat0 0.124660 0.716509 0.686349 111.141554
DOCKED: USER    NEWDPF dihe0 -9.65 154.14 -118.13 -24.35 -55.88 -141.49 79.26 -117.14 9.93 
DOCKED: USER  keepresnum = 1 
DOCKED: USER  
DOCKED: REMARK  Name = 
DOCKED: REMARK  9 active torsions:
DOCKED: REMARK  status: ('A' for Active; 'I' for Inactive)
DOCKED: REMARK    1  A    between atoms: C_2  and  C_10
DOCKED: REMARK    2  A    between atoms: N_3  and  C_4
DOCKED: REMARK    3  A    between atoms: C_10  and  C_11
DOCKED: REMARK    4  A    between atoms: C_11  and  C_12
DOCKED: REMARK    5  A    between atoms: C_12  and  C_13
DOCKED: REMARK    6  A    between atoms: C_13  and  C_14
DOCKED: REMARK    7  A    between atoms: C_14  and  C_15
DOCKED: REMARK    8  A    between atoms: C_15  and  C_16
DOCKED: REMARK    9  A    between atoms: N_17  and  O_18
DOCKED: REMARK                            x       y       z     vdW  Elec       q    Type
DOCKED: REMARK                         _______ _______ _______ _____ _____    ______ ____
DOCKED: USER                              x       y       z     vdW  Elec       q    Type
DOCKED: USER                           _______ _______ _______ _____ _____    ______ ____
DOCKED: ROOT
DOCKED: ATOM      1  C   UNL     1      38.389  13.681 121.035 -0.40 -0.00    +0.000 C 
DOCKED: ENDROOT
DOCKED: BRANCH   1   3
DOCKED: ATOM      2  O   UNL     1      38.997  15.093 119.210 -0.21 -0.00    +0.000 OA
DOCKED: ATOM      3  C   UNL     1      38.154  14.282 119.682 -0.29 -0.00    +0.000 C 
DOCKED: ATOM      4  N   UNL     1      36.977  13.933 118.936 -0.35 -0.00    +0.000 N 
DOCKED: ATOM      5  H   UNL     1      36.269  13.430 119.398 -0.05 -0.00    +0.000 HD
DOCKED: BRANCH   4   6
DOCKED: ATOM      6  C   UNL     1      36.773  14.275 117.556 -0.32 -0.00    +0.000 A 
DOCKED: ATOM      7  C   UNL     1      36.331  15.556 117.174 -0.17 -0.00    +0.000 A 
DOCKED: ATOM      8  C   UNL     1      36.165  15.870 115.822 -0.11 -0.00    +0.000 A 
DOCKED: ATOM      9  C   UNL     1      36.450  14.917 114.840 -0.18 -0.00    +0.000 A 
DOCKED: ATOM     10  C   UNL     1      36.910  13.651 115.210 -0.32 -0.00    +0.000 A 
DOCKED: ATOM     11  C   UNL     1      37.079  13.333 116.561 -0.34 -0.00    +0.000 A 
DOCKED: ATOM     12  CM  UNL     1      36.618  14.600 116.193 +0.00 -0.00    +0.000 AC
DOCKED: ENDBRANCH   4   6
DOCKED: ENDBRANCH   1   3
DOCKED: BRANCH   1  12
DOCKED: ATOM     13  C   UNL     1      37.059  13.469 121.763 -0.45 -0.00    +0.000 C 
DOCKED: BRANCH  12  13
DOCKED: ATOM     14  C   UNL     1      37.289  13.086 123.232 -0.58 -0.00    +0.000 C 
DOCKED: BRANCH  13  14
DOCKED: ATOM     15  C   UNL     1      37.049  11.591 123.495 -0.67 -0.00    +0.000 C 
DOCKED: BRANCH  14  15
DOCKED: ATOM     16  C   UNL     1      35.566  11.199 123.356 -0.59 -0.00    +0.000 C 
DOCKED: BRANCH  15  16
DOCKED: ATOM     17  C   UNL     1      35.338  10.186 122.226 -0.56 -0.00    +0.000 C 
DOCKED: BRANCH  16  17
DOCKED: ATOM     18  C   UNL     1      36.362   9.088 122.247 -0.72 -0.00    +0.000 C 
DOCKED: ATOM     19  N   UNL     1      36.542   8.287 123.418 -0.67 -0.00    +0.000 N 
DOCKED: ATOM     20  O   UNL     1      37.045   8.853 121.214 -2.68 -0.00    +0.000 OA
DOCKED: ATOM     21  H   UNL     1      36.008   8.474 124.224 -0.20 -0.00    +0.000 HD
DOCKED: BRANCH  18  21
DOCKED: ATOM     22  O   UNL     1      37.440   7.274 123.427 -1.89 -0.00    +0.000 OA
DOCKED: ATOM     23  H   UNL     1      37.767   7.124 122.527 -0.36 -0.00    +0.000 HD
DOCKED: ENDBRANCH  18  21
DOCKED: ENDBRANCH  16  17
DOCKED: ENDBRANCH  15  16
DOCKED: ENDBRANCH  14  15
DOCKED: ENDBRANCH  13  14
DOCKED: ENDBRANCH  12  13
DOCKED: ENDBRANCH   1  12
DOCKED: TORSDOF 9DOCKED: TER
DOCKED: ENDMDL
________________________________________________________________________________


	BEGINNING GENETIC ALGORITHM DOCKING 77 of 100
Run: 77 Seed: 832024679 305278242 [ Run 77 of 100 GA/GALS ]
Beginning LAMARCKIAN GENETIC ALGORITHM (LGA), with a maximum of 2500000 energy evaluations.

Final-Value: -12.887


	FINAL GENETIC ALGORITHM DOCKED STATE
	_______________________________________________


Detailed state:  trans 37.878 13.174 118.485 quatxyzw -0.135635 0.829692 -0.467913 -0.272527 center -0.037 -0.159 0.371 ntor 9 31.0631 -123.9068 -105.1346 67.7282 -1.9346 104.1525 -52.0894 -158.1999 -179.7635
State:	 37.878  13.174 118.485  -0.141  0.862 -0.486 -148.371     31.06 -123.91 -105.13   67.73   -1.93  104.15  -52.09 -158.20 -179.76

DOCKED: MODEL       77
DOCKED: USER    Run = 77
DOCKED: USER    DPF = ligand_dock.biased.dpf
DOCKED: USER  
DOCKED: USER    Estimated Free Energy of Binding    =   -8.80 kcal/mol  [=(1)+(2)+(3)-(4)]
DOCKED: USER    Estimated Inhibition Constant, Ki   =  356.17 nM (nanomolar)  [Temperature = 298.15 K]
DOCKED: USER    
DOCKED: USER    (1) Final Intermolecular Energy     =  -11.48 kcal/mol
DOCKED: USER        vdW + Hbond + desolv Energy     =  -11.48 kcal/mol
DOCKED: USER        Electrostatic Energy            =   +0.00 kcal/mol
DOCKED: USER    (2) Final Total Internal Energy     =   -1.40 kcal/mol
DOCKED: USER    (3) Torsional Free Energy           =   +2.68 kcal/mol
DOCKED: USER    (4) Unbound System's Energy  [=(2)] =   -1.40 kcal/mol
DOCKED: USER    
DOCKED: USER    
DOCKED: USER    NEWDPF move ligand.dum.pdbqt
DOCKED: USER    NEWDPF about -0.037000 -0.159000 0.371000
DOCKED: USER    NEWDPF tran0 37.877680 13.174166 118.485472
DOCKED: USER    NEWDPF quaternion0 -0.135635 0.829692 -0.467913 -0.272527
DOCKED: USER    NEWDPF axisangle0 -0.140972 0.862333 -0.486322 -148.370575
DOCKED: USER    NEWDPF quat0 -0.140972 0.862333 -0.486322 -148.370575
DOCKED: USER    NEWDPF dihe0 31.06 -123.91 -105.13 67.73 -1.93 104.15 -52.09 -158.20 -179.76 
DOCKED: USER  keepresnum = 1 
DOCKED: USER  
DOCKED: REMARK  Name = 
DOCKED: REMARK  9 active torsions:
DOCKED: REMARK  status: ('A' for Active; 'I' for Inactive)
DOCKED: REMARK    1  A    between atoms: C_2  and  C_10
DOCKED: REMARK    2  A    between atoms: N_3  and  C_4
DOCKED: REMARK    3  A    between atoms: C_10  and  C_11
DOCKED: REMARK    4  A    between atoms: C_11  and  C_12
DOCKED: REMARK    5  A    between atoms: C_12  and  C_13
DOCKED: REMARK    6  A    between atoms: C_13  and  C_14
DOCKED: REMARK    7  A    between atoms: C_14  and  C_15
DOCKED: REMARK    8  A    between atoms: C_15  and  C_16
DOCKED: REMARK    9  A    between atoms: N_17  and  O_18
DOCKED: REMARK                            x       y       z     vdW  Elec       q    Type
DOCKED: REMARK                         _______ _______ _______ _____ _____    ______ ____
DOCKED: USER                              x       y       z     vdW  Elec       q    Type
DOCKED: USER                           _______ _______ _______ _____ _____    ______ ____
DOCKED: ROOT
DOCKED: ATOM      1  C   UNL     1      37.222  15.800 118.207 -0.18 -0.00    +0.000 C 
DOCKED: ENDROOT
DOCKED: BRANCH   1   3
DOCKED: ATOM      2  O   UNL     1      39.548  16.027 118.689 -0.16 -0.00    +0.000 OA
DOCKED: ATOM      3  C   UNL     1      38.384  15.884 119.152 -0.16 -0.00    +0.000 C 
DOCKED: ATOM      4  N   UNL     1      38.164  15.801 120.569 -0.17 -0.00    +0.000 N 
DOCKED: ATOM      5  H   UNL     1      37.272  15.529 120.884 -0.00 -0.00    +0.000 HD
DOCKED: BRANCH   4   6
DOCKED: ATOM      6  C   UNL     1      39.169  16.093 121.553 -0.20 -0.00    +0.000 A 
DOCKED: ATOM      7  C   UNL     1      40.300  15.271 121.713 -0.32 -0.00    +0.000 A 
DOCKED: ATOM      8  C   UNL     1      41.275  15.592 122.662 -0.44 -0.00    +0.000 A 
DOCKED: ATOM      9  C   UNL     1      41.139  16.739 123.449 -0.31 -0.00    +0.000 A 
DOCKED: ATOM     10  C   UNL     1      40.030  17.572 123.281 -0.21 -0.00    +0.000 A 
DOCKED: ATOM     11  C   UNL     1      39.053  17.256 122.332 -0.15 -0.00    +0.000 A 
DOCKED: ATOM     12  CM  UNL     1      40.161  16.421 122.498 +0.00 -0.00    +0.000 AC
DOCKED: ENDBRANCH   4   6
DOCKED: ENDBRANCH   1   3
DOCKED: BRANCH   1  12
DOCKED: ATOM     13  C   UNL     1      36.726  14.354 118.100 -0.35 -0.00    +0.000 C 
DOCKED: BRANCH  12  13
DOCKED: ATOM     14  C   UNL     1      37.557  13.419 118.991 -0.39 -0.00    +0.000 C 
DOCKED: BRANCH  13  14
DOCKED: ATOM     15  C   UNL     1      36.690  12.628 119.984 -0.36 -0.00    +0.000 C 
DOCKED: BRANCH  14  15
DOCKED: ATOM     16  C   UNL     1      37.516  11.641 120.829 -0.43 -0.00    +0.000 C 
DOCKED: BRANCH  15  16
DOCKED: ATOM     17  C   UNL     1      36.688  11.010 121.958 -0.62 -0.00    +0.000 C 
DOCKED: BRANCH  16  17
DOCKED: ATOM     18  C   UNL     1      36.945   9.536 122.080 -0.64 -0.00    +0.000 C 
DOCKED: ATOM     19  N   UNL     1      37.073   8.927 123.367 -0.61 -0.00    +0.000 N 
DOCKED: ATOM     20  O   UNL     1      37.018   8.828 121.039 -2.68 -0.00    +0.000 OA
DOCKED: ATOM     21  H   UNL     1      37.018   9.483 124.177 -0.56 -0.00    +0.000 HD
DOCKED: BRANCH  18  21
DOCKED: ATOM     22  O   UNL     1      37.271   7.592 123.480 -2.15 -0.00    +0.000 OA
DOCKED: ATOM     23  H   UNL     1      37.770   7.274 122.713 -0.40 -0.00    +0.000 HD
DOCKED: ENDBRANCH  18  21
DOCKED: ENDBRANCH  16  17
DOCKED: ENDBRANCH  15  16
DOCKED: ENDBRANCH  14  15
DOCKED: ENDBRANCH  13  14
DOCKED: ENDBRANCH  12  13
DOCKED: ENDBRANCH   1  12
DOCKED: TORSDOF 9DOCKED: TER
DOCKED: ENDMDL
________________________________________________________________________________


	BEGINNING GENETIC ALGORITHM DOCKING 78 of 100
Run: 78 Seed: 860933471 1455315649 [ Run 78 of 100 GA/GALS ]
Beginning LAMARCKIAN GENETIC ALGORITHM (LGA), with a maximum of 2500000 energy evaluations.

Final-Value: -14.614


	FINAL GENETIC ALGORITHM DOCKED STATE
	_______________________________________________


Detailed state:  trans 37.330 13.365 123.372 quatxyzw -0.052624 0.415929 -0.565065 -0.710588 center -0.037 -0.159 0.371 ntor 9 19.1328 87.8272 7.2823 22.0299 -109.0175 -69.4855 -33.3706 -140.6864 135.3077
State:	 37.330  13.365 123.372  -0.075  0.591 -0.803 -89.434     19.13   87.83    7.28   22.03 -109.02  -69.49  -33.37 -140.69  135.31

DOCKED: MODEL       78
DOCKED: USER    Run = 78
DOCKED: USER    DPF = ligand_dock.biased.dpf
DOCKED: USER  
DOCKED: USER    Estimated Free Energy of Binding    =  -10.60 kcal/mol  [=(1)+(2)+(3)-(4)]
DOCKED: USER    Estimated Inhibition Constant, Ki   =   16.90 nM (nanomolar)  [Temperature = 298.15 K]
DOCKED: USER    
DOCKED: USER    (1) Final Intermolecular Energy     =  -13.29 kcal/mol
DOCKED: USER        vdW + Hbond + desolv Energy     =  -13.29 kcal/mol
DOCKED: USER        Electrostatic Energy            =   +0.00 kcal/mol
DOCKED: USER    (2) Final Total Internal Energy     =   -1.33 kcal/mol
DOCKED: USER    (3) Torsional Free Energy           =   +2.68 kcal/mol
DOCKED: USER    (4) Unbound System's Energy  [=(2)] =   -1.33 kcal/mol
DOCKED: USER    
DOCKED: USER    
DOCKED: USER    NEWDPF move ligand.dum.pdbqt
DOCKED: USER    NEWDPF about -0.037000 -0.159000 0.371000
DOCKED: USER    NEWDPF tran0 37.330090 13.364826 123.372005
DOCKED: USER    NEWDPF quaternion0 -0.052624 0.415929 -0.565065 -0.710588
DOCKED: USER    NEWDPF axisangle0 -0.074792 0.591137 -0.803096 -89.434383
DOCKED: USER    NEWDPF quat0 -0.074792 0.591137 -0.803096 -89.434383
DOCKED: USER    NEWDPF dihe0 19.13 87.83 7.28 22.03 -109.02 -69.49 -33.37 -140.69 135.31 
DOCKED: USER  keepresnum = 1 
DOCKED: USER  
DOCKED: REMARK  Name = 
DOCKED: REMARK  9 active torsions:
DOCKED: REMARK  status: ('A' for Active; 'I' for Inactive)
DOCKED: REMARK    1  A    between atoms: C_2  and  C_10
DOCKED: REMARK    2  A    between atoms: N_3  and  C_4
DOCKED: REMARK    3  A    between atoms: C_10  and  C_11
DOCKED: REMARK    4  A    between atoms: C_11  and  C_12
DOCKED: REMARK    5  A    between atoms: C_12  and  C_13
DOCKED: REMARK    6  A    between atoms: C_13  and  C_14
DOCKED: REMARK    7  A    between atoms: C_14  and  C_15
DOCKED: REMARK    8  A    between atoms: C_15  and  C_16
DOCKED: REMARK    9  A    between atoms: N_17  and  O_18
DOCKED: REMARK                            x       y       z     vdW  Elec       q    Type
DOCKED: REMARK                         _______ _______ _______ _____ _____    ______ ____
DOCKED: USER                              x       y       z     vdW  Elec       q    Type
DOCKED: USER                           _______ _______ _______ _____ _____    ______ ____
DOCKED: ROOT
DOCKED: ATOM      1  C   UNL     1      37.160  15.305 121.473 -0.28 -0.00    +0.000 C 
DOCKED: ENDROOT
DOCKED: BRANCH   1   3
DOCKED: ATOM      2  O   UNL     1      37.506  16.923 123.192 -0.25 -0.00    +0.000 OA
DOCKED: ATOM      3  C   UNL     1      36.735  16.055 122.700 -0.32 -0.00    +0.000 C 
DOCKED: ATOM      4  N   UNL     1      35.461  15.781 123.303 -0.41 -0.00    +0.000 N 
DOCKED: ATOM      5  H   UNL     1      34.962  14.991 122.992 -0.03 -0.00    +0.000 HD
DOCKED: BRANCH   4   6
DOCKED: ATOM      6  C   UNL     1      34.872  16.591 124.334 -0.42 -0.00    +0.000 A 
DOCKED: ATOM      7  C   UNL     1      34.870  17.996 124.251 -0.31 -0.00    +0.000 A 
DOCKED: ATOM      8  C   UNL     1      34.268  18.760 125.256 -0.27 -0.00    +0.000 A 
DOCKED: ATOM      9  C   UNL     1      33.653  18.131 126.342 -0.31 -0.00    +0.000 A 
DOCKED: ATOM     10  C   UNL     1      33.633  16.736 126.420 -0.37 -0.00    +0.000 A 
DOCKED: ATOM     11  C   UNL     1      34.232  15.968 125.417 -0.38 -0.00    +0.000 A 
DOCKED: ATOM     12  CM  UNL     1      34.255  17.363 125.337 -0.31 -0.00    +0.000 AC
DOCKED: ENDBRANCH   4   6
DOCKED: ENDBRANCH   1   3
DOCKED: BRANCH   1  12
DOCKED: ATOM     13  C   UNL     1      37.161  13.797 121.743 -0.42 -0.00    +0.000 C 
DOCKED: BRANCH  12  13
DOCKED: ATOM     14  C   UNL     1      37.817  13.480 123.096 -0.53 -0.00    +0.000 C 
DOCKED: BRANCH  13  14
DOCKED: ATOM     15  C   UNL     1      37.123  12.322 123.829 -0.57 -0.00    +0.000 C 
DOCKED: BRANCH  14  15
DOCKED: ATOM     16  C   UNL     1      35.989  11.694 122.998 -0.67 -0.00    +0.000 C 
DOCKED: BRANCH  15  16
DOCKED: ATOM     17  C   UNL     1      36.510  11.030 121.716 -0.50 -0.00    +0.000 C 
DOCKED: BRANCH  16  17
DOCKED: ATOM     18  C   UNL     1      36.838   9.581 121.932 -0.64 -0.00    +0.000 C 
DOCKED: ATOM     19  N   UNL     1      36.852   9.030 123.252 -0.62 -0.00    +0.000 N 
DOCKED: ATOM     20  O   UNL     1      37.073   8.840 120.940 -2.70 -0.00    +0.000 OA
DOCKED: ATOM     21  H   UNL     1      36.670   9.612 124.025 -0.45 -0.00    +0.000 HD
DOCKED: BRANCH  18  21
DOCKED: ATOM     22  O   UNL     1      37.113   7.716 123.446 -2.28 -0.00    +0.000 OA
DOCKED: ATOM     23  H   UNL     1      37.556   7.356 122.663 -0.24 -0.00    +0.000 HD
DOCKED: ENDBRANCH  18  21
DOCKED: ENDBRANCH  16  17
DOCKED: ENDBRANCH  15  16
DOCKED: ENDBRANCH  14  15
DOCKED: ENDBRANCH  13  14
DOCKED: ENDBRANCH  12  13
DOCKED: ENDBRANCH   1  12
DOCKED: TORSDOF 9DOCKED: TER
DOCKED: ENDMDL
________________________________________________________________________________


	BEGINNING GENETIC ALGORITHM DOCKING 79 of 100
Run: 79 Seed: 2069427466 1903542216 [ Run 79 of 100 GA/GALS ]
Beginning LAMARCKIAN GENETIC ALGORITHM (LGA), with a maximum of 2500000 energy evaluations.

Final-Value: -13.455


	FINAL GENETIC ALGORITHM DOCKED STATE
	_______________________________________________


Detailed state:  trans 35.771 11.763 123.964 quatxyzw 0.331299 0.476856 -0.302841 0.755736 center -0.037 -0.159 0.371 ntor 9 158.6124 -38.5250 -165.7120 -167.8594 179.2368 179.8502 -158.5026 -54.8800 7.5611
State:	 35.771  11.763 123.964   0.506  0.728 -0.462 81.821    158.61  -38.53 -165.71 -167.86  179.24  179.85 -158.50  -54.88    7.56

DOCKED: MODEL       79
DOCKED: USER    Run = 79
DOCKED: USER    DPF = ligand_dock.biased.dpf
DOCKED: USER  
DOCKED: USER    Estimated Free Energy of Binding    =   -9.82 kcal/mol  [=(1)+(2)+(3)-(4)]
DOCKED: USER    Estimated Inhibition Constant, Ki   =   62.95 nM (nanomolar)  [Temperature = 298.15 K]
DOCKED: USER    
DOCKED: USER    (1) Final Intermolecular Energy     =  -12.51 kcal/mol
DOCKED: USER        vdW + Hbond + desolv Energy     =  -12.51 kcal/mol
DOCKED: USER        Electrostatic Energy            =   +0.00 kcal/mol
DOCKED: USER    (2) Final Total Internal Energy     =   -0.95 kcal/mol
DOCKED: USER    (3) Torsional Free Energy           =   +2.68 kcal/mol
DOCKED: USER    (4) Unbound System's Energy  [=(2)] =   -0.95 kcal/mol
DOCKED: USER    
DOCKED: USER    
DOCKED: USER    NEWDPF move ligand.dum.pdbqt
DOCKED: USER    NEWDPF about -0.037000 -0.159000 0.371000
DOCKED: USER    NEWDPF tran0 35.770659 11.763085 123.963963
DOCKED: USER    NEWDPF quaternion0 0.331299 0.476856 -0.302841 0.755736
DOCKED: USER    NEWDPF axisangle0 0.505895 0.728162 -0.462440 81.820553
DOCKED: USER    NEWDPF quat0 0.505895 0.728162 -0.462440 81.820553
DOCKED: USER    NEWDPF dihe0 158.61 -38.53 -165.71 -167.86 179.24 179.85 -158.50 -54.88 7.56 
DOCKED: USER  keepresnum = 1 
DOCKED: USER  
DOCKED: REMARK  Name = 
DOCKED: REMARK  9 active torsions:
DOCKED: REMARK  status: ('A' for Active; 'I' for Inactive)
DOCKED: REMARK    1  A    between atoms: C_2  and  C_10
DOCKED: REMARK    2  A    between atoms: N_3  and  C_4
DOCKED: REMARK    3  A    between atoms: C_10  and  C_11
DOCKED: REMARK    4  A    between atoms: C_11  and  C_12
DOCKED: REMARK    5  A    between atoms: C_12  and  C_13
DOCKED: REMARK    6  A    between atoms: C_13  and  C_14
DOCKED: REMARK    7  A    between atoms: C_14  and  C_15
DOCKED: REMARK    8  A    between atoms: C_15  and  C_16
DOCKED: REMARK    9  A    between atoms: N_17  and  O_18
DOCKED: REMARK                            x       y       z     vdW  Elec       q    Type
DOCKED: REMARK                         _______ _______ _______ _____ _____    ______ ____
DOCKED: USER                              x       y       z     vdW  Elec       q    Type
DOCKED: USER                           _______ _______ _______ _____ _____    ______ ____
DOCKED: ROOT
DOCKED: ATOM      1  C   UNL     1      37.258  11.777 121.686 -0.49 -0.00    +0.000 C 
DOCKED: ENDROOT
DOCKED: BRANCH   1   3
DOCKED: ATOM      2  O   UNL     1      37.183   9.533 120.877 -2.39 -0.00    +0.000 OA
DOCKED: ATOM      3  C   UNL     1      36.687  10.391 121.657 -0.43 -0.00    +0.000 C 
DOCKED: ATOM      4  N   UNL     1      35.584  10.051 122.513 -0.60 -0.00    +0.000 N 
DOCKED: ATOM      5  H   UNL     1      35.122  10.781 122.985 -0.13 -0.00    +0.000 HD
DOCKED: BRANCH   4   6
DOCKED: ATOM      6  C   UNL     1      35.117   8.709 122.722 -0.60 -0.00    +0.000 A 
DOCKED: ATOM      7  C   UNL     1      33.760   8.371 122.565 -0.61 -0.00    +0.000 A 
DOCKED: ATOM      8  C   UNL     1      33.336   7.051 122.751 -0.62 -0.00    +0.000 A 
DOCKED: ATOM      9  C   UNL     1      34.261   6.057 123.080 -0.64 -0.00    +0.000 A 
DOCKED: ATOM     10  C   UNL     1      35.614   6.380 123.217 -0.64 -0.00    +0.000 A 
DOCKED: ATOM     11  C   UNL     1      36.042   7.698 123.031 -0.69 -0.00    +0.000 A 
DOCKED: ATOM     12  CM  UNL     1      34.689   7.377 122.894 +0.00 -0.00    +0.000 AC
DOCKED: ENDBRANCH   4   6
DOCKED: ENDBRANCH   1   3
DOCKED: BRANCH   1  12
DOCKED: ATOM     13  C   UNL     1      37.053  12.409 123.066 -0.64 -0.00    +0.000 C 
DOCKED: BRANCH  12  13
DOCKED: ATOM     14  C   UNL     1      37.462  13.890 123.060 -0.53 -0.00    +0.000 C 
DOCKED: BRANCH  13  14
DOCKED: ATOM     15  C   UNL     1      37.546  14.472 121.641 -0.38 -0.00    +0.000 C 
DOCKED: BRANCH  14  15
DOCKED: ATOM     16  C   UNL     1      38.998  14.703 121.184 -0.34 -0.00    +0.000 C 
DOCKED: BRANCH  15  16
DOCKED: ATOM     17  C   UNL     1      40.007  14.470 122.317 -0.30 -0.00    +0.000 C 
DOCKED: BRANCH  16  17
DOCKED: ATOM     18  C   UNL     1      40.436  15.759 122.955 -0.28 -0.00    +0.000 C 
DOCKED: ATOM     19  N   UNL     1      41.814  15.995 123.257 -0.38 +0.00    +0.000 N 
DOCKED: ATOM     20  O   UNL     1      39.579  16.651 123.198 -0.30 -0.00    +0.000 OA
DOCKED: ATOM     21  H   UNL     1      42.481  15.295 123.068 -0.06 +0.00    +0.000 HD
DOCKED: BRANCH  18  21
DOCKED: ATOM     22  O   UNL     1      42.208  17.170 123.800 -0.85 -0.00    +0.000 OA
DOCKED: ATOM     23  H   UNL     1      43.063  17.051 124.243 -0.63 -0.00    +0.000 HD
DOCKED: ENDBRANCH  18  21
DOCKED: ENDBRANCH  16  17
DOCKED: ENDBRANCH  15  16
DOCKED: ENDBRANCH  14  15
DOCKED: ENDBRANCH  13  14
DOCKED: ENDBRANCH  12  13
DOCKED: ENDBRANCH   1  12
DOCKED: TORSDOF 9DOCKED: TER
DOCKED: ENDMDL
________________________________________________________________________________


	BEGINNING GENETIC ALGORITHM DOCKING 80 of 100
Run: 80 Seed: 1391722779 571952744 [ Run 80 of 100 GA/GALS ]
Beginning LAMARCKIAN GENETIC ALGORITHM (LGA), with a maximum of 2500000 energy evaluations.

Final-Value: -11.960


	FINAL GENETIC ALGORITHM DOCKED STATE
	_______________________________________________


Detailed state:  trans 36.526 14.379 124.422 quatxyzw 0.118590 -0.501269 0.834330 -0.196362 center -0.037 -0.159 0.371 ntor 9 -10.4023 139.9159 -63.6110 -134.8514 36.2828 179.1760 148.5269 -142.3103 138.7815
State:	 36.526  14.379 124.422   0.121 -0.511  0.851 -157.351    -10.40  139.92  -63.61 -134.85   36.28  179.18  148.53 -142.31  138.78

DOCKED: MODEL       80
DOCKED: USER    Run = 80
DOCKED: USER    DPF = ligand_dock.biased.dpf
DOCKED: USER  
DOCKED: USER    Estimated Free Energy of Binding    =   -7.52 kcal/mol  [=(1)+(2)+(3)-(4)]
DOCKED: USER    Estimated Inhibition Constant, Ki   =    3.05 uM (micromolar)  [Temperature = 298.15 K]
DOCKED: USER    
DOCKED: USER    (1) Final Intermolecular Energy     =  -10.21 kcal/mol
DOCKED: USER        vdW + Hbond + desolv Energy     =  -10.21 kcal/mol
DOCKED: USER        Electrostatic Energy            =   +0.00 kcal/mol
DOCKED: USER    (2) Final Total Internal Energy     =   -1.75 kcal/mol
DOCKED: USER    (3) Torsional Free Energy           =   +2.68 kcal/mol
DOCKED: USER    (4) Unbound System's Energy  [=(2)] =   -1.75 kcal/mol
DOCKED: USER    
DOCKED: USER    
DOCKED: USER    NEWDPF move ligand.dum.pdbqt
DOCKED: USER    NEWDPF about -0.037000 -0.159000 0.371000
DOCKED: USER    NEWDPF tran0 36.525672 14.379191 124.422169
DOCKED: USER    NEWDPF quaternion0 0.118590 -0.501269 0.834330 -0.196362
DOCKED: USER    NEWDPF axisangle0 0.120945 -0.511222 0.850896 -157.351391
DOCKED: USER    NEWDPF quat0 0.120945 -0.511222 0.850896 -157.351391
DOCKED: USER    NEWDPF dihe0 -10.40 139.92 -63.61 -134.85 36.28 179.18 148.53 -142.31 138.78 
DOCKED: USER  keepresnum = 1 
DOCKED: USER  
DOCKED: REMARK  Name = 
DOCKED: REMARK  9 active torsions:
DOCKED: REMARK  status: ('A' for Active; 'I' for Inactive)
DOCKED: REMARK    1  A    between atoms: C_2  and  C_10
DOCKED: REMARK    2  A    between atoms: N_3  and  C_4
DOCKED: REMARK    3  A    between atoms: C_10  and  C_11
DOCKED: REMARK    4  A    between atoms: C_11  and  C_12
DOCKED: REMARK    5  A    between atoms: C_12  and  C_13
DOCKED: REMARK    6  A    between atoms: C_13  and  C_14
DOCKED: REMARK    7  A    between atoms: C_14  and  C_15
DOCKED: REMARK    8  A    between atoms: C_15  and  C_16
DOCKED: REMARK    9  A    between atoms: N_17  and  O_18
DOCKED: REMARK                            x       y       z     vdW  Elec       q    Type
DOCKED: REMARK                         _______ _______ _______ _____ _____    ______ ____
DOCKED: USER                              x       y       z     vdW  Elec       q    Type
DOCKED: USER                           _______ _______ _______ _____ _____    ______ ____
DOCKED: ROOT
DOCKED: ATOM      1  C   UNL     1      36.380  15.438 121.921 -0.16 -0.00    +0.000 C 
DOCKED: ENDROOT
DOCKED: BRANCH   1   3
DOCKED: ATOM      2  O   UNL     1      38.459  14.365 121.450 -0.41 -0.00    +0.000 OA
DOCKED: ATOM      3  C   UNL     1      37.861  15.275 122.086 -0.33 -0.00    +0.000 C 
DOCKED: ATOM      4  N   UNL     1      38.585  16.152 122.964 -0.27 -0.00    +0.000 N 
DOCKED: ATOM      5  H   UNL     1      38.069  16.739 123.562 -0.01 -0.00    +0.000 HD
DOCKED: BRANCH   4   6
DOCKED: ATOM      6  C   UNL     1      40.019  16.223 123.019 -0.23 -0.00    +0.000 A 
DOCKED: ATOM      7  C   UNL     1      40.823  15.126 122.657 -0.44 -0.00    +0.000 A 
DOCKED: ATOM      8  C   UNL     1      42.217  15.231 122.697 -0.44 -0.00    +0.000 A 
DOCKED: ATOM      9  C   UNL     1      42.820  16.430 123.083 -0.39 -0.00    +0.000 A 
DOCKED: ATOM     10  C   UNL     1      42.029  17.531 123.423 -0.30 -0.00    +0.000 A 
DOCKED: ATOM     11  C   UNL     1      40.635  17.431 123.384 -0.26 -0.00    +0.000 A 
DOCKED: ATOM     12  CM  UNL     1      41.424  16.329 123.044 +0.00 -0.00    +0.000 AC
DOCKED: ENDBRANCH   4   6
DOCKED: ENDBRANCH   1   3
DOCKED: BRANCH   1  12
DOCKED: ATOM     13  C   UNL     1      35.672  15.280 123.270 -0.44 -0.00    +0.000 C 
DOCKED: BRANCH  12  13
DOCKED: ATOM     14  C   UNL     1      36.283  14.128 124.081 -0.41 -0.00    +0.000 C 
DOCKED: BRANCH  13  14
DOCKED: ATOM     15  C   UNL     1      36.739  12.959 123.194 -0.62 -0.00    +0.000 C 
DOCKED: BRANCH  14  15
DOCKED: ATOM     16  C   UNL     1      35.822  11.729 123.322 -0.65 -0.00    +0.000 C 
DOCKED: BRANCH  15  16
DOCKED: ATOM     17  C   UNL     1      36.577  10.415 123.081 -0.69 -0.00    +0.000 C 
DOCKED: BRANCH  16  17
DOCKED: ATOM     18  C   UNL     1      37.061  10.303 121.664 -0.50 -0.00    +0.000 C 
DOCKED: ATOM     19  N   UNL     1      37.643  11.431 121.005 -0.36 -0.00    +0.000 N 
DOCKED: ATOM     20  O   UNL     1      36.980   9.198 121.063 -2.71 -0.00    +0.000 OA
DOCKED: ATOM     21  H   UNL     1      37.702  12.294 121.477 -0.02 -0.00    +0.000 HD
DOCKED: BRANCH  18  21
DOCKED: ATOM     22  O   UNL     1      38.111  11.323 119.740 -0.55 -0.00    +0.000 OA
DOCKED: ATOM     23  H   UNL     1      38.130  10.389 119.481 -0.03 -0.00    +0.000 HD
DOCKED: ENDBRANCH  18  21
DOCKED: ENDBRANCH  16  17
DOCKED: ENDBRANCH  15  16
DOCKED: ENDBRANCH  14  15
DOCKED: ENDBRANCH  13  14
DOCKED: ENDBRANCH  12  13
DOCKED: ENDBRANCH   1  12
DOCKED: TORSDOF 9DOCKED: TER
DOCKED: ENDMDL
________________________________________________________________________________


	BEGINNING GENETIC ALGORITHM DOCKING 81 of 100
Run: 81 Seed: 139182254 319965191 [ Run 81 of 100 GA/GALS ]
Beginning LAMARCKIAN GENETIC ALGORITHM (LGA), with a maximum of 2500000 energy evaluations.

Final-Value: -14.341


	FINAL GENETIC ALGORITHM DOCKED STATE
	_______________________________________________


Detailed state:  trans 39.183 12.357 122.308 quatxyzw 0.215207 -0.742596 0.626154 0.100838 center -0.037 -0.159 0.371 ntor 9 2.1732 98.0532 -133.3231 67.9858 -146.2965 -156.8263 40.2322 112.4166 -58.5465
State:	 39.183  12.357 122.308   0.216 -0.746  0.629 168.425      2.17   98.05 -133.32   67.99 -146.30 -156.83   40.23  112.42  -58.55

DOCKED: MODEL       81
DOCKED: USER    Run = 81
DOCKED: USER    DPF = ligand_dock.biased.dpf
DOCKED: USER  
DOCKED: USER    Estimated Free Energy of Binding    =  -10.40 kcal/mol  [=(1)+(2)+(3)-(4)]
DOCKED: USER    Estimated Inhibition Constant, Ki   =   23.99 nM (nanomolar)  [Temperature = 298.15 K]
DOCKED: USER    
DOCKED: USER    (1) Final Intermolecular Energy     =  -13.08 kcal/mol
DOCKED: USER        vdW + Hbond + desolv Energy     =  -13.08 kcal/mol
DOCKED: USER        Electrostatic Energy            =   +0.00 kcal/mol
DOCKED: USER    (2) Final Total Internal Energy     =   -1.26 kcal/mol
DOCKED: USER    (3) Torsional Free Energy           =   +2.68 kcal/mol
DOCKED: USER    (4) Unbound System's Energy  [=(2)] =   -1.26 kcal/mol
DOCKED: USER    
DOCKED: USER    
DOCKED: USER    NEWDPF move ligand.dum.pdbqt
DOCKED: USER    NEWDPF about -0.037000 -0.159000 0.371000
DOCKED: USER    NEWDPF tran0 39.182697 12.356907 122.308002
DOCKED: USER    NEWDPF quaternion0 0.215207 -0.742596 0.626154 0.100838
DOCKED: USER    NEWDPF axisangle0 0.216310 -0.746400 0.629362 168.425194
DOCKED: USER    NEWDPF quat0 0.216310 -0.746400 0.629362 168.425194
DOCKED: USER    NEWDPF dihe0 2.17 98.05 -133.32 67.99 -146.30 -156.83 40.23 112.42 -58.55 
DOCKED: USER  keepresnum = 1 
DOCKED: USER  
DOCKED: REMARK  Name = 
DOCKED: REMARK  9 active torsions:
DOCKED: REMARK  status: ('A' for Active; 'I' for Inactive)
DOCKED: REMARK    1  A    between atoms: C_2  and  C_10
DOCKED: REMARK    2  A    between atoms: N_3  and  C_4
DOCKED: REMARK    3  A    between atoms: C_10  and  C_11
DOCKED: REMARK    4  A    between atoms: C_11  and  C_12
DOCKED: REMARK    5  A    between atoms: C_12  and  C_13
DOCKED: REMARK    6  A    between atoms: C_13  and  C_14
DOCKED: REMARK    7  A    between atoms: C_14  and  C_15
DOCKED: REMARK    8  A    between atoms: C_15  and  C_16
DOCKED: REMARK    9  A    between atoms: N_17  and  O_18
DOCKED: REMARK                            x       y       z     vdW  Elec       q    Type
DOCKED: REMARK                         _______ _______ _______ _____ _____    ______ ____
DOCKED: USER                              x       y       z     vdW  Elec       q    Type
DOCKED: USER                           _______ _______ _______ _____ _____    ______ ____
DOCKED: ROOT
DOCKED: ATOM      1  C   UNL     1      38.554  14.707 121.091 -0.34 -0.00    +0.000 C 
DOCKED: ENDROOT
DOCKED: BRANCH   1   3
DOCKED: ATOM      2  O   UNL     1      40.576  14.093 122.199 -1.05 +0.00    +0.000 OA
DOCKED: ATOM      3  C   UNL     1      39.935  14.997 121.597 -0.36 -0.00    +0.000 C 
DOCKED: ATOM      4  N   UNL     1      40.516  16.295 121.394 -0.20 -0.00    +0.000 N 
DOCKED: ATOM      5  H   UNL     1      39.932  17.018 121.068 +0.01 -0.00    +0.000 HD
DOCKED: BRANCH   4   6
DOCKED: ATOM      6  C   UNL     1      41.898  16.600 121.637 -0.24 -0.00    +0.000 A 
DOCKED: ATOM      7  C   UNL     1      42.321  17.169 122.854 -0.32 -0.00    +0.000 A 
DOCKED: ATOM      8  C   UNL     1      43.677  17.434 123.074 -0.21 -0.00    +0.000 A 
DOCKED: ATOM      9  C   UNL     1      44.621  17.122 122.092 -0.28 -0.00    +0.000 A 
DOCKED: ATOM     10  C   UNL     1      44.212  16.537 120.891 -0.22 -0.00    +0.000 A 
DOCKED: ATOM     11  C   UNL     1      42.858  16.270 120.667 -0.21 -0.00    +0.000 A 
DOCKED: ATOM     12  CM  UNL     1      43.265  16.855 121.869 +0.00 -0.00    +0.000 AC
DOCKED: ENDBRANCH   4   6
DOCKED: ENDBRANCH   1   3
DOCKED: BRANCH   1  12
DOCKED: ATOM     13  C   UNL     1      38.005  13.433 121.740 -0.45 -0.00    +0.000 C 
DOCKED: BRANCH  12  13
DOCKED: ATOM     14  C   UNL     1      36.699  13.719 122.497 -0.48 -0.00    +0.000 C 
DOCKED: BRANCH  13  14
DOCKED: ATOM     15  C   UNL     1      36.576  12.898 123.790 -0.60 -0.00    +0.000 C 
DOCKED: BRANCH  14  15
DOCKED: ATOM     16  C   UNL     1      36.023  11.484 123.539 -0.69 -0.00    +0.000 C 
DOCKED: BRANCH  15  16
DOCKED: ATOM     17  C   UNL     1      36.339  10.980 122.124 -0.64 -0.00    +0.000 C 
DOCKED: BRANCH  16  17
DOCKED: ATOM     18  C   UNL     1      36.788   9.548 122.129 -0.68 -0.00    +0.000 C 
DOCKED: ATOM     19  N   UNL     1      36.868   8.818 123.356 -0.62 -0.00    +0.000 N 
DOCKED: ATOM     20  O   UNL     1      37.067   8.978 121.039 -2.71 -0.00    +0.000 OA
DOCKED: ATOM     21  H   UNL     1      36.652   9.266 124.205 -0.47 -0.00    +0.000 HD
DOCKED: BRANCH  18  21
DOCKED: ATOM     22  O   UNL     1      37.240   7.516 123.359 -2.14 -0.00    +0.000 OA
DOCKED: ATOM     23  H   UNL     1      37.450   7.238 122.454 -0.19 -0.00    +0.000 HD
DOCKED: ENDBRANCH  18  21
DOCKED: ENDBRANCH  16  17
DOCKED: ENDBRANCH  15  16
DOCKED: ENDBRANCH  14  15
DOCKED: ENDBRANCH  13  14
DOCKED: ENDBRANCH  12  13
DOCKED: ENDBRANCH   1  12
DOCKED: TORSDOF 9DOCKED: TER
DOCKED: ENDMDL
________________________________________________________________________________


	BEGINNING GENETIC ALGORITHM DOCKING 82 of 100
Run: 82 Seed: 1593243205 841094368 [ Run 82 of 100 GA/GALS ]
Beginning LAMARCKIAN GENETIC ALGORITHM (LGA), with a maximum of 2500000 energy evaluations.

Final-Value: -13.549


	FINAL GENETIC ALGORITHM DOCKED STATE
	_______________________________________________


Detailed state:  trans 35.288 14.159 122.664 quatxyzw 0.319146 -0.898347 0.020299 -0.301176 center -0.037 -0.159 0.371 ntor 9 179.9811 153.0959 -20.6611 172.9511 105.0678 114.1919 -62.3504 -155.4331 -177.3422
State:	 35.288  14.159 122.664   0.335 -0.942  0.021 -144.943    179.98  153.10  -20.66  172.95  105.07  114.19  -62.35 -155.43 -177.34

DOCKED: MODEL       82
DOCKED: USER    Run = 82
DOCKED: USER    DPF = ligand_dock.biased.dpf
DOCKED: USER  
DOCKED: USER    Estimated Free Energy of Binding    =   -9.84 kcal/mol  [=(1)+(2)+(3)-(4)]
DOCKED: USER    Estimated Inhibition Constant, Ki   =   61.04 nM (nanomolar)  [Temperature = 298.15 K]
DOCKED: USER    
DOCKED: USER    (1) Final Intermolecular Energy     =  -12.53 kcal/mol
DOCKED: USER        vdW + Hbond + desolv Energy     =  -12.53 kcal/mol
DOCKED: USER        Electrostatic Energy            =   +0.00 kcal/mol
DOCKED: USER    (2) Final Total Internal Energy     =   -1.02 kcal/mol
DOCKED: USER    (3) Torsional Free Energy           =   +2.68 kcal/mol
DOCKED: USER    (4) Unbound System's Energy  [=(2)] =   -1.02 kcal/mol
DOCKED: USER    
DOCKED: USER    
DOCKED: USER    NEWDPF move ligand.dum.pdbqt
DOCKED: USER    NEWDPF about -0.037000 -0.159000 0.371000
DOCKED: USER    NEWDPF tran0 35.288454 14.158796 122.663576
DOCKED: USER    NEWDPF quaternion0 0.319146 -0.898347 0.020299 -0.301176
DOCKED: USER    NEWDPF axisangle0 0.334686 -0.942089 0.021287 -144.943451
DOCKED: USER    NEWDPF quat0 0.334686 -0.942089 0.021287 -144.943451
DOCKED: USER    NEWDPF dihe0 179.98 153.10 -20.66 172.95 105.07 114.19 -62.35 -155.43 -177.34 
DOCKED: USER  keepresnum = 1 
DOCKED: USER  
DOCKED: REMARK  Name = 
DOCKED: REMARK  9 active torsions:
DOCKED: REMARK  status: ('A' for Active; 'I' for Inactive)
DOCKED: REMARK    1  A    between atoms: C_2  and  C_10
DOCKED: REMARK    2  A    between atoms: N_3  and  C_4
DOCKED: REMARK    3  A    between atoms: C_10  and  C_11
DOCKED: REMARK    4  A    between atoms: C_11  and  C_12
DOCKED: REMARK    5  A    between atoms: C_12  and  C_13
DOCKED: REMARK    6  A    between atoms: C_13  and  C_14
DOCKED: REMARK    7  A    between atoms: C_14  and  C_15
DOCKED: REMARK    8  A    between atoms: C_15  and  C_16
DOCKED: REMARK    9  A    between atoms: N_17  and  O_18
DOCKED: REMARK                            x       y       z     vdW  Elec       q    Type
DOCKED: REMARK                         _______ _______ _______ _____ _____    ______ ____
DOCKED: USER                              x       y       z     vdW  Elec       q    Type
DOCKED: USER                           _______ _______ _______ _____ _____    ______ ____
DOCKED: ROOT
DOCKED: ATOM      1  C   UNL     1      35.859  16.268 124.284 -0.35 -0.00    +0.000 C 
DOCKED: ENDROOT
DOCKED: BRANCH   1   3
DOCKED: ATOM      2  O   UNL     1      36.815  17.120 122.271 -0.20 -0.00    +0.000 OA
DOCKED: ATOM      3  C   UNL     1      36.961  16.367 123.272 -0.31 -0.00    +0.000 C 
DOCKED: ATOM      4  N   UNL     1      38.167  15.608 123.449 -0.30 -0.00    +0.000 N 
DOCKED: ATOM      5  H   UNL     1      38.180  14.914 124.147 -0.01 -0.00    +0.000 HD
DOCKED: BRANCH   4   6
DOCKED: ATOM      6  C   UNL     1      39.356  15.802 122.666 -0.28 -0.00    +0.000 A 
DOCKED: ATOM      7  C   UNL     1      39.551  16.969 121.904 -0.15 -0.00    +0.000 A 
DOCKED: ATOM      8  C   UNL     1      40.729  17.143 121.171 -0.12 -0.00    +0.000 A 
DOCKED: ATOM      9  C   UNL     1      41.726  16.164 121.201 -0.23 -0.00    +0.000 A 
DOCKED: ATOM     10  C   UNL     1      41.549  15.012 121.972 -0.36 -0.00    +0.000 A 
DOCKED: ATOM     11  C   UNL     1      40.373  14.834 122.708 -0.38 -0.00    +0.000 A 
DOCKED: ATOM     12  CM  UNL     1      40.548  15.987 121.937 +0.00 -0.00    +0.000 AC
DOCKED: ENDBRANCH   4   6
DOCKED: ENDBRANCH   1   3
DOCKED: BRANCH   1  12
DOCKED: ATOM     13  C   UNL     1      35.154  14.912 124.175 -0.56 -0.00    +0.000 C 
DOCKED: BRANCH  12  13
DOCKED: ATOM     14  C   UNL     1      35.821  14.029 123.109 -0.35 -0.00    +0.000 C 
DOCKED: BRANCH  13  14
DOCKED: ATOM     15  C   UNL     1      36.491  12.784 123.710 -0.63 -0.00    +0.000 C 
DOCKED: BRANCH  14  15
DOCKED: ATOM     16  C   UNL     1      37.309  11.996 122.671 -0.52 -0.00    +0.000 C 
DOCKED: BRANCH  15  16
DOCKED: ATOM     17  C   UNL     1      36.427  11.073 121.819 -0.54 -0.00    +0.000 C 
DOCKED: BRANCH  16  17
DOCKED: ATOM     18  C   UNL     1      36.798   9.629 121.995 -0.66 -0.00    +0.000 C 
DOCKED: ATOM     19  N   UNL     1      36.816   9.039 123.297 -0.61 -0.00    +0.000 N 
DOCKED: ATOM     20  O   UNL     1      37.068   8.926 120.983 -2.71 -0.00    +0.000 OA
DOCKED: ATOM     21  H   UNL     1      36.607   9.590 124.085 -0.44 -0.00    +0.000 HD
DOCKED: BRANCH  18  21
DOCKED: ATOM     22  O   UNL     1      37.117   7.728 123.455 -2.27 -0.00    +0.000 OA
DOCKED: ATOM     23  H   UNL     1      37.082   7.500 124.397 -0.52 -0.00    +0.000 HD
DOCKED: ENDBRANCH  18  21
DOCKED: ENDBRANCH  16  17
DOCKED: ENDBRANCH  15  16
DOCKED: ENDBRANCH  14  15
DOCKED: ENDBRANCH  13  14
DOCKED: ENDBRANCH  12  13
DOCKED: ENDBRANCH   1  12
DOCKED: TORSDOF 9DOCKED: TER
DOCKED: ENDMDL
________________________________________________________________________________


	BEGINNING GENETIC ALGORITHM DOCKING 83 of 100
Run: 83 Seed: 540094741 1540473470 [ Run 83 of 100 GA/GALS ]
Beginning LAMARCKIAN GENETIC ALGORITHM (LGA), with a maximum of 2500000 energy evaluations.

Final-Value: -12.988


	FINAL GENETIC ALGORITHM DOCKED STATE
	_______________________________________________


Detailed state:  trans 36.999 15.775 122.451 quatxyzw -0.434242 0.144396 0.837504 0.298616 center -0.037 -0.159 0.371 ntor 9 -17.9987 -148.7110 43.0117 -159.9936 58.8302 -151.4652 103.1123 95.2298 84.3328
State:	 36.999  15.775 122.451  -0.455  0.151  0.878 145.251    -18.00 -148.71   43.01 -159.99   58.83 -151.47  103.11   95.23   84.33

DOCKED: MODEL       83
DOCKED: USER    Run = 83
DOCKED: USER    DPF = ligand_dock.biased.dpf
DOCKED: USER  
DOCKED: USER    Estimated Free Energy of Binding    =   -9.06 kcal/mol  [=(1)+(2)+(3)-(4)]
DOCKED: USER    Estimated Inhibition Constant, Ki   =  228.99 nM (nanomolar)  [Temperature = 298.15 K]
DOCKED: USER    
DOCKED: USER    (1) Final Intermolecular Energy     =  -11.74 kcal/mol
DOCKED: USER        vdW + Hbond + desolv Energy     =  -11.74 kcal/mol
DOCKED: USER        Electrostatic Energy            =   +0.00 kcal/mol
DOCKED: USER    (2) Final Total Internal Energy     =   -1.24 kcal/mol
DOCKED: USER    (3) Torsional Free Energy           =   +2.68 kcal/mol
DOCKED: USER    (4) Unbound System's Energy  [=(2)] =   -1.24 kcal/mol
DOCKED: USER    
DOCKED: USER    
DOCKED: USER    NEWDPF move ligand.dum.pdbqt
DOCKED: USER    NEWDPF about -0.037000 -0.159000 0.371000
DOCKED: USER    NEWDPF tran0 36.998568 15.775241 122.451411
DOCKED: USER    NEWDPF quaternion0 -0.434242 0.144396 0.837504 0.298616
DOCKED: USER    NEWDPF axisangle0 -0.455002 0.151299 0.877543 145.251024
DOCKED: USER    NEWDPF quat0 -0.455002 0.151299 0.877543 145.251024
DOCKED: USER    NEWDPF dihe0 -18.00 -148.71 43.01 -159.99 58.83 -151.47 103.11 95.23 84.33 
DOCKED: USER  keepresnum = 1 
DOCKED: USER  
DOCKED: REMARK  Name = 
DOCKED: REMARK  9 active torsions:
DOCKED: REMARK  status: ('A' for Active; 'I' for Inactive)
DOCKED: REMARK    1  A    between atoms: C_2  and  C_10
DOCKED: REMARK    2  A    between atoms: N_3  and  C_4
DOCKED: REMARK    3  A    between atoms: C_10  and  C_11
DOCKED: REMARK    4  A    between atoms: C_11  and  C_12
DOCKED: REMARK    5  A    between atoms: C_12  and  C_13
DOCKED: REMARK    6  A    between atoms: C_13  and  C_14
DOCKED: REMARK    7  A    between atoms: C_14  and  C_15
DOCKED: REMARK    8  A    between atoms: C_15  and  C_16
DOCKED: REMARK    9  A    between atoms: N_17  and  O_18
DOCKED: REMARK                            x       y       z     vdW  Elec       q    Type
DOCKED: REMARK                         _______ _______ _______ _____ _____    ______ ____
DOCKED: USER                              x       y       z     vdW  Elec       q    Type
DOCKED: USER                           _______ _______ _______ _____ _____    ______ ____
DOCKED: ROOT
DOCKED: ATOM      1  C   UNL     1      39.595  14.965 122.433 -0.41 -0.00    +0.000 C 
DOCKED: ENDROOT
DOCKED: BRANCH   1   3
DOCKED: ATOM      2  O   UNL     1      38.751  17.140 122.935 -0.22 -0.00    +0.000 OA
DOCKED: ATOM      3  C   UNL     1      39.718  16.335 123.030 -0.27 -0.00    +0.000 C 
DOCKED: ATOM      4  N   UNL     1      40.928  16.720 123.700 -0.31 -0.00    +0.000 N 
DOCKED: ATOM      5  H   UNL     1      41.713  16.132 123.613 -0.04 +0.00    +0.000 HD
DOCKED: BRANCH   4   6
DOCKED: ATOM      6  C   UNL     1      41.061  17.913 124.490 -0.30 -0.00    +0.000 A 
DOCKED: ATOM      7  C   UNL     1      40.595  17.970 125.817 -0.28 -0.00    +0.000 A 
DOCKED: ATOM      8  C   UNL     1      40.759  19.136 126.572 -0.25 -0.00    +0.000 A 
DOCKED: ATOM      9  C   UNL     1      41.400  20.247 126.017 -0.14 -0.00    +0.000 A 
DOCKED: ATOM     10  C   UNL     1      41.884  20.190 124.708 -0.10 -0.00    +0.000 A 
DOCKED: ATOM     11  C   UNL     1      41.724  19.027 123.950 -0.15 -0.00    +0.000 A 
DOCKED: ATOM     12  CM  UNL     1      41.237  19.081 125.259 +0.00 -0.00    +0.000 AC
DOCKED: ENDBRANCH   4   6
DOCKED: ENDBRANCH   1   3
DOCKED: BRANCH   1  12
DOCKED: ATOM     13  C   UNL     1      38.208  14.776 121.813 -0.37 -0.00    +0.000 C 
DOCKED: BRANCH  12  13
DOCKED: ATOM     14  C   UNL     1      37.256  14.077 122.795 -0.50 -0.00    +0.000 C 
DOCKED: BRANCH  13  14
DOCKED: ATOM     15  C   UNL     1      37.457  12.553 122.827 -0.55 -0.00    +0.000 C 
DOCKED: BRANCH  14  15
DOCKED: ATOM     16  C   UNL     1      36.799  11.848 121.627 -0.58 -0.00    +0.000 C 
DOCKED: BRANCH  15  16
DOCKED: ATOM     17  C   UNL     1      35.879  10.699 122.063 -0.54 -0.00    +0.000 C 
DOCKED: BRANCH  16  17
DOCKED: ATOM     18  C   UNL     1      36.613   9.392 122.130 -0.70 -0.00    +0.000 C 
DOCKED: ATOM     19  N   UNL     1      36.809   8.734 123.385 -0.63 -0.00    +0.000 N 
DOCKED: ATOM     20  O   UNL     1      37.033   8.857 121.069 -2.69 -0.00    +0.000 OA
DOCKED: ATOM     21  H   UNL     1      36.482   9.155 124.212 -0.40 -0.00    +0.000 HD
DOCKED: BRANCH  18  21
DOCKED: ATOM     22  O   UNL     1      37.441   7.538 123.444 -2.08 -0.00    +0.000 OA
DOCKED: ATOM     23  H   UNL     1      37.445   7.131 122.564 -0.23 -0.00    +0.000 HD
DOCKED: ENDBRANCH  18  21
DOCKED: ENDBRANCH  16  17
DOCKED: ENDBRANCH  15  16
DOCKED: ENDBRANCH  14  15
DOCKED: ENDBRANCH  13  14
DOCKED: ENDBRANCH  12  13
DOCKED: ENDBRANCH   1  12
DOCKED: TORSDOF 9DOCKED: TER
DOCKED: ENDMDL
________________________________________________________________________________


	BEGINNING GENETIC ALGORITHM DOCKING 84 of 100
Run: 84 Seed: 578272813 1179684633 [ Run 84 of 100 GA/GALS ]
Beginning LAMARCKIAN GENETIC ALGORITHM (LGA), with a maximum of 2500000 energy evaluations.

Final-Value: -13.757


	FINAL GENETIC ALGORITHM DOCKED STATE
	_______________________________________________


Detailed state:  trans 37.555 12.910 122.007 quatxyzw 0.306860 -0.430878 -0.047780 -0.847289 center -0.037 -0.159 0.371 ntor 9 -21.8549 160.9866 106.0484 55.3136 106.6923 164.5817 88.3627 -139.0483 161.9984
State:	 37.555  12.910 122.007   0.578 -0.811 -0.090 -64.164    -21.85  160.99  106.05   55.31  106.69  164.58   88.36 -139.05  162.00

DOCKED: MODEL       84
DOCKED: USER    Run = 84
DOCKED: USER    DPF = ligand_dock.biased.dpf
DOCKED: USER  
DOCKED: USER    Estimated Free Energy of Binding    =   -9.66 kcal/mol  [=(1)+(2)+(3)-(4)]
DOCKED: USER    Estimated Inhibition Constant, Ki   =   82.32 nM (nanomolar)  [Temperature = 298.15 K]
DOCKED: USER    
DOCKED: USER    (1) Final Intermolecular Energy     =  -12.35 kcal/mol
DOCKED: USER        vdW + Hbond + desolv Energy     =  -12.35 kcal/mol
DOCKED: USER        Electrostatic Energy            =   +0.00 kcal/mol
DOCKED: USER    (2) Final Total Internal Energy     =   -1.41 kcal/mol
DOCKED: USER    (3) Torsional Free Energy           =   +2.68 kcal/mol
DOCKED: USER    (4) Unbound System's Energy  [=(2)] =   -1.41 kcal/mol
DOCKED: USER    
DOCKED: USER    
DOCKED: USER    NEWDPF move ligand.dum.pdbqt
DOCKED: USER    NEWDPF about -0.037000 -0.159000 0.371000
DOCKED: USER    NEWDPF tran0 37.554560 12.909611 122.006568
DOCKED: USER    NEWDPF quaternion0 0.306860 -0.430878 -0.047780 -0.847289
DOCKED: USER    NEWDPF axisangle0 0.577746 -0.811244 -0.089959 -64.164062
DOCKED: USER    NEWDPF quat0 0.577746 -0.811244 -0.089959 -64.164062
DOCKED: USER    NEWDPF dihe0 -21.85 160.99 106.05 55.31 106.69 164.58 88.36 -139.05 162.00 
DOCKED: USER  keepresnum = 1 
DOCKED: USER  
DOCKED: REMARK  Name = 
DOCKED: REMARK  9 active torsions:
DOCKED: REMARK  status: ('A' for Active; 'I' for Inactive)
DOCKED: REMARK    1  A    between atoms: C_2  and  C_10
DOCKED: REMARK    2  A    between atoms: N_3  and  C_4
DOCKED: REMARK    3  A    between atoms: C_10  and  C_11
DOCKED: REMARK    4  A    between atoms: C_11  and  C_12
DOCKED: REMARK    5  A    between atoms: C_12  and  C_13
DOCKED: REMARK    6  A    between atoms: C_13  and  C_14
DOCKED: REMARK    7  A    between atoms: C_14  and  C_15
DOCKED: REMARK    8  A    between atoms: C_15  and  C_16
DOCKED: REMARK    9  A    between atoms: N_17  and  O_18
DOCKED: REMARK                            x       y       z     vdW  Elec       q    Type
DOCKED: REMARK                         _______ _______ _______ _____ _____    ______ ____
DOCKED: USER                              x       y       z     vdW  Elec       q    Type
DOCKED: USER                           _______ _______ _______ _____ _____    ______ ____
DOCKED: ROOT
DOCKED: ATOM      1  C   UNL     1      38.467  15.427 121.528 -0.29 -0.00    +0.000 C 
DOCKED: ENDROOT
DOCKED: BRANCH   1   3
DOCKED: ATOM      2  O   UNL     1      36.545  15.823 120.169 -0.22 -0.00    +0.000 OA
DOCKED: ATOM      3  C   UNL     1      37.622  15.183 120.313 -0.26 -0.00    +0.000 C 
DOCKED: ATOM      4  N   UNL     1      38.044  14.227 119.327 -0.27 -0.00    +0.000 N 
DOCKED: ATOM      5  H   UNL     1      38.798  13.634 119.549 -0.11 -0.00    +0.000 HD
DOCKED: BRANCH   4   6
DOCKED: ATOM      6  C   UNL     1      37.430  14.085 118.036 -0.32 -0.00    +0.000 A 
DOCKED: ATOM      7  C   UNL     1      38.191  13.784 116.890 -0.29 -0.00    +0.000 A 
DOCKED: ATOM      8  C   UNL     1      37.564  13.628 115.650 -0.38 -0.00    +0.000 A 
DOCKED: ATOM      9  C   UNL     1      36.177  13.755 115.543 -0.27 -0.00    +0.000 A 
DOCKED: ATOM     10  C   UNL     1      35.412  14.033 116.680 -0.30 -0.00    +0.000 A 
DOCKED: ATOM     11  C   UNL     1      36.034  14.189 117.922 -0.33 -0.00    +0.000 A 
DOCKED: ATOM     12  CM  UNL     1      36.801  13.912 116.787 +0.00 -0.00    +0.000 AC
DOCKED: ENDBRANCH   4   6
DOCKED: ENDBRANCH   1   3
DOCKED: BRANCH   1  12
DOCKED: ATOM     13  C   UNL     1      38.713  14.115 122.278 -0.41 -0.00    +0.000 C 
DOCKED: BRANCH  12  13
DOCKED: ATOM     14  C   UNL     1      37.697  13.042 121.860 -0.48 -0.00    +0.000 C 
DOCKED: BRANCH  13  14
DOCKED: ATOM     15  C   UNL     1      36.491  12.969 122.809 -0.58 -0.00    +0.000 C 
DOCKED: BRANCH  14  15
DOCKED: ATOM     16  C   UNL     1      36.311  11.570 123.426 -0.71 -0.00    +0.000 C 
DOCKED: BRANCH  15  16
DOCKED: ATOM     17  C   UNL     1      35.619  10.596 122.463 -0.65 -0.00    +0.000 C 
DOCKED: BRANCH  16  17
DOCKED: ATOM     18  C   UNL     1      36.440   9.359 122.238 -0.71 -0.00    +0.000 C 
DOCKED: ATOM     19  N   UNL     1      36.721   8.469 123.321 -0.68 -0.00    +0.000 N 
DOCKED: ATOM     20  O   UNL     1      36.857   9.090 121.079 -2.66 -0.00    +0.000 OA
DOCKED: ATOM     21  H   UNL     1      36.396   8.683 124.225 -0.33 -0.00    +0.000 HD
DOCKED: BRANCH  18  21
DOCKED: ATOM     22  O   UNL     1      37.431   7.335 123.114 -1.93 -0.00    +0.000 OA
DOCKED: ATOM     23  H   UNL     1      37.381   7.089 122.177 -0.19 -0.00    +0.000 HD
DOCKED: ENDBRANCH  18  21
DOCKED: ENDBRANCH  16  17
DOCKED: ENDBRANCH  15  16
DOCKED: ENDBRANCH  14  15
DOCKED: ENDBRANCH  13  14
DOCKED: ENDBRANCH  12  13
DOCKED: ENDBRANCH   1  12
DOCKED: TORSDOF 9DOCKED: TER
DOCKED: ENDMDL
________________________________________________________________________________


	BEGINNING GENETIC ALGORITHM DOCKING 85 of 100
Run: 85 Seed: 1056665568 1073410011 [ Run 85 of 100 GA/GALS ]
Beginning LAMARCKIAN GENETIC ALGORITHM (LGA), with a maximum of 2500000 energy evaluations.

Final-Value: -13.991


	FINAL GENETIC ALGORITHM DOCKED STATE
	_______________________________________________


Detailed state:  trans 38.586 14.493 119.878 quatxyzw 0.484136 -0.830917 -0.273989 0.010897 center -0.037 -0.159 0.371 ntor 9 9.0463 157.9096 -174.7262 6.7688 -144.1386 69.3624 -177.9342 -129.9639 -35.2830
State:	 38.586  14.493 119.878   0.484 -0.831 -0.274 178.751      9.05  157.91 -174.73    6.77 -144.14   69.36 -177.93 -129.96  -35.28

DOCKED: MODEL       85
DOCKED: USER    Run = 85
DOCKED: USER    DPF = ligand_dock.biased.dpf
DOCKED: USER  
DOCKED: USER    Estimated Free Energy of Binding    =   -9.88 kcal/mol  [=(1)+(2)+(3)-(4)]
DOCKED: USER    Estimated Inhibition Constant, Ki   =   57.08 nM (nanomolar)  [Temperature = 298.15 K]
DOCKED: USER    
DOCKED: USER    (1) Final Intermolecular Energy     =  -12.57 kcal/mol
DOCKED: USER        vdW + Hbond + desolv Energy     =  -12.57 kcal/mol
DOCKED: USER        Electrostatic Energy            =   +0.00 kcal/mol
DOCKED: USER    (2) Final Total Internal Energy     =   -1.42 kcal/mol
DOCKED: USER    (3) Torsional Free Energy           =   +2.68 kcal/mol
DOCKED: USER    (4) Unbound System's Energy  [=(2)] =   -1.42 kcal/mol
DOCKED: USER    
DOCKED: USER    
DOCKED: USER    NEWDPF move ligand.dum.pdbqt
DOCKED: USER    NEWDPF about -0.037000 -0.159000 0.371000
DOCKED: USER    NEWDPF tran0 38.586462 14.493027 119.877694
DOCKED: USER    NEWDPF quaternion0 0.484136 -0.830917 -0.273989 0.010897
DOCKED: USER    NEWDPF axisangle0 0.484165 -0.830967 -0.274005 178.751305
DOCKED: USER    NEWDPF quat0 0.484165 -0.830967 -0.274005 178.751305
DOCKED: USER    NEWDPF dihe0 9.05 157.91 -174.73 6.77 -144.14 69.36 -177.93 -129.96 -35.28 
DOCKED: USER  keepresnum = 1 
DOCKED: USER  
DOCKED: REMARK  Name = 
DOCKED: REMARK  9 active torsions:
DOCKED: REMARK  status: ('A' for Active; 'I' for Inactive)
DOCKED: REMARK    1  A    between atoms: C_2  and  C_10
DOCKED: REMARK    2  A    between atoms: N_3  and  C_4
DOCKED: REMARK    3  A    between atoms: C_10  and  C_11
DOCKED: REMARK    4  A    between atoms: C_11  and  C_12
DOCKED: REMARK    5  A    between atoms: C_12  and  C_13
DOCKED: REMARK    6  A    between atoms: C_13  and  C_14
DOCKED: REMARK    7  A    between atoms: C_14  and  C_15
DOCKED: REMARK    8  A    between atoms: C_15  and  C_16
DOCKED: REMARK    9  A    between atoms: N_17  and  O_18
DOCKED: REMARK                            x       y       z     vdW  Elec       q    Type
DOCKED: REMARK                         _______ _______ _______ _____ _____    ______ ____
DOCKED: USER                              x       y       z     vdW  Elec       q    Type
DOCKED: USER                           _______ _______ _______ _____ _____    ______ ____
DOCKED: ROOT
DOCKED: ATOM      1  C   UNL     1      38.152  14.627 122.560 -0.44 -0.00    +0.000 C 
DOCKED: ENDROOT
DOCKED: BRANCH   1   3
DOCKED: ATOM      2  O   UNL     1      39.317  16.699 122.763 -0.24 -0.00    +0.000 OA
DOCKED: ATOM      3  C   UNL     1      39.371  15.488 122.415 -0.36 -0.00    +0.000 C 
DOCKED: ATOM      4  N   UNL     1      40.583  14.931 121.884 -0.39 -0.00    +0.000 N 
DOCKED: ATOM      5  H   UNL     1      40.542  14.037 121.475 -0.03 +0.00    +0.000 HD
DOCKED: BRANCH   4   6
DOCKED: ATOM      6  C   UNL     1      41.853  15.603 121.914 -0.38 -0.00    +0.000 A 
DOCKED: ATOM      7  C   UNL     1      42.715  15.594 120.801 -0.17 -0.00    +0.000 A 
DOCKED: ATOM      8  C   UNL     1      43.934  16.277 120.849 -0.23 -0.00    +0.000 A 
DOCKED: ATOM      9  C   UNL     1      44.298  16.984 121.998 -0.28 -0.00    +0.000 A 
DOCKED: ATOM     10  C   UNL     1      43.438  17.015 123.099 -0.30 -0.00    +0.000 A 
DOCKED: ATOM     11  C   UNL     1      42.217  16.335 123.055 -0.39 -0.00    +0.000 A 
DOCKED: ATOM     12  CM  UNL     1      43.076  16.302 121.953 +0.00 -0.00    +0.000 AC
DOCKED: ENDBRANCH   4   6
DOCKED: ENDBRANCH   1   3
DOCKED: BRANCH   1  12
DOCKED: ATOM     13  C   UNL     1      37.913  13.821 121.279 -0.42 -0.00    +0.000 C 
DOCKED: BRANCH  12  13
DOCKED: ATOM     14  C   UNL     1      37.351  12.429 121.600 -0.52 -0.00    +0.000 C 
DOCKED: BRANCH  13  14
DOCKED: ATOM     15  C   UNL     1      37.209  12.185 123.111 -0.61 -0.00    +0.000 C 
DOCKED: BRANCH  14  15
DOCKED: ATOM     16  C   UNL     1      35.945  11.379 123.461 -0.70 -0.00    +0.000 C 
DOCKED: BRANCH  15  16
DOCKED: ATOM     17  C   UNL     1      35.530  10.429 122.328 -0.64 -0.00    +0.000 C 
DOCKED: BRANCH  16  17
DOCKED: ATOM     18  C   UNL     1      36.416   9.218 122.264 -0.72 -0.00    +0.000 C 
DOCKED: ATOM     19  N   UNL     1      36.507   8.327 123.379 -0.67 -0.00    +0.000 N 
DOCKED: ATOM     20  O   UNL     1      37.059   8.971 121.209 -2.70 -0.00    +0.000 OA
DOCKED: ATOM     21  H   UNL     1      36.005   8.524 124.203 -0.21 -0.00    +0.000 HD
DOCKED: BRANCH  18  21
DOCKED: ATOM     22  O   UNL     1      37.278   7.217 123.311 -1.89 -0.00    +0.000 OA
DOCKED: ATOM     23  H   UNL     1      37.810   7.242 122.502 -0.28 -0.00    +0.000 HD
DOCKED: ENDBRANCH  18  21
DOCKED: ENDBRANCH  16  17
DOCKED: ENDBRANCH  15  16
DOCKED: ENDBRANCH  14  15
DOCKED: ENDBRANCH  13  14
DOCKED: ENDBRANCH  12  13
DOCKED: ENDBRANCH   1  12
DOCKED: TORSDOF 9DOCKED: TER
DOCKED: ENDMDL
________________________________________________________________________________


	BEGINNING GENETIC ALGORITHM DOCKING 86 of 100
Run: 86 Seed: 1681077861 30954447 [ Run 86 of 100 GA/GALS ]
Beginning LAMARCKIAN GENETIC ALGORITHM (LGA), with a maximum of 2500000 energy evaluations.

Final-Value: -14.227


	FINAL GENETIC ALGORITHM DOCKED STATE
	_______________________________________________


Detailed state:  trans 36.496 12.484 120.440 quatxyzw -0.313906 0.590541 0.095958 0.737236 center -0.037 -0.159 0.371 ntor 9 -12.1596 111.5211 -99.2260 89.4438 129.5058 4.2438 -54.4365 -106.6199 11.3537
State:	 36.496  12.484 120.440  -0.465  0.874  0.142 85.007    -12.16  111.52  -99.23   89.44  129.51    4.24  -54.44 -106.62   11.35

DOCKED: MODEL       86
DOCKED: USER    Run = 86
DOCKED: USER    DPF = ligand_dock.biased.dpf
DOCKED: USER  
DOCKED: USER    Estimated Free Energy of Binding    =  -10.25 kcal/mol  [=(1)+(2)+(3)-(4)]
DOCKED: USER    Estimated Inhibition Constant, Ki   =   30.65 nM (nanomolar)  [Temperature = 298.15 K]
DOCKED: USER    
DOCKED: USER    (1) Final Intermolecular Energy     =  -12.93 kcal/mol
DOCKED: USER        vdW + Hbond + desolv Energy     =  -12.93 kcal/mol
DOCKED: USER        Electrostatic Energy            =   +0.00 kcal/mol
DOCKED: USER    (2) Final Total Internal Energy     =   -1.29 kcal/mol
DOCKED: USER    (3) Torsional Free Energy           =   +2.68 kcal/mol
DOCKED: USER    (4) Unbound System's Energy  [=(2)] =   -1.29 kcal/mol
DOCKED: USER    
DOCKED: USER    
DOCKED: USER    NEWDPF move ligand.dum.pdbqt
DOCKED: USER    NEWDPF about -0.037000 -0.159000 0.371000
DOCKED: USER    NEWDPF tran0 36.495797 12.484076 120.439961
DOCKED: USER    NEWDPF quaternion0 -0.313906 0.590541 0.095958 0.737236
DOCKED: USER    NEWDPF axisangle0 -0.464608 0.874053 0.142026 85.007043
DOCKED: USER    NEWDPF quat0 -0.464608 0.874053 0.142026 85.007043
DOCKED: USER    NEWDPF dihe0 -12.16 111.52 -99.23 89.44 129.51 4.24 -54.44 -106.62 11.35 
DOCKED: USER  keepresnum = 1 
DOCKED: USER  
DOCKED: REMARK  Name = 
DOCKED: REMARK  9 active torsions:
DOCKED: REMARK  status: ('A' for Active; 'I' for Inactive)
DOCKED: REMARK    1  A    between atoms: C_2  and  C_10
DOCKED: REMARK    2  A    between atoms: N_3  and  C_4
DOCKED: REMARK    3  A    between atoms: C_10  and  C_11
DOCKED: REMARK    4  A    between atoms: C_11  and  C_12
DOCKED: REMARK    5  A    between atoms: C_12  and  C_13
DOCKED: REMARK    6  A    between atoms: C_13  and  C_14
DOCKED: REMARK    7  A    between atoms: C_14  and  C_15
DOCKED: REMARK    8  A    between atoms: C_15  and  C_16
DOCKED: REMARK    9  A    between atoms: N_17  and  O_18
DOCKED: REMARK                            x       y       z     vdW  Elec       q    Type
DOCKED: REMARK                         _______ _______ _______ _____ _____    ______ ____
DOCKED: USER                              x       y       z     vdW  Elec       q    Type
DOCKED: USER                           _______ _______ _______ _____ _____    ______ ____
DOCKED: ROOT
DOCKED: ATOM      1  C   UNL     1      37.913  14.799 120.622 -0.30 -0.00    +0.000 C 
DOCKED: ENDROOT
DOCKED: BRANCH   1   3
DOCKED: ATOM      2  O   UNL     1      37.200  15.912 118.635 -0.16 -0.00    +0.000 OA
DOCKED: ATOM      3  C   UNL     1      37.503  14.816 119.179 -0.27 -0.00    +0.000 C 
DOCKED: ATOM      4  N   UNL     1      37.460  13.590 118.432 -0.37 -0.00    +0.000 N 
DOCKED: ATOM      5  H   UNL     1      37.544  12.743 118.926 -0.07 -0.00    +0.000 HD
DOCKED: BRANCH   4   6
DOCKED: ATOM      6  C   UNL     1      37.301  13.528 117.005 -0.36 -0.00    +0.000 A 
DOCKED: ATOM      7  C   UNL     1      36.146  14.027 116.373 -0.30 -0.00    +0.000 A 
DOCKED: ATOM      8  C   UNL     1      36.028  13.976 114.980 -0.26 -0.00    +0.000 A 
DOCKED: ATOM      9  C   UNL     1      37.063  13.442 114.207 -0.33 -0.00    +0.000 A 
DOCKED: ATOM     10  C   UNL     1      38.221  12.965 114.826 -0.44 -0.00    +0.000 A 
DOCKED: ATOM     11  C   UNL     1      38.344  13.015 116.218 -0.40 -0.00    +0.000 A 
DOCKED: ATOM     12  CM  UNL     1      37.184  13.492 115.601 +0.00 -0.00    +0.000 AC
DOCKED: ENDBRANCH   4   6
DOCKED: ENDBRANCH   1   3
DOCKED: BRANCH   1  12
DOCKED: ATOM     13  C   UNL     1      37.672  13.413 121.228 -0.46 -0.00    +0.000 C 
DOCKED: BRANCH  12  13
DOCKED: ATOM     14  C   UNL     1      37.818  13.447 122.756 -0.52 -0.00    +0.000 C 
DOCKED: BRANCH  13  14
DOCKED: ATOM     15  C   UNL     1      36.546  12.976 123.480 -0.63 -0.00    +0.000 C 
DOCKED: BRANCH  14  15
DOCKED: ATOM     16  C   UNL     1      36.394  11.444 123.465 -0.71 -0.00    +0.000 C 
DOCKED: BRANCH  15  16
DOCKED: ATOM     17  C   UNL     1      36.386  10.876 122.039 -0.62 -0.00    +0.000 C 
DOCKED: BRANCH  16  17
DOCKED: ATOM     18  C   UNL     1      36.757   9.421 122.018 -0.69 -0.00    +0.000 C 
DOCKED: ATOM     19  N   UNL     1      36.773   8.659 123.228 -0.67 -0.00    +0.000 N 
DOCKED: ATOM     20  O   UNL     1      37.027   8.863 120.920 -2.70 -0.00    +0.000 OA
DOCKED: ATOM     21  H   UNL     1      36.563   9.099 124.083 -0.41 -0.00    +0.000 HD
DOCKED: BRANCH  18  21
DOCKED: ATOM     22  O   UNL     1      37.073   7.339 123.206 -2.14 -0.00    +0.000 OA
DOCKED: ATOM     23  H   UNL     1      37.064   7.021 122.290 -0.11 -0.00    +0.000 HD
DOCKED: ENDBRANCH  18  21
DOCKED: ENDBRANCH  16  17
DOCKED: ENDBRANCH  15  16
DOCKED: ENDBRANCH  14  15
DOCKED: ENDBRANCH  13  14
DOCKED: ENDBRANCH  12  13
DOCKED: ENDBRANCH   1  12
DOCKED: TORSDOF 9DOCKED: TER
DOCKED: ENDMDL
________________________________________________________________________________


	BEGINNING GENETIC ALGORITHM DOCKING 87 of 100
Run: 87 Seed: 1609635656 47520159 [ Run 87 of 100 GA/GALS ]
Beginning LAMARCKIAN GENETIC ALGORITHM (LGA), with a maximum of 2500000 energy evaluations.

Final-Value: -14.504


	FINAL GENETIC ALGORITHM DOCKED STATE
	_______________________________________________


Detailed state:  trans 36.940 14.824 122.451 quatxyzw -0.229485 -0.495194 -0.403424 -0.734417 center -0.037 -0.159 0.371 ntor 9 5.9901 107.2861 -103.6746 39.6847 -162.6891 115.2850 -4.8331 -179.4996 -130.2822
State:	 36.940  14.824 122.451  -0.338 -0.730 -0.594 -85.484      5.99  107.29 -103.67   39.68 -162.69  115.28   -4.83 -179.50 -130.28

DOCKED: MODEL       87
DOCKED: USER    Run = 87
DOCKED: USER    DPF = ligand_dock.biased.dpf
DOCKED: USER  
DOCKED: USER    Estimated Free Energy of Binding    =  -10.14 kcal/mol  [=(1)+(2)+(3)-(4)]
DOCKED: USER    Estimated Inhibition Constant, Ki   =   36.87 nM (nanomolar)  [Temperature = 298.15 K]
DOCKED: USER    
DOCKED: USER    (1) Final Intermolecular Energy     =  -12.83 kcal/mol
DOCKED: USER        vdW + Hbond + desolv Energy     =  -12.83 kcal/mol
DOCKED: USER        Electrostatic Energy            =   +0.00 kcal/mol
DOCKED: USER    (2) Final Total Internal Energy     =   -1.68 kcal/mol
DOCKED: USER    (3) Torsional Free Energy           =   +2.68 kcal/mol
DOCKED: USER    (4) Unbound System's Energy  [=(2)] =   -1.68 kcal/mol
DOCKED: USER    
DOCKED: USER    
DOCKED: USER    NEWDPF move ligand.dum.pdbqt
DOCKED: USER    NEWDPF about -0.037000 -0.159000 0.371000
DOCKED: USER    NEWDPF tran0 36.940158 14.823546 122.450966
DOCKED: USER    NEWDPF quaternion0 -0.229485 -0.495194 -0.403424 -0.734417
DOCKED: USER    NEWDPF axisangle0 -0.338125 -0.729623 -0.594409 -85.483999
DOCKED: USER    NEWDPF quat0 -0.338125 -0.729623 -0.594409 -85.483999
DOCKED: USER    NEWDPF dihe0 5.99 107.29 -103.67 39.68 -162.69 115.28 -4.83 -179.50 -130.28 
DOCKED: USER  keepresnum = 1 
DOCKED: USER  
DOCKED: REMARK  Name = 
DOCKED: REMARK  9 active torsions:
DOCKED: REMARK  status: ('A' for Active; 'I' for Inactive)
DOCKED: REMARK    1  A    between atoms: C_2  and  C_10
DOCKED: REMARK    2  A    between atoms: N_3  and  C_4
DOCKED: REMARK    3  A    between atoms: C_10  and  C_11
DOCKED: REMARK    4  A    between atoms: C_11  and  C_12
DOCKED: REMARK    5  A    between atoms: C_12  and  C_13
DOCKED: REMARK    6  A    between atoms: C_13  and  C_14
DOCKED: REMARK    7  A    between atoms: C_14  and  C_15
DOCKED: REMARK    8  A    between atoms: C_15  and  C_16
DOCKED: REMARK    9  A    between atoms: N_17  and  O_18
DOCKED: REMARK                            x       y       z     vdW  Elec       q    Type
DOCKED: REMARK                         _______ _______ _______ _____ _____    ______ ____
DOCKED: USER                              x       y       z     vdW  Elec       q    Type
DOCKED: USER                           _______ _______ _______ _____ _____    ______ ____
DOCKED: ROOT
DOCKED: ATOM      1  C   UNL     1      39.275  14.411 121.118 -0.33 -0.00    +0.000 C 
DOCKED: ENDROOT
DOCKED: BRANCH   1   3
DOCKED: ATOM      2  O   UNL     1      37.848  15.788 119.791 -0.18 -0.00    +0.000 OA
DOCKED: ATOM      3  C   UNL     1      38.322  14.636 119.982 -0.28 -0.00    +0.000 C 
DOCKED: ATOM      4  N   UNL     1      37.958  13.543 119.124 -0.28 -0.00    +0.000 N 
DOCKED: ATOM      5  H   UNL     1      38.216  12.633 119.398 -0.13 -0.00    +0.000 HD
DOCKED: BRANCH   4   6
DOCKED: ATOM      6  C   UNL     1      37.240  13.699 117.890 -0.36 -0.00    +0.000 A 
DOCKED: ATOM      7  C   UNL     1      35.906  14.149 117.869 -0.33 -0.00    +0.000 A 
DOCKED: ATOM      8  C   UNL     1      35.238  14.316 116.652 -0.30 -0.00    +0.000 A 
DOCKED: ATOM      9  C   UNL     1      35.896  14.049 115.448 -0.27 -0.00    +0.000 A 
DOCKED: ATOM     10  C   UNL     1      37.226  13.623 115.460 -0.35 -0.00    +0.000 A 
DOCKED: ATOM     11  C   UNL     1      37.899  13.456 116.674 -0.37 -0.00    +0.000 A 
DOCKED: ATOM     12  CM  UNL     1      36.568  13.882 116.665 +0.00 -0.00    +0.000 AC
DOCKED: ENDBRANCH   4   6
DOCKED: ENDBRANCH   1   3
DOCKED: BRANCH   1  12
DOCKED: ATOM     13  C   UNL     1      38.505  14.177 122.421 -0.45 -0.00    +0.000 C 
DOCKED: BRANCH  12  13
DOCKED: ATOM     14  C   UNL     1      37.412  13.115 122.232 -0.53 -0.00    +0.000 C 
DOCKED: BRANCH  13  14
DOCKED: ATOM     15  C   UNL     1      36.757  12.701 123.560 -0.64 -0.00    +0.000 C 
DOCKED: BRANCH  14  15
DOCKED: ATOM     16  C   UNL     1      35.812  11.497 123.400 -0.66 -0.00    +0.000 C 
DOCKED: BRANCH  15  16
DOCKED: ATOM     17  C   UNL     1      35.945  10.834 122.021 -0.55 -0.00    +0.000 C 
DOCKED: BRANCH  16  17
DOCKED: ATOM     18  C   UNL     1      36.619   9.496 122.110 -0.69 -0.00    +0.000 C 
DOCKED: ATOM     19  N   UNL     1      36.863   8.889 123.382 -0.61 -0.00    +0.000 N 
DOCKED: ATOM     20  O   UNL     1      36.945   8.890 121.053 -2.68 -0.00    +0.000 OA
DOCKED: ATOM     21  H   UNL     1      36.609   9.365 124.205 -0.45 -0.00    +0.000 HD
DOCKED: BRANCH  18  21
DOCKED: ATOM     22  O   UNL     1      37.440   7.667 123.462 -2.15 -0.00    +0.000 OA
DOCKED: ATOM     23  H   UNL     1      37.712   7.379 122.577 -0.24 -0.00    +0.000 HD
DOCKED: ENDBRANCH  18  21
DOCKED: ENDBRANCH  16  17
DOCKED: ENDBRANCH  15  16
DOCKED: ENDBRANCH  14  15
DOCKED: ENDBRANCH  13  14
DOCKED: ENDBRANCH  12  13
DOCKED: ENDBRANCH   1  12
DOCKED: TORSDOF 9DOCKED: TER
DOCKED: ENDMDL
________________________________________________________________________________


	BEGINNING GENETIC ALGORITHM DOCKING 88 of 100
Run: 88 Seed: 118790495 974392526 [ Run 88 of 100 GA/GALS ]
Beginning LAMARCKIAN GENETIC ALGORITHM (LGA), with a maximum of 2500000 energy evaluations.

Final-Value: -13.933


	FINAL GENETIC ALGORITHM DOCKED STATE
	_______________________________________________


Detailed state:  trans 35.848 13.818 123.023 quatxyzw -0.248443 0.877214 -0.340184 0.230319 center -0.037 -0.159 0.371 ntor 9 9.3379 82.4803 -97.4307 104.7008 12.7036 156.8526 96.8786 -174.8696 -162.3443
State:	 35.848  13.818 123.023  -0.255  0.901 -0.350 153.368      9.34   82.48  -97.43  104.70   12.70  156.85   96.88 -174.87 -162.34

DOCKED: MODEL       88
DOCKED: USER    Run = 88
DOCKED: USER    DPF = ligand_dock.biased.dpf
DOCKED: USER  
DOCKED: USER    Estimated Free Energy of Binding    =   -9.84 kcal/mol  [=(1)+(2)+(3)-(4)]
DOCKED: USER    Estimated Inhibition Constant, Ki   =   60.79 nM (nanomolar)  [Temperature = 298.15 K]
DOCKED: USER    
DOCKED: USER    (1) Final Intermolecular Energy     =  -12.53 kcal/mol
DOCKED: USER        vdW + Hbond + desolv Energy     =  -12.53 kcal/mol
DOCKED: USER        Electrostatic Energy            =   +0.00 kcal/mol
DOCKED: USER    (2) Final Total Internal Energy     =   -1.40 kcal/mol
DOCKED: USER    (3) Torsional Free Energy           =   +2.68 kcal/mol
DOCKED: USER    (4) Unbound System's Energy  [=(2)] =   -1.40 kcal/mol
DOCKED: USER    
DOCKED: USER    
DOCKED: USER    NEWDPF move ligand.dum.pdbqt
DOCKED: USER    NEWDPF about -0.037000 -0.159000 0.371000
DOCKED: USER    NEWDPF tran0 35.848064 13.818286 123.022922
DOCKED: USER    NEWDPF quaternion0 -0.248443 0.877214 -0.340184 0.230319
DOCKED: USER    NEWDPF axisangle0 -0.255307 0.901449 -0.349582 153.368350
DOCKED: USER    NEWDPF quat0 -0.255307 0.901449 -0.349582 153.368350
DOCKED: USER    NEWDPF dihe0 9.34 82.48 -97.43 104.70 12.70 156.85 96.88 -174.87 -162.34 
DOCKED: USER  keepresnum = 1 
DOCKED: USER  
DOCKED: REMARK  Name = 
DOCKED: REMARK  9 active torsions:
DOCKED: REMARK  status: ('A' for Active; 'I' for Inactive)
DOCKED: REMARK    1  A    between atoms: C_2  and  C_10
DOCKED: REMARK    2  A    between atoms: N_3  and  C_4
DOCKED: REMARK    3  A    between atoms: C_10  and  C_11
DOCKED: REMARK    4  A    between atoms: C_11  and  C_12
DOCKED: REMARK    5  A    between atoms: C_12  and  C_13
DOCKED: REMARK    6  A    between atoms: C_13  and  C_14
DOCKED: REMARK    7  A    between atoms: C_14  and  C_15
DOCKED: REMARK    8  A    between atoms: C_15  and  C_16
DOCKED: REMARK    9  A    between atoms: N_17  and  O_18
DOCKED: REMARK                            x       y       z     vdW  Elec       q    Type
DOCKED: REMARK                         _______ _______ _______ _____ _____    ______ ____
DOCKED: USER                              x       y       z     vdW  Elec       q    Type
DOCKED: USER                           _______ _______ _______ _____ _____    ______ ____
DOCKED: ROOT
DOCKED: ATOM      1  C   UNL     1      35.888  16.525 123.286 -0.36 -0.00    +0.000 C 
DOCKED: ENDROOT
DOCKED: BRANCH   1   3
DOCKED: ATOM      2  O   UNL     1      37.402  15.970 121.527 -0.22 -0.00    +0.000 OA
DOCKED: ATOM      3  C   UNL     1      37.262  16.261 122.746 -0.29 -0.00    +0.000 C 
DOCKED: ATOM      4  N   UNL     1      38.402  16.340 123.615 -0.25 -0.00    +0.000 N 
DOCKED: ATOM      5  H   UNL     1      38.241  16.408 124.584 -0.02 -0.00    +0.000 HD
DOCKED: BRANCH   4   6
DOCKED: ATOM      6  C   UNL     1      39.763  16.326 123.154 -0.17 -0.00    +0.000 A 
DOCKED: ATOM      7  C   UNL     1      40.280  15.237 122.428 -0.38 -0.00    +0.000 A 
DOCKED: ATOM      8  C   UNL     1      41.602  15.260 121.970 -0.39 -0.00    +0.000 A 
DOCKED: ATOM      9  C   UNL     1      42.411  16.372 122.219 -0.35 -0.00    +0.000 A 
DOCKED: ATOM     10  C   UNL     1      41.898  17.466 122.921 -0.27 -0.00    +0.000 A 
DOCKED: ATOM     11  C   UNL     1      40.577  17.448 123.379 -0.25 -0.00    +0.000 A 
DOCKED: ATOM     12  CM  UNL     1      41.089  16.352 122.679 +0.00 -0.00    +0.000 AC
DOCKED: ENDBRANCH   4   6
DOCKED: ENDBRANCH   1   3
DOCKED: BRANCH   1  12
DOCKED: ATOM     13  C   UNL     1      35.238  15.219 123.753 -0.55 -0.00    +0.000 C 
DOCKED: BRANCH  12  13
DOCKED: ATOM     14  C   UNL     1      36.291  14.118 123.947 -0.47 -0.00    +0.000 C 
DOCKED: BRANCH  13  14
DOCKED: ATOM     15  C   UNL     1      36.584  13.348 122.650 -0.52 -0.00    +0.000 C 
DOCKED: BRANCH  14  15
DOCKED: ATOM     16  C   UNL     1      36.516  11.822 122.843 -0.67 -0.00    +0.000 C 
DOCKED: BRANCH  15  16
DOCKED: ATOM     17  C   UNL     1      36.953  11.058 121.585 -0.53 -0.00    +0.000 C 
DOCKED: BRANCH  16  17
DOCKED: ATOM     18  C   UNL     1      37.029   9.579 121.830 -0.60 -0.00    +0.000 C 
DOCKED: ATOM     19  N   UNL     1      37.030   9.065 123.165 -0.65 -0.00    +0.000 N 
DOCKED: ATOM     20  O   UNL     1      37.062   8.786 120.851 -2.66 -0.00    +0.000 OA
DOCKED: ATOM     21  H   UNL     1      37.007   9.687 123.927 -0.48 -0.00    +0.000 HD
DOCKED: BRANCH  18  21
DOCKED: ATOM     22  O   UNL     1      37.064   7.730 123.387 -2.30 -0.00    +0.000 OA
DOCKED: ATOM     23  H   UNL     1      37.232   7.267 122.552 -0.13 -0.00    +0.000 HD
DOCKED: ENDBRANCH  18  21
DOCKED: ENDBRANCH  16  17
DOCKED: ENDBRANCH  15  16
DOCKED: ENDBRANCH  14  15
DOCKED: ENDBRANCH  13  14
DOCKED: ENDBRANCH  12  13
DOCKED: ENDBRANCH   1  12
DOCKED: TORSDOF 9DOCKED: TER
DOCKED: ENDMDL
________________________________________________________________________________


	BEGINNING GENETIC ALGORITHM DOCKING 89 of 100
Run: 89 Seed: 1385446477 1821511692 [ Run 89 of 100 GA/GALS ]
Beginning LAMARCKIAN GENETIC ALGORITHM (LGA), with a maximum of 2500000 energy evaluations.

Final-Value: -14.030


	FINAL GENETIC ALGORITHM DOCKED STATE
	_______________________________________________


Detailed state:  trans 34.350 11.628 123.059 quatxyzw -0.442976 -0.674547 0.249195 -0.535406 center -0.037 -0.159 0.371 ntor 9 -2.8413 -178.8185 -172.9704 174.6911 -131.1998 170.3794 -39.8702 -86.9189 -35.7240
State:	 34.350  11.628 123.059  -0.524 -0.799  0.295 -115.257     -2.84 -178.82 -172.97  174.69 -131.20  170.38  -39.87  -86.92  -35.72

DOCKED: MODEL       89
DOCKED: USER    Run = 89
DOCKED: USER    DPF = ligand_dock.biased.dpf
DOCKED: USER  
DOCKED: USER    Estimated Free Energy of Binding    =   -9.79 kcal/mol  [=(1)+(2)+(3)-(4)]
DOCKED: USER    Estimated Inhibition Constant, Ki   =   66.35 nM (nanomolar)  [Temperature = 298.15 K]
DOCKED: USER    
DOCKED: USER    (1) Final Intermolecular Energy     =  -12.48 kcal/mol
DOCKED: USER        vdW + Hbond + desolv Energy     =  -12.48 kcal/mol
DOCKED: USER        Electrostatic Energy            =   +0.00 kcal/mol
DOCKED: USER    (2) Final Total Internal Energy     =   -1.55 kcal/mol
DOCKED: USER    (3) Torsional Free Energy           =   +2.68 kcal/mol
DOCKED: USER    (4) Unbound System's Energy  [=(2)] =   -1.55 kcal/mol
DOCKED: USER    
DOCKED: USER    
DOCKED: USER    NEWDPF move ligand.dum.pdbqt
DOCKED: USER    NEWDPF about -0.037000 -0.159000 0.371000
DOCKED: USER    NEWDPF tran0 34.349615 11.627917 123.059335
DOCKED: USER    NEWDPF quaternion0 -0.442976 -0.674547 0.249195 -0.535406
DOCKED: USER    NEWDPF axisangle0 -0.524484 -0.798664 0.295047 -115.257088
DOCKED: USER    NEWDPF quat0 -0.524484 -0.798664 0.295047 -115.257088
DOCKED: USER    NEWDPF dihe0 -2.84 -178.82 -172.97 174.69 -131.20 170.38 -39.87 -86.92 -35.72 
DOCKED: USER  keepresnum = 1 
DOCKED: USER  
DOCKED: REMARK  Name = 
DOCKED: REMARK  9 active torsions:
DOCKED: REMARK  status: ('A' for Active; 'I' for Inactive)
DOCKED: REMARK    1  A    between atoms: C_2  and  C_10
DOCKED: REMARK    2  A    between atoms: N_3  and  C_4
DOCKED: REMARK    3  A    between atoms: C_10  and  C_11
DOCKED: REMARK    4  A    between atoms: C_11  and  C_12
DOCKED: REMARK    5  A    between atoms: C_12  and  C_13
DOCKED: REMARK    6  A    between atoms: C_13  and  C_14
DOCKED: REMARK    7  A    between atoms: C_14  and  C_15
DOCKED: REMARK    8  A    between atoms: C_15  and  C_16
DOCKED: REMARK    9  A    between atoms: N_17  and  O_18
DOCKED: REMARK                            x       y       z     vdW  Elec       q    Type
DOCKED: REMARK                         _______ _______ _______ _____ _____    ______ ____
DOCKED: USER                              x       y       z     vdW  Elec       q    Type
DOCKED: USER                           _______ _______ _______ _____ _____    ______ ____
DOCKED: ROOT
DOCKED: ATOM      1  C   UNL     1      36.888  11.558 122.085 -0.60 -0.00    +0.000 C 
DOCKED: ENDROOT
DOCKED: BRANCH   1   3
DOCKED: ATOM      2  O   UNL     1      37.143   9.357 121.199 -2.55 -0.00    +0.000 OA
DOCKED: ATOM      3  C   UNL     1      36.483  10.120 121.955 -0.60 -0.00    +0.000 C 
DOCKED: ATOM      4  N   UNL     1      35.351   9.626 122.688 -0.60 -0.00    +0.000 N 
DOCKED: ATOM      5  H   UNL     1      34.767  10.280 123.136 -0.32 -0.00    +0.000 HD
DOCKED: BRANCH   4   6
DOCKED: ATOM      6  C   UNL     1      35.021   8.232 122.806 -0.61 -0.00    +0.000 A 
DOCKED: ATOM      7  C   UNL     1      33.698   7.775 122.654 -0.64 -0.00    +0.000 A 
DOCKED: ATOM      8  C   UNL     1      33.409   6.411 122.750 -0.66 -0.00    +0.000 A 
DOCKED: ATOM      9  C   UNL     1      34.434   5.491 122.984 -0.27 -0.00    +0.000 A 
DOCKED: ATOM     10  C   UNL     1      35.753   5.934 123.115 -0.62 -0.00    +0.000 A 
DOCKED: ATOM     11  C   UNL     1      36.048   7.297 123.018 -0.69 -0.00    +0.000 A 
DOCKED: ATOM     12  CM  UNL     1      34.728   6.856 122.888 +0.00 -0.00    +0.000 AC
DOCKED: ENDBRANCH   4   6
DOCKED: ENDBRANCH   1   3
DOCKED: BRANCH   1  12
DOCKED: ATOM     13  C   UNL     1      35.896  12.314 122.973 -0.55 -0.00    +0.000 C 
DOCKED: BRANCH  12  13
DOCKED: ATOM     14  C   UNL     1      36.613  13.372 123.825 -0.52 -0.00    +0.000 C 
DOCKED: BRANCH  13  14
DOCKED: ATOM     15  C   UNL     1      35.856  14.709 123.862 -0.53 -0.00    +0.000 C 
DOCKED: BRANCH  14  15
DOCKED: ATOM     16  C   UNL     1      36.659  15.858 123.225 -0.37 -0.00    +0.000 C 
DOCKED: BRANCH  15  16
DOCKED: ATOM     17  C   UNL     1      37.360  15.427 121.929 -0.30 -0.00    +0.000 C 
DOCKED: BRANCH  16  17
DOCKED: ATOM     18  C   UNL     1      38.854  15.500 122.053 -0.32 -0.00    +0.000 C 
DOCKED: ATOM     19  N   UNL     1      39.587  14.421 122.639 -0.41 -0.00    +0.000 N 
DOCKED: ATOM     20  O   UNL     1      39.468  16.508 121.610 -0.18 -0.00    +0.000 OA
DOCKED: ATOM     21  H   UNL     1      39.105  13.636 122.986 -0.04 -0.00    +0.000 HD
DOCKED: BRANCH  18  21
DOCKED: ATOM     22  O   UNL     1      40.937  14.470 122.720 -1.09 -0.00    +0.000 OA
DOCKED: ATOM     23  H   UNL     1      41.257  15.281 122.297 -0.02 -0.00    +0.000 HD
DOCKED: ENDBRANCH  18  21
DOCKED: ENDBRANCH  16  17
DOCKED: ENDBRANCH  15  16
DOCKED: ENDBRANCH  14  15
DOCKED: ENDBRANCH  13  14
DOCKED: ENDBRANCH  12  13
DOCKED: ENDBRANCH   1  12
DOCKED: TORSDOF 9DOCKED: TER
DOCKED: ENDMDL
________________________________________________________________________________


	BEGINNING GENETIC ALGORITHM DOCKING 90 of 100
Run: 90 Seed: 1972575070 29440689 [ Run 90 of 100 GA/GALS ]
Beginning LAMARCKIAN GENETIC ALGORITHM (LGA), with a maximum of 2500000 energy evaluations.

Final-Value: -14.382


	FINAL GENETIC ALGORITHM DOCKED STATE
	_______________________________________________


Detailed state:  trans 36.951 11.470 119.688 quatxyzw -0.659764 -0.685816 -0.115160 0.284793 center -0.037 -0.159 0.371 ntor 9 -4.1253 2.1140 -160.4279 -179.3519 113.1040 -145.9895 -179.3087 151.7599 -16.5631
State:	 36.951  11.470 119.688  -0.688 -0.715 -0.120 146.907     -4.13    2.11 -160.43 -179.35  113.10 -145.99 -179.31  151.76  -16.56

DOCKED: MODEL       90
DOCKED: USER    Run = 90
DOCKED: USER    DPF = ligand_dock.biased.dpf
DOCKED: USER  
DOCKED: USER    Estimated Free Energy of Binding    =  -10.43 kcal/mol  [=(1)+(2)+(3)-(4)]
DOCKED: USER    Estimated Inhibition Constant, Ki   =   22.47 nM (nanomolar)  [Temperature = 298.15 K]
DOCKED: USER    
DOCKED: USER    (1) Final Intermolecular Energy     =  -13.12 kcal/mol
DOCKED: USER        vdW + Hbond + desolv Energy     =  -13.12 kcal/mol
DOCKED: USER        Electrostatic Energy            =   +0.00 kcal/mol
DOCKED: USER    (2) Final Total Internal Energy     =   -1.26 kcal/mol
DOCKED: USER    (3) Torsional Free Energy           =   +2.68 kcal/mol
DOCKED: USER    (4) Unbound System's Energy  [=(2)] =   -1.26 kcal/mol
DOCKED: USER    
DOCKED: USER    
DOCKED: USER    NEWDPF move ligand.dum.pdbqt
DOCKED: USER    NEWDPF about -0.037000 -0.159000 0.371000
DOCKED: USER    NEWDPF tran0 36.951239 11.469502 119.687537
DOCKED: USER    NEWDPF quaternion0 -0.659764 -0.685816 -0.115160 0.284793
DOCKED: USER    NEWDPF axisangle0 -0.688265 -0.715443 -0.120134 146.907073
DOCKED: USER    NEWDPF quat0 -0.688265 -0.715443 -0.120134 146.907073
DOCKED: USER    NEWDPF dihe0 -4.13 2.11 -160.43 -179.35 113.10 -145.99 -179.31 151.76 -16.56 
DOCKED: USER  keepresnum = 1 
DOCKED: USER  
DOCKED: REMARK  Name = 
DOCKED: REMARK  9 active torsions:
DOCKED: REMARK  status: ('A' for Active; 'I' for Inactive)
DOCKED: REMARK    1  A    between atoms: C_2  and  C_10
DOCKED: REMARK    2  A    between atoms: N_3  and  C_4
DOCKED: REMARK    3  A    between atoms: C_10  and  C_11
DOCKED: REMARK    4  A    between atoms: C_11  and  C_12
DOCKED: REMARK    5  A    between atoms: C_12  and  C_13
DOCKED: REMARK    6  A    between atoms: C_13  and  C_14
DOCKED: REMARK    7  A    between atoms: C_14  and  C_15
DOCKED: REMARK    8  A    between atoms: C_15  and  C_16
DOCKED: REMARK    9  A    between atoms: N_17  and  O_18
DOCKED: REMARK                            x       y       z     vdW  Elec       q    Type
DOCKED: REMARK                         _______ _______ _______ _____ _____    ______ ____
DOCKED: USER                              x       y       z     vdW  Elec       q    Type
DOCKED: USER                           _______ _______ _______ _____ _____    ______ ____
DOCKED: ROOT
DOCKED: ATOM      1  C   UNL     1      37.126  11.476 122.402 -0.54 -0.00    +0.000 C 
DOCKED: ENDROOT
DOCKED: BRANCH   1   3
DOCKED: ATOM      2  O   UNL     1      37.062   9.426 121.183 -2.56 -0.00    +0.000 OA
DOCKED: ATOM      3  C   UNL     1      36.597  10.097 122.144 -0.65 -0.00    +0.000 C 
DOCKED: ATOM      4  N   UNL     1      35.569   9.554 122.987 -0.60 -0.00    +0.000 N 
DOCKED: ATOM      5  H   UNL     1      35.119  10.160 123.618 -0.30 -0.00    +0.000 HD
DOCKED: BRANCH   4   6
DOCKED: ATOM      6  C   UNL     1      35.159   8.177 122.963 -0.61 -0.00    +0.000 A 
DOCKED: ATOM      7  C   UNL     1      33.820   7.813 122.721 -0.64 -0.00    +0.000 A 
DOCKED: ATOM      8  C   UNL     1      33.453   6.465 122.679 -0.66 -0.00    +0.000 A 
DOCKED: ATOM      9  C   UNL     1      34.416   5.469 122.863 -0.27 -0.00    +0.000 A 
DOCKED: ATOM     10  C   UNL     1      35.750   5.821 123.082 -0.61 -0.00    +0.000 A 
DOCKED: ATOM     11  C   UNL     1      36.123   7.168 123.123 -0.68 -0.00    +0.000 A 
DOCKED: ATOM     12  CM  UNL     1      34.787   6.819 122.905 +0.00 -0.00    +0.000 AC
DOCKED: ENDBRANCH   4   6
DOCKED: ENDBRANCH   1   3
DOCKED: BRANCH   1  12
DOCKED: ATOM     13  C   UNL     1      37.008  12.337 121.141 -0.53 -0.00    +0.000 C 
DOCKED: BRANCH  12  13
DOCKED: ATOM     14  C   UNL     1      37.149  13.829 121.477 -0.40 -0.00    +0.000 C 
DOCKED: BRANCH  13  14
DOCKED: ATOM     15  C   UNL     1      37.296  14.082 122.986 -0.51 -0.00    +0.000 C 
DOCKED: BRANCH  14  15
DOCKED: ATOM     16  C   UNL     1      35.977  13.869 123.750 -0.57 -0.00    +0.000 C 
DOCKED: BRANCH  15  16
DOCKED: ATOM     17  C   UNL     1      34.974  15.005 123.505 -0.45 -0.00    +0.000 C 
DOCKED: BRANCH  16  17
DOCKED: ATOM     18  C   UNL     1      34.779  15.849 124.731 -0.51 -0.00    +0.000 C 
DOCKED: ATOM     19  N   UNL     1      33.691  15.591 125.623 -0.43 -0.00    +0.000 N 
DOCKED: ATOM     20  O   UNL     1      35.597  16.773 124.989 -0.35 -0.00    +0.000 OA
DOCKED: ATOM     21  H   UNL     1      33.053  14.870 125.417 -0.19 -0.00    +0.000 HD
DOCKED: BRANCH  18  21
DOCKED: ATOM     22  O   UNL     1      33.533  16.328 126.747 -1.02 -0.00    +0.000 OA
DOCKED: ATOM     23  H   UNL     1      34.275  16.946 126.835 -0.02 -0.00    +0.000 HD
DOCKED: ENDBRANCH  18  21
DOCKED: ENDBRANCH  16  17
DOCKED: ENDBRANCH  15  16
DOCKED: ENDBRANCH  14  15
DOCKED: ENDBRANCH  13  14
DOCKED: ENDBRANCH  12  13
DOCKED: ENDBRANCH   1  12
DOCKED: TORSDOF 9DOCKED: TER
DOCKED: ENDMDL
________________________________________________________________________________


	BEGINNING GENETIC ALGORITHM DOCKING 91 of 100
Run: 91 Seed: 1301641189 1744107918 [ Run 91 of 100 GA/GALS ]
Beginning LAMARCKIAN GENETIC ALGORITHM (LGA), with a maximum of 2500000 energy evaluations.

Final-Value: -14.005


	FINAL GENETIC ALGORITHM DOCKED STATE
	_______________________________________________


Detailed state:  trans 36.191 12.595 120.527 quatxyzw 0.173213 -0.496185 -0.278532 -0.803876 center -0.037 -0.159 0.371 ntor 9 -5.7123 146.1481 98.7774 48.2685 -148.9228 -171.1101 57.0943 -147.0450 83.9898
State:	 36.191  12.595 120.527   0.291 -0.834 -0.468 -72.996     -5.71  146.15   98.78   48.27 -148.92 -171.11   57.09 -147.04   83.99

DOCKED: MODEL       91
DOCKED: USER    Run = 91
DOCKED: USER    DPF = ligand_dock.biased.dpf
DOCKED: USER  
DOCKED: USER    Estimated Free Energy of Binding    =   -9.90 kcal/mol  [=(1)+(2)+(3)-(4)]
DOCKED: USER    Estimated Inhibition Constant, Ki   =   55.76 nM (nanomolar)  [Temperature = 298.15 K]
DOCKED: USER    
DOCKED: USER    (1) Final Intermolecular Energy     =  -12.58 kcal/mol
DOCKED: USER        vdW + Hbond + desolv Energy     =  -12.58 kcal/mol
DOCKED: USER        Electrostatic Energy            =   +0.00 kcal/mol
DOCKED: USER    (2) Final Total Internal Energy     =   -1.42 kcal/mol
DOCKED: USER    (3) Torsional Free Energy           =   +2.68 kcal/mol
DOCKED: USER    (4) Unbound System's Energy  [=(2)] =   -1.42 kcal/mol
DOCKED: USER    
DOCKED: USER    
DOCKED: USER    NEWDPF move ligand.dum.pdbqt
DOCKED: USER    NEWDPF about -0.037000 -0.159000 0.371000
DOCKED: USER    NEWDPF tran0 36.190805 12.594993 120.526807
DOCKED: USER    NEWDPF quaternion0 0.173213 -0.496185 -0.278532 -0.803876
DOCKED: USER    NEWDPF axisangle0 0.291214 -0.834210 -0.468281 -72.996260
DOCKED: USER    NEWDPF quat0 0.291214 -0.834210 -0.468281 -72.996260
DOCKED: USER    NEWDPF dihe0 -5.71 146.15 98.78 48.27 -148.92 -171.11 57.09 -147.04 83.99 
DOCKED: USER  keepresnum = 1 
DOCKED: USER  
DOCKED: REMARK  Name = 
DOCKED: REMARK  9 active torsions:
DOCKED: REMARK  status: ('A' for Active; 'I' for Inactive)
DOCKED: REMARK    1  A    between atoms: C_2  and  C_10
DOCKED: REMARK    2  A    between atoms: N_3  and  C_4
DOCKED: REMARK    3  A    between atoms: C_10  and  C_11
DOCKED: REMARK    4  A    between atoms: C_11  and  C_12
DOCKED: REMARK    5  A    between atoms: C_12  and  C_13
DOCKED: REMARK    6  A    between atoms: C_13  and  C_14
DOCKED: REMARK    7  A    between atoms: C_14  and  C_15
DOCKED: REMARK    8  A    between atoms: C_15  and  C_16
DOCKED: REMARK    9  A    between atoms: N_17  and  O_18
DOCKED: REMARK                            x       y       z     vdW  Elec       q    Type
DOCKED: REMARK                         _______ _______ _______ _____ _____    ______ ____
DOCKED: USER                              x       y       z     vdW  Elec       q    Type
DOCKED: USER                           _______ _______ _______ _____ _____    ______ ____
DOCKED: ROOT
DOCKED: ATOM      1  C   UNL     1      38.293  14.246 120.022 -0.30 -0.00    +0.000 C 
DOCKED: ENDROOT
DOCKED: BRANCH   1   3
DOCKED: ATOM      2  O   UNL     1      36.742  15.528 118.741 -0.21 -0.00    +0.000 OA
DOCKED: ATOM      3  C   UNL     1      37.438  14.479 118.813 -0.31 -0.00    +0.000 C 
DOCKED: ATOM      4  N   UNL     1      37.417  13.511 117.752 -0.38 -0.00    +0.000 N 
DOCKED: ATOM      5  H   UNL     1      37.840  12.638 117.914 -0.12 -0.00    +0.000 HD
DOCKED: BRANCH   4   6
DOCKED: ATOM      6  C   UNL     1      36.814  13.744 116.469 -0.33 -0.00    +0.000 A 
DOCKED: ATOM      7  C   UNL     1      37.458  13.363 115.276 -0.38 -0.00    +0.000 A 
DOCKED: ATOM      8  C   UNL     1      36.837  13.579 114.041 -0.31 -0.00    +0.000 A 
DOCKED: ATOM      9  C   UNL     1      35.568  14.161 113.985 -0.22 -0.00    +0.000 A 
DOCKED: ATOM     10  C   UNL     1      34.914  14.522 115.167 -0.22 -0.00    +0.000 A 
DOCKED: ATOM     11  C   UNL     1      35.529  14.307 116.403 -0.29 -0.00    +0.000 A 
DOCKED: ATOM     12  CM  UNL     1      36.186  13.946 115.223 +0.00 -0.00    +0.000 AC
DOCKED: ENDBRANCH   4   6
DOCKED: ENDBRANCH   1   3
DOCKED: BRANCH   1  12
DOCKED: ATOM     13  C   UNL     1      37.813  13.006 120.784 -0.49 -0.00    +0.000 C 
DOCKED: BRANCH  12  13
DOCKED: ATOM     14  C   UNL     1      36.876  13.395 121.936 -0.44 -0.00    +0.000 C 
DOCKED: BRANCH  13  14
DOCKED: ATOM     15  C   UNL     1      37.326  12.813 123.285 -0.60 -0.00    +0.000 C 
DOCKED: BRANCH  14  15
DOCKED: ATOM     16  C   UNL     1      36.571  11.523 123.651 -0.70 -0.00    +0.000 C 
DOCKED: BRANCH  15  16
DOCKED: ATOM     17  C   UNL     1      36.022  10.800 122.412 -0.67 -0.00    +0.000 C 
DOCKED: BRANCH  16  17
DOCKED: ATOM     18  C   UNL     1      36.633   9.439 122.246 -0.71 -0.00    +0.000 C 
DOCKED: ATOM     19  N   UNL     1      36.696   8.533 123.350 -0.66 -0.00    +0.000 N 
DOCKED: ATOM     20  O   UNL     1      37.066   9.083 121.116 -2.72 -0.00    +0.000 OA
DOCKED: ATOM     21  H   UNL     1      36.360   8.814 124.231 -0.33 -0.00    +0.000 HD
DOCKED: BRANCH  18  21
DOCKED: ATOM     22  O   UNL     1      37.215   7.292 123.194 -2.01 -0.00    +0.000 OA
DOCKED: ATOM     23  H   UNL     1      37.415   7.141 122.257 -0.19 -0.00    +0.000 HD
DOCKED: ENDBRANCH  18  21
DOCKED: ENDBRANCH  16  17
DOCKED: ENDBRANCH  15  16
DOCKED: ENDBRANCH  14  15
DOCKED: ENDBRANCH  13  14
DOCKED: ENDBRANCH  12  13
DOCKED: ENDBRANCH   1  12
DOCKED: TORSDOF 9DOCKED: TER
DOCKED: ENDMDL
________________________________________________________________________________


	BEGINNING GENETIC ALGORITHM DOCKING 92 of 100
Run: 92 Seed: 562587687 217495168 [ Run 92 of 100 GA/GALS ]
Beginning LAMARCKIAN GENETIC ALGORITHM (LGA), with a maximum of 2500000 energy evaluations.

Final-Value: -13.278


	FINAL GENETIC ALGORITHM DOCKED STATE
	_______________________________________________


Detailed state:  trans 39.051 12.879 121.487 quatxyzw 0.510072 -0.255876 0.509455 -0.644058 center -0.037 -0.159 0.371 ntor 9 -9.4899 163.6565 77.0572 -171.3019 174.6710 91.2345 160.2581 163.3306 79.0694
State:	 39.051  12.879 121.487   0.667 -0.334  0.666 -99.810     -9.49  163.66   77.06 -171.30  174.67   91.23  160.26  163.33   79.07

DOCKED: MODEL       92
DOCKED: USER    Run = 92
DOCKED: USER    DPF = ligand_dock.biased.dpf
DOCKED: USER  
DOCKED: USER    Estimated Free Energy of Binding    =   -8.35 kcal/mol  [=(1)+(2)+(3)-(4)]
DOCKED: USER    Estimated Inhibition Constant, Ki   =  761.29 nM (nanomolar)  [Temperature = 298.15 K]
DOCKED: USER    
DOCKED: USER    (1) Final Intermolecular Energy     =  -11.03 kcal/mol
DOCKED: USER        vdW + Hbond + desolv Energy     =  -11.03 kcal/mol
DOCKED: USER        Electrostatic Energy            =   +0.00 kcal/mol
DOCKED: USER    (2) Final Total Internal Energy     =   -2.25 kcal/mol
DOCKED: USER    (3) Torsional Free Energy           =   +2.68 kcal/mol
DOCKED: USER    (4) Unbound System's Energy  [=(2)] =   -2.25 kcal/mol
DOCKED: USER    
DOCKED: USER    
DOCKED: USER    NEWDPF move ligand.dum.pdbqt
DOCKED: USER    NEWDPF about -0.037000 -0.159000 0.371000
DOCKED: USER    NEWDPF tran0 39.051255 12.879292 121.486615
DOCKED: USER    NEWDPF quaternion0 0.510072 -0.255876 0.509455 -0.644058
DOCKED: USER    NEWDPF axisangle0 0.666780 -0.334489 0.665974 -99.809879
DOCKED: USER    NEWDPF quat0 0.666780 -0.334489 0.665974 -99.809879
DOCKED: USER    NEWDPF dihe0 -9.49 163.66 77.06 -171.30 174.67 91.23 160.26 163.33 79.07 
DOCKED: USER  keepresnum = 1 
DOCKED: USER  
DOCKED: REMARK  Name = 
DOCKED: REMARK  9 active torsions:
DOCKED: REMARK  status: ('A' for Active; 'I' for Inactive)
DOCKED: REMARK    1  A    between atoms: C_2  and  C_10
DOCKED: REMARK    2  A    between atoms: N_3  and  C_4
DOCKED: REMARK    3  A    between atoms: C_10  and  C_11
DOCKED: REMARK    4  A    between atoms: C_11  and  C_12
DOCKED: REMARK    5  A    between atoms: C_12  and  C_13
DOCKED: REMARK    6  A    between atoms: C_13  and  C_14
DOCKED: REMARK    7  A    between atoms: C_14  and  C_15
DOCKED: REMARK    8  A    between atoms: C_15  and  C_16
DOCKED: REMARK    9  A    between atoms: N_17  and  O_18
DOCKED: REMARK                            x       y       z     vdW  Elec       q    Type
DOCKED: REMARK                         _______ _______ _______ _____ _____    ______ ____
DOCKED: USER                              x       y       z     vdW  Elec       q    Type
DOCKED: USER                           _______ _______ _______ _____ _____    ______ ____
DOCKED: ROOT
DOCKED: ATOM      1  C   UNL     1      36.964  14.501 120.844 -0.18 -0.00    +0.000 C 
DOCKED: ENDROOT
DOCKED: BRANCH   1   3
DOCKED: ATOM      2  O   UNL     1      37.256  12.553 119.496 -0.51 -0.00    +0.000 OA
DOCKED: ATOM      3  C   UNL     1      37.217  13.813 119.535 -0.39 -0.00    +0.000 C 
DOCKED: ATOM      4  N   UNL     1      37.414  14.590 118.343 -0.25 -0.00    +0.000 N 
DOCKED: ATOM      5  H   UNL     1      37.539  15.561 118.439 +0.00 -0.00    +0.000 HD
DOCKED: BRANCH   4   6
DOCKED: ATOM      6  C   UNL     1      37.439  14.032 117.020 -0.32 -0.00    +0.000 A 
DOCKED: ATOM      7  C   UNL     1      36.447  14.346 116.071 -0.27 -0.00    +0.000 A 
DOCKED: ATOM      8  C   UNL     1      36.509  13.808 114.782 -0.29 -0.00    +0.000 A 
DOCKED: ATOM      9  C   UNL     1      37.565  12.966 114.423 -0.29 -0.00    +0.000 A 
DOCKED: ATOM     10  C   UNL     1      38.565  12.666 115.352 -0.50 -0.00    +0.000 A 
DOCKED: ATOM     11  C   UNL     1      38.508  13.203 116.642 -0.11 -0.00    +0.000 A 
DOCKED: ATOM     12  CM  UNL     1      37.506  13.503 115.715 +0.00 -0.00    +0.000 AC
DOCKED: ENDBRANCH   4   6
DOCKED: ENDBRANCH   1   3
DOCKED: BRANCH   1  12
DOCKED: ATOM     13  C   UNL     1      38.134  14.267 121.804 -0.42 -0.00    +0.000 C 
DOCKED: BRANCH  12  13
DOCKED: ATOM     14  C   UNL     1      37.796  13.172 122.828 -0.50 -0.00    +0.000 C 
DOCKED: BRANCH  13  14
DOCKED: ATOM     15  C   UNL     1      36.282  12.999 123.027 -0.59 -0.00    +0.000 C 
DOCKED: BRANCH  14  15
DOCKED: ATOM     16  C   UNL     1      35.929  11.679 123.736 -0.66 -0.00    +0.000 C 
DOCKED: BRANCH  15  16
DOCKED: ATOM     17  C   UNL     1      37.128  10.722 123.810 -0.24 -0.00    +0.000 C 
DOCKED: BRANCH  16  17
DOCKED: ATOM     18  C   UNL     1      37.033   9.630 122.784 -0.60 -0.00    +0.000 C 
DOCKED: ATOM     19  N   UNL     1      37.117   9.937 121.390 -0.52 -0.00    +0.000 N 
DOCKED: ATOM     20  O   UNL     1      36.910   8.432 123.157 -1.90 -0.00    +0.000 OA
DOCKED: ATOM     21  H   UNL     1      37.211  10.873 121.101 -0.02 -0.00    +0.000 HD
DOCKED: BRANCH  18  21
DOCKED: ATOM     22  O   UNL     1      37.067   8.950 120.464 -2.37 +0.00    +0.000 OA
DOCKED: ATOM     23  H   UNL     1      37.125   8.089 120.906 -0.08 -0.00    +0.000 HD
DOCKED: ENDBRANCH  18  21
DOCKED: ENDBRANCH  16  17
DOCKED: ENDBRANCH  15  16
DOCKED: ENDBRANCH  14  15
DOCKED: ENDBRANCH  13  14
DOCKED: ENDBRANCH  12  13
DOCKED: ENDBRANCH   1  12
DOCKED: TORSDOF 9DOCKED: TER
DOCKED: ENDMDL
________________________________________________________________________________


	BEGINNING GENETIC ALGORITHM DOCKING 93 of 100
Run: 93 Seed: 1104904487 222986545 [ Run 93 of 100 GA/GALS ]
Beginning LAMARCKIAN GENETIC ALGORITHM (LGA), with a maximum of 2500000 energy evaluations.

Final-Value: -14.626


	FINAL GENETIC ALGORITHM DOCKED STATE
	_______________________________________________


Detailed state:  trans 37.401 11.607 120.003 quatxyzw 0.661317 0.641262 0.169437 -0.350335 center -0.037 -0.159 0.371 ntor 9 -0.7165 -179.1806 -156.8111 94.5412 38.2805 -8.1466 80.8488 144.7611 20.0296
State:	 37.401  11.607 120.003   0.706  0.685  0.181 -138.984     -0.72 -179.18 -156.81   94.54   38.28   -8.15   80.85  144.76   20.03

DOCKED: MODEL       93
DOCKED: USER    Run = 93
DOCKED: USER    DPF = ligand_dock.biased.dpf
DOCKED: USER  
DOCKED: USER    Estimated Free Energy of Binding    =  -10.56 kcal/mol  [=(1)+(2)+(3)-(4)]
DOCKED: USER    Estimated Inhibition Constant, Ki   =   18.04 nM (nanomolar)  [Temperature = 298.15 K]
DOCKED: USER    
DOCKED: USER    (1) Final Intermolecular Energy     =  -13.25 kcal/mol
DOCKED: USER        vdW + Hbond + desolv Energy     =  -13.25 kcal/mol
DOCKED: USER        Electrostatic Energy            =   +0.00 kcal/mol
DOCKED: USER    (2) Final Total Internal Energy     =   -1.38 kcal/mol
DOCKED: USER    (3) Torsional Free Energy           =   +2.68 kcal/mol
DOCKED: USER    (4) Unbound System's Energy  [=(2)] =   -1.38 kcal/mol
DOCKED: USER    
DOCKED: USER    
DOCKED: USER    NEWDPF move ligand.dum.pdbqt
DOCKED: USER    NEWDPF about -0.037000 -0.159000 0.371000
DOCKED: USER    NEWDPF tran0 37.400506 11.606839 120.003079
DOCKED: USER    NEWDPF quaternion0 0.661317 0.641262 0.169437 -0.350335
DOCKED: USER    NEWDPF axisangle0 0.706064 0.684652 0.180902 -138.984409
DOCKED: USER    NEWDPF quat0 0.706064 0.684652 0.180902 -138.984409
DOCKED: USER    NEWDPF dihe0 -0.72 -179.18 -156.81 94.54 38.28 -8.15 80.85 144.76 20.03 
DOCKED: USER  keepresnum = 1 
DOCKED: USER  
DOCKED: REMARK  Name = 
DOCKED: REMARK  9 active torsions:
DOCKED: REMARK  status: ('A' for Active; 'I' for Inactive)
DOCKED: REMARK    1  A    between atoms: C_2  and  C_10
DOCKED: REMARK    2  A    between atoms: N_3  and  C_4
DOCKED: REMARK    3  A    between atoms: C_10  and  C_11
DOCKED: REMARK    4  A    between atoms: C_11  and  C_12
DOCKED: REMARK    5  A    between atoms: C_12  and  C_13
DOCKED: REMARK    6  A    between atoms: C_13  and  C_14
DOCKED: REMARK    7  A    between atoms: C_14  and  C_15
DOCKED: REMARK    8  A    between atoms: C_15  and  C_16
DOCKED: REMARK    9  A    between atoms: N_17  and  O_18
DOCKED: REMARK                            x       y       z     vdW  Elec       q    Type
DOCKED: REMARK                         _______ _______ _______ _____ _____    ______ ____
DOCKED: USER                              x       y       z     vdW  Elec       q    Type
DOCKED: USER                           _______ _______ _______ _____ _____    ______ ____
DOCKED: ROOT
DOCKED: ATOM      1  C   UNL     1      37.068  11.619 122.703 -0.62 -0.00    +0.000 C 
DOCKED: ENDROOT
DOCKED: BRANCH   1   3
DOCKED: ATOM      2  O   UNL     1      37.059   9.624 121.395 -2.23 -0.00    +0.000 OA
DOCKED: ATOM      3  C   UNL     1      36.535  10.264 122.346 -0.68 -0.00    +0.000 C 
DOCKED: ATOM      4  N   UNL     1      35.436   9.708 123.085 -0.60 -0.00    +0.000 N 
DOCKED: ATOM      5  H   UNL     1      34.951  10.297 123.707 -0.40 -0.00    +0.000 HD
DOCKED: BRANCH   4   6
DOCKED: ATOM      6  C   UNL     1      35.004   8.343 122.971 -0.61 -0.00    +0.000 A 
DOCKED: ATOM      7  C   UNL     1      33.703   8.018 122.542 -0.63 -0.00    +0.000 A 
DOCKED: ATOM      8  C   UNL     1      33.316   6.680 122.416 -0.59 -0.00    +0.000 A 
DOCKED: ATOM      9  C   UNL     1      34.223   5.657 122.703 -0.45 -0.00    +0.000 A 
DOCKED: ATOM     10  C   UNL     1      35.523   5.972 123.109 -0.65 -0.00    +0.000 A 
DOCKED: ATOM     11  C   UNL     1      35.915   7.308 123.235 -0.67 -0.00    +0.000 A 
DOCKED: ATOM     12  CM  UNL     1      34.614   6.996 122.829 +0.00 -0.00    +0.000 AC
DOCKED: ENDBRANCH   4   6
DOCKED: ENDBRANCH   1   3
DOCKED: BRANCH   1  12
DOCKED: ATOM     13  C   UNL     1      37.226  12.478 121.445 -0.53 -0.00    +0.000 C 
DOCKED: BRANCH  12  13
DOCKED: ATOM     14  C   UNL     1      38.200  13.640 121.689 -0.44 -0.00    +0.000 C 
DOCKED: BRANCH  13  14
DOCKED: ATOM     15  C   UNL     1      37.477  14.980 121.899 -0.35 -0.00    +0.000 C 
DOCKED: BRANCH  14  15
DOCKED: ATOM     16  C   UNL     1      36.619  14.993 123.177 -0.44 -0.00    +0.000 C 
DOCKED: BRANCH  15  16
DOCKED: ATOM     17  C   UNL     1      35.376  15.882 123.032 -0.38 -0.00    +0.000 C 
DOCKED: BRANCH  16  17
DOCKED: ATOM     18  C   UNL     1      34.357  15.591 124.095 -0.60 -0.00    +0.000 C 
DOCKED: ATOM     19  N   UNL     1      34.467  16.190 125.389 -0.46 -0.00    +0.000 N 
DOCKED: ATOM     20  O   UNL     1      33.381  14.836 123.833 -0.67 -0.00    +0.000 OA
DOCKED: ATOM     21  H   UNL     1      35.231  16.777 125.591 -0.02 -0.00    +0.000 HD
DOCKED: BRANCH  18  21
DOCKED: ATOM     22  O   UNL     1      33.530  15.956 126.337 -1.04 -0.00    +0.000 OA
DOCKED: ATOM     23  H   UNL     1      32.845  15.372 125.978 -0.19 -0.00    +0.000 HD
DOCKED: ENDBRANCH  18  21
DOCKED: ENDBRANCH  16  17
DOCKED: ENDBRANCH  15  16
DOCKED: ENDBRANCH  14  15
DOCKED: ENDBRANCH  13  14
DOCKED: ENDBRANCH  12  13
DOCKED: ENDBRANCH   1  12
DOCKED: TORSDOF 9DOCKED: TER
DOCKED: ENDMDL
________________________________________________________________________________


	BEGINNING GENETIC ALGORITHM DOCKING 94 of 100
Run: 94 Seed: 125035463 1751664745 [ Run 94 of 100 GA/GALS ]
Beginning LAMARCKIAN GENETIC ALGORITHM (LGA), with a maximum of 2500000 energy evaluations.

Final-Value: -13.122


	FINAL GENETIC ALGORITHM DOCKED STATE
	_______________________________________________


Detailed state:  trans 37.140 13.780 124.869 quatxyzw 0.320248 -0.655343 0.682890 0.040356 center -0.037 -0.159 0.371 ntor 9 25.6734 -165.4036 -159.5829 140.4345 -124.6527 108.9928 -178.1617 -179.0298 93.2262
State:	 37.140  13.780 124.869   0.321 -0.656  0.683 175.374     25.67 -165.40 -159.58  140.43 -124.65  108.99 -178.16 -179.03   93.23

DOCKED: MODEL       94
DOCKED: USER    Run = 94
DOCKED: USER    DPF = ligand_dock.biased.dpf
DOCKED: USER  
DOCKED: USER    Estimated Free Energy of Binding    =   -9.17 kcal/mol  [=(1)+(2)+(3)-(4)]
DOCKED: USER    Estimated Inhibition Constant, Ki   =  188.75 nM (nanomolar)  [Temperature = 298.15 K]
DOCKED: USER    
DOCKED: USER    (1) Final Intermolecular Energy     =  -11.86 kcal/mol
DOCKED: USER        vdW + Hbond + desolv Energy     =  -11.86 kcal/mol
DOCKED: USER        Electrostatic Energy            =   +0.00 kcal/mol
DOCKED: USER    (2) Final Total Internal Energy     =   -1.26 kcal/mol
DOCKED: USER    (3) Torsional Free Energy           =   +2.68 kcal/mol
DOCKED: USER    (4) Unbound System's Energy  [=(2)] =   -1.26 kcal/mol
DOCKED: USER    
DOCKED: USER    
DOCKED: USER    NEWDPF move ligand.dum.pdbqt
DOCKED: USER    NEWDPF about -0.037000 -0.159000 0.371000
DOCKED: USER    NEWDPF tran0 37.139609 13.780233 124.868850
DOCKED: USER    NEWDPF quaternion0 0.320248 -0.655343 0.682890 0.040356
DOCKED: USER    NEWDPF axisangle0 0.320509 -0.655877 0.683447 175.374289
DOCKED: USER    NEWDPF quat0 0.320509 -0.655877 0.683447 175.374289
DOCKED: USER    NEWDPF dihe0 25.67 -165.40 -159.58 140.43 -124.65 108.99 -178.16 -179.03 93.23 
DOCKED: USER  keepresnum = 1 
DOCKED: USER  
DOCKED: REMARK  Name = 
DOCKED: REMARK  9 active torsions:
DOCKED: REMARK  status: ('A' for Active; 'I' for Inactive)
DOCKED: REMARK    1  A    between atoms: C_2  and  C_10
DOCKED: REMARK    2  A    between atoms: N_3  and  C_4
DOCKED: REMARK    3  A    between atoms: C_10  and  C_11
DOCKED: REMARK    4  A    between atoms: C_11  and  C_12
DOCKED: REMARK    5  A    between atoms: C_12  and  C_13
DOCKED: REMARK    6  A    between atoms: C_13  and  C_14
DOCKED: REMARK    7  A    between atoms: C_14  and  C_15
DOCKED: REMARK    8  A    between atoms: C_15  and  C_16
DOCKED: REMARK    9  A    between atoms: N_17  and  O_18
DOCKED: REMARK                            x       y       z     vdW  Elec       q    Type
DOCKED: REMARK                         _______ _______ _______ _____ _____    ______ ____
DOCKED: USER                              x       y       z     vdW  Elec       q    Type
DOCKED: USER                           _______ _______ _______ _____ _____    ______ ____
DOCKED: ROOT
DOCKED: ATOM      1  C   UNL     1      36.027  15.695 123.290 -0.42 -0.00    +0.000 C 
DOCKED: ENDROOT
DOCKED: BRANCH   1   3
DOCKED: ATOM      2  O   UNL     1      38.375  15.615 122.874 -0.35 -0.00    +0.000 OA
DOCKED: ATOM      3  C   UNL     1      37.425  16.216 123.445 -0.31 -0.00    +0.000 C 
DOCKED: ATOM      4  N   UNL     1      37.670  17.388 124.238 -0.21 -0.00    +0.000 N 
DOCKED: ATOM      5  H   UNL     1      36.935  17.731 124.796 -0.01 -0.00    +0.000 HD
DOCKED: BRANCH   4   6
DOCKED: ATOM      6  C   UNL     1      38.924  18.088 124.265 -0.19 -0.00    +0.000 A 
DOCKED: ATOM      7  C   UNL     1      39.632  18.279 125.467 -0.23 -0.00    +0.000 A 
DOCKED: ATOM      8  C   UNL     1      40.863  18.943 125.461 -0.24 -0.00    +0.000 A 
DOCKED: ATOM      9  C   UNL     1      41.404  19.408 124.260 -0.15 -0.00    +0.000 A 
DOCKED: ATOM     10  C   UNL     1      40.718  19.203 123.060 -0.09 -0.00    +0.000 A 
DOCKED: ATOM     11  C   UNL     1      39.487  18.538 123.060 -0.11 -0.00    +0.000 A 
DOCKED: ATOM     12  CM  UNL     1      40.172  18.743 124.262 +0.00 -0.00    +0.000 AC
DOCKED: ENDBRANCH   4   6
DOCKED: ENDBRANCH   1   3
DOCKED: BRANCH   1  12
DOCKED: ATOM     13  C   UNL     1      35.758  14.581 124.305 -0.43 -0.00    +0.000 C 
DOCKED: BRANCH  12  13
DOCKED: ATOM     14  C   UNL     1      36.200  13.216 123.756 -0.60 -0.00    +0.000 C 
DOCKED: BRANCH  13  14
DOCKED: ATOM     15  C   UNL     1      36.754  13.308 122.325 -0.50 -0.00    +0.000 C 
DOCKED: BRANCH  14  15
DOCKED: ATOM     16  C   UNL     1      37.150  11.933 121.757 -0.54 -0.00    +0.000 C 
DOCKED: BRANCH  15  16
DOCKED: ATOM     17  C   UNL     1      36.047  10.884 121.956 -0.55 -0.00    +0.000 C 
DOCKED: BRANCH  16  17
DOCKED: ATOM     18  C   UNL     1      36.612   9.500 122.085 -0.69 -0.00    +0.000 C 
DOCKED: ATOM     19  N   UNL     1      36.824   8.920 123.375 -0.60 -0.00    +0.000 N 
DOCKED: ATOM     20  O   UNL     1      36.873   8.833 121.047 -2.65 -0.00    +0.000 OA
DOCKED: ATOM     21  H   UNL     1      36.622   9.444 124.184 -0.45 -0.00    +0.000 HD
DOCKED: BRANCH  18  21
DOCKED: ATOM     22  O   UNL     1      37.302   7.659 123.493 -2.16 -0.00    +0.000 OA
DOCKED: ATOM     23  H   UNL     1      37.815   7.433 122.703 -0.35 -0.00    +0.000 HD
DOCKED: ENDBRANCH  18  21
DOCKED: ENDBRANCH  16  17
DOCKED: ENDBRANCH  15  16
DOCKED: ENDBRANCH  14  15
DOCKED: ENDBRANCH  13  14
DOCKED: ENDBRANCH  12  13
DOCKED: ENDBRANCH   1  12
DOCKED: TORSDOF 9DOCKED: TER
DOCKED: ENDMDL
________________________________________________________________________________


	BEGINNING GENETIC ALGORITHM DOCKING 95 of 100
Run: 95 Seed: 1410058141 1585836434 [ Run 95 of 100 GA/GALS ]
Beginning LAMARCKIAN GENETIC ALGORITHM (LGA), with a maximum of 2500000 energy evaluations.

Final-Value: -13.646


	FINAL GENETIC ALGORITHM DOCKED STATE
	_______________________________________________


Detailed state:  trans 39.743 13.566 123.483 quatxyzw 0.292774 -0.630631 0.713276 0.088462 center -0.037 -0.159 0.371 ntor 9 10.3210 94.4444 147.1842 97.1734 172.7414 172.4998 26.1023 26.2200 3.3429
State:	 39.743  13.566 123.483   0.294 -0.633  0.716 169.850     10.32   94.44  147.18   97.17  172.74  172.50   26.10   26.22    3.34

DOCKED: MODEL       95
DOCKED: USER    Run = 95
DOCKED: USER    DPF = ligand_dock.biased.dpf
DOCKED: USER  
DOCKED: USER    Estimated Free Energy of Binding    =   -9.90 kcal/mol  [=(1)+(2)+(3)-(4)]
DOCKED: USER    Estimated Inhibition Constant, Ki   =   54.95 nM (nanomolar)  [Temperature = 298.15 K]
DOCKED: USER    
DOCKED: USER    (1) Final Intermolecular Energy     =  -12.59 kcal/mol
DOCKED: USER        vdW + Hbond + desolv Energy     =  -12.59 kcal/mol
DOCKED: USER        Electrostatic Energy            =   +0.00 kcal/mol
DOCKED: USER    (2) Final Total Internal Energy     =   -1.06 kcal/mol
DOCKED: USER    (3) Torsional Free Energy           =   +2.68 kcal/mol
DOCKED: USER    (4) Unbound System's Energy  [=(2)] =   -1.06 kcal/mol
DOCKED: USER    
DOCKED: USER    
DOCKED: USER    NEWDPF move ligand.dum.pdbqt
DOCKED: USER    NEWDPF about -0.037000 -0.159000 0.371000
DOCKED: USER    NEWDPF tran0 39.742956 13.566360 123.483046
DOCKED: USER    NEWDPF quaternion0 0.292774 -0.630631 0.713276 0.088462
DOCKED: USER    NEWDPF axisangle0 0.293926 -0.633113 0.716083 169.849742
DOCKED: USER    NEWDPF quat0 0.293926 -0.633113 0.716083 169.849742
DOCKED: USER    NEWDPF dihe0 10.32 94.44 147.18 97.17 172.74 172.50 26.10 26.22 3.34 
DOCKED: USER  keepresnum = 1 
DOCKED: USER  
DOCKED: REMARK  Name = 
DOCKED: REMARK  9 active torsions:
DOCKED: REMARK  status: ('A' for Active; 'I' for Inactive)
DOCKED: REMARK    1  A    between atoms: C_2  and  C_10
DOCKED: REMARK    2  A    between atoms: N_3  and  C_4
DOCKED: REMARK    3  A    between atoms: C_10  and  C_11
DOCKED: REMARK    4  A    between atoms: C_11  and  C_12
DOCKED: REMARK    5  A    between atoms: C_12  and  C_13
DOCKED: REMARK    6  A    between atoms: C_13  and  C_14
DOCKED: REMARK    7  A    between atoms: C_14  and  C_15
DOCKED: REMARK    8  A    between atoms: C_15  and  C_16
DOCKED: REMARK    9  A    between atoms: N_17  and  O_18
DOCKED: REMARK                            x       y       z     vdW  Elec       q    Type
DOCKED: REMARK                         _______ _______ _______ _____ _____    ______ ____
DOCKED: USER                              x       y       z     vdW  Elec       q    Type
DOCKED: USER                           _______ _______ _______ _____ _____    ______ ____
DOCKED: ROOT
DOCKED: ATOM      1  C   UNL     1      38.756  15.368 121.700 -0.31 -0.00    +0.000 C 
DOCKED: ENDROOT
DOCKED: BRANCH   1   3
DOCKED: ATOM      2  O   UNL     1      40.243  16.691 123.016 -0.32 -0.00    +0.000 OA
DOCKED: ATOM      3  C   UNL     1      40.102  15.957 122.000 -0.31 -0.00    +0.000 C 
DOCKED: ATOM      4  N   UNL     1      41.214  15.683 121.133 -0.25 -0.00    +0.000 N 
DOCKED: ATOM      5  H   UNL     1      41.032  15.245 120.271 -0.01 -0.00    +0.000 HD
DOCKED: BRANCH   4   6
DOCKED: ATOM      6  C   UNL     1      42.576  16.010 121.452 -0.29 -0.00    +0.000 A 
DOCKED: ATOM      7  C   UNL     1      43.616  15.804 120.526 -0.24 -0.00    +0.000 A 
DOCKED: ATOM      8  C   UNL     1      44.930  16.154 120.853 -0.23 +0.00    +0.000 A 
DOCKED: ATOM      9  C   UNL     1      45.216  16.723 122.096 -0.25 +0.00    +0.000 A 
DOCKED: ATOM     10  C   UNL     1      44.186  16.950 123.013 -0.22 -0.00    +0.000 A 
DOCKED: ATOM     11  C   UNL     1      42.870  16.604 122.690 -0.38 -0.00    +0.000 A 
DOCKED: ATOM     12  CM  UNL     1      43.899  16.374 121.772 +0.00 -0.00    +0.000 AC
DOCKED: ENDBRANCH   4   6
DOCKED: ENDBRANCH   1   3
DOCKED: BRANCH   1  12
DOCKED: ATOM     13  C   UNL     1      38.409  14.281 122.722 -0.46 -0.00    +0.000 C 
DOCKED: BRANCH  12  13
DOCKED: ATOM     14  C   UNL     1      37.070  13.611 122.382 -0.50 -0.00    +0.000 C 
DOCKED: BRANCH  13  14
DOCKED: ATOM     15  C   UNL     1      36.418  12.944 123.603 -0.63 -0.00    +0.000 C 
DOCKED: BRANCH  14  15
DOCKED: ATOM     16  C   UNL     1      36.337  11.413 123.464 -0.71 -0.00    +0.000 C 
DOCKED: BRANCH  15  16
DOCKED: ATOM     17  C   UNL     1      36.604  10.946 122.027 -0.63 -0.00    +0.000 C 
DOCKED: BRANCH  16  17
DOCKED: ATOM     18  C   UNL     1      36.854   9.467 121.959 -0.66 -0.00    +0.000 C 
DOCKED: ATOM     19  N   UNL     1      36.890   8.682 123.154 -0.69 -0.00    +0.000 N 
DOCKED: ATOM     20  O   UNL     1      37.002   8.911 120.837 -2.70 -0.00    +0.000 OA
DOCKED: ATOM     21  H   UNL     1      36.776   9.120 124.028 -0.46 -0.00    +0.000 HD
DOCKED: BRANCH  18  21
DOCKED: ATOM     22  O   UNL     1      37.081   7.344 123.092 -2.15 -0.00    +0.000 OA
DOCKED: ATOM     23  H   UNL     1      37.336   7.095 122.191 -0.18 -0.00    +0.000 HD
DOCKED: ENDBRANCH  18  21
DOCKED: ENDBRANCH  16  17
DOCKED: ENDBRANCH  15  16
DOCKED: ENDBRANCH  14  15
DOCKED: ENDBRANCH  13  14
DOCKED: ENDBRANCH  12  13
DOCKED: ENDBRANCH   1  12
DOCKED: TORSDOF 9DOCKED: TER
DOCKED: ENDMDL
________________________________________________________________________________


	BEGINNING GENETIC ALGORITHM DOCKING 96 of 100
Run: 96 Seed: 537365318 112720248 [ Run 96 of 100 GA/GALS ]
Beginning LAMARCKIAN GENETIC ALGORITHM (LGA), with a maximum of 2500000 energy evaluations.

Final-Value: -13.616


	FINAL GENETIC ALGORITHM DOCKED STATE
	_______________________________________________


Detailed state:  trans 35.586 11.912 120.284 quatxyzw 0.661736 0.748548 0.037787 -0.018775 center -0.037 -0.159 0.371 ntor 9 6.4179 -162.5361 -157.9307 -153.0305 -70.3210 -178.0168 120.9304 -171.2041 66.1858
State:	 35.586  11.912 120.284   0.662  0.749  0.038 -177.848      6.42 -162.54 -157.93 -153.03  -70.32 -178.02  120.93 -171.20   66.19

DOCKED: MODEL       96
DOCKED: USER    Run = 96
DOCKED: USER    DPF = ligand_dock.biased.dpf
DOCKED: USER  
DOCKED: USER    Estimated Free Energy of Binding    =   -9.26 kcal/mol  [=(1)+(2)+(3)-(4)]
DOCKED: USER    Estimated Inhibition Constant, Ki   =  161.76 nM (nanomolar)  [Temperature = 298.15 K]
DOCKED: USER    
DOCKED: USER    (1) Final Intermolecular Energy     =  -11.95 kcal/mol
DOCKED: USER        vdW + Hbond + desolv Energy     =  -11.95 kcal/mol
DOCKED: USER        Electrostatic Energy            =   +0.00 kcal/mol
DOCKED: USER    (2) Final Total Internal Energy     =   -1.67 kcal/mol
DOCKED: USER    (3) Torsional Free Energy           =   +2.68 kcal/mol
DOCKED: USER    (4) Unbound System's Energy  [=(2)] =   -1.67 kcal/mol
DOCKED: USER    
DOCKED: USER    
DOCKED: USER    NEWDPF move ligand.dum.pdbqt
DOCKED: USER    NEWDPF about -0.037000 -0.159000 0.371000
DOCKED: USER    NEWDPF tran0 35.586422 11.912430 120.284467
DOCKED: USER    NEWDPF quaternion0 0.661736 0.748548 0.037787 -0.018775
DOCKED: USER    NEWDPF axisangle0 0.661853 0.748680 0.037793 -177.848451
DOCKED: USER    NEWDPF quat0 0.661853 0.748680 0.037793 -177.848451
DOCKED: USER    NEWDPF dihe0 6.42 -162.54 -157.93 -153.03 -70.32 -178.02 120.93 -171.20 66.19 
DOCKED: USER  keepresnum = 1 
DOCKED: USER  
DOCKED: REMARK  Name = 
DOCKED: REMARK  9 active torsions:
DOCKED: REMARK  status: ('A' for Active; 'I' for Inactive)
DOCKED: REMARK    1  A    between atoms: C_2  and  C_10
DOCKED: REMARK    2  A    between atoms: N_3  and  C_4
DOCKED: REMARK    3  A    between atoms: C_10  and  C_11
DOCKED: REMARK    4  A    between atoms: C_11  and  C_12
DOCKED: REMARK    5  A    between atoms: C_12  and  C_13
DOCKED: REMARK    6  A    between atoms: C_13  and  C_14
DOCKED: REMARK    7  A    between atoms: C_14  and  C_15
DOCKED: REMARK    8  A    between atoms: C_15  and  C_16
DOCKED: REMARK    9  A    between atoms: N_17  and  O_18
DOCKED: REMARK                            x       y       z     vdW  Elec       q    Type
DOCKED: REMARK                         _______ _______ _______ _____ _____    ______ ____
DOCKED: USER                              x       y       z     vdW  Elec       q    Type
DOCKED: USER                           _______ _______ _______ _____ _____    ______ ____
DOCKED: ROOT
DOCKED: ATOM      1  C   UNL     1      37.079  11.408 122.502 -0.59 -0.00    +0.000 C 
DOCKED: ENDROOT
DOCKED: BRANCH   1   3
DOCKED: ATOM      2  O   UNL     1      37.066   9.365 121.269 -2.55 -0.00    +0.000 OA
DOCKED: ATOM      3  C   UNL     1      36.540  10.044 122.192 -0.66 -0.00    +0.000 C 
DOCKED: ATOM      4  N   UNL     1      35.434   9.522 122.946 -0.60 -0.00    +0.000 N 
DOCKED: ATOM      5  H   UNL     1      34.949  10.136 123.542 -0.37 -0.00    +0.000 HD
DOCKED: BRANCH   4   6
DOCKED: ATOM      6  C   UNL     1      34.995   8.155 122.879 -0.61 -0.00    +0.000 A 
DOCKED: ATOM      7  C   UNL     1      33.687   7.823 122.477 -0.64 -0.00    +0.000 A 
DOCKED: ATOM      8  C   UNL     1      33.293   6.484 122.398 -0.58 -0.00    +0.000 A 
DOCKED: ATOM      9  C   UNL     1      34.200   5.466 122.705 -0.30 -0.00    +0.000 A 
DOCKED: ATOM     10  C   UNL     1      35.506   5.787 123.085 -0.63 -0.00    +0.000 A 
DOCKED: ATOM     11  C   UNL     1      35.905   7.125 123.164 -0.67 -0.00    +0.000 A 
DOCKED: ATOM     12  CM  UNL     1      34.598   6.807 122.785 +0.00 -0.00    +0.000 AC
DOCKED: ENDBRANCH   4   6
DOCKED: ENDBRANCH   1   3
DOCKED: BRANCH   1  12
DOCKED: ATOM     13  C   UNL     1      36.324  12.474 121.702 -0.36 -0.00    +0.000 C 
DOCKED: BRANCH  12  13
DOCKED: ATOM     14  C   UNL     1      37.246  13.151 120.677 -0.46 -0.00    +0.000 C 
DOCKED: BRANCH  13  14
DOCKED: ATOM     15  C   UNL     1      38.410  13.904 121.339 -0.41 -0.00    +0.000 C 
DOCKED: BRANCH  14  15
DOCKED: ATOM     16  C   UNL     1      38.210  15.430 121.321 -0.27 -0.00    +0.000 C 
DOCKED: BRANCH  15  16
DOCKED: ATOM     17  C   UNL     1      37.765  15.974 122.686 -0.30 -0.00    +0.000 C 
DOCKED: BRANCH  16  17
DOCKED: ATOM     18  C   UNL     1      36.280  15.858 122.874 -0.36 -0.00    +0.000 C 
DOCKED: ATOM     19  N   UNL     1      35.728  14.788 123.645 -0.50 -0.00    +0.000 N 
DOCKED: ATOM     20  O   UNL     1      35.518  16.729 122.373 -0.32 -0.00    +0.000 OA
DOCKED: ATOM     21  H   UNL     1      36.325  14.108 124.034 -0.04 -0.00    +0.000 HD
DOCKED: BRANCH  18  21
DOCKED: ATOM     22  O   UNL     1      34.392  14.701 123.845 -0.67 -0.00    +0.000 OA
DOCKED: ATOM     23  H   UNL     1      33.942  15.380 123.319 -0.05 -0.00    +0.000 HD
DOCKED: ENDBRANCH  18  21
DOCKED: ENDBRANCH  16  17
DOCKED: ENDBRANCH  15  16
DOCKED: ENDBRANCH  14  15
DOCKED: ENDBRANCH  13  14
DOCKED: ENDBRANCH  12  13
DOCKED: ENDBRANCH   1  12
DOCKED: TORSDOF 9DOCKED: TER
DOCKED: ENDMDL
________________________________________________________________________________


	BEGINNING GENETIC ALGORITHM DOCKING 97 of 100
Run: 97 Seed: 214201370 1206057498 [ Run 97 of 100 GA/GALS ]
Beginning LAMARCKIAN GENETIC ALGORITHM (LGA), with a maximum of 2500000 energy evaluations.

Final-Value: -13.534


	FINAL GENETIC ALGORITHM DOCKED STATE
	_______________________________________________


Detailed state:  trans 37.796 15.090 121.189 quatxyzw 0.306146 -0.931018 -0.108777 -0.166273 center -0.037 -0.159 0.371 ntor 9 8.2603 -171.6495 -134.4529 -178.5634 20.3794 34.3337 -34.4940 -162.3599 -120.9210
State:	 37.796  15.090 121.189   0.310 -0.944 -0.110 -160.858      8.26 -171.65 -134.45 -178.56   20.38   34.33  -34.49 -162.36 -120.92

DOCKED: MODEL       97
DOCKED: USER    Run = 97
DOCKED: USER    DPF = ligand_dock.biased.dpf
DOCKED: USER  
DOCKED: USER    Estimated Free Energy of Binding    =   -9.50 kcal/mol  [=(1)+(2)+(3)-(4)]
DOCKED: USER    Estimated Inhibition Constant, Ki   =  108.55 nM (nanomolar)  [Temperature = 298.15 K]
DOCKED: USER    
DOCKED: USER    (1) Final Intermolecular Energy     =  -12.19 kcal/mol
DOCKED: USER        vdW + Hbond + desolv Energy     =  -12.19 kcal/mol
DOCKED: USER        Electrostatic Energy            =   +0.00 kcal/mol
DOCKED: USER    (2) Final Total Internal Energy     =   -1.35 kcal/mol
DOCKED: USER    (3) Torsional Free Energy           =   +2.68 kcal/mol
DOCKED: USER    (4) Unbound System's Energy  [=(2)] =   -1.35 kcal/mol
DOCKED: USER    
DOCKED: USER    
DOCKED: USER    NEWDPF move ligand.dum.pdbqt
DOCKED: USER    NEWDPF about -0.037000 -0.159000 0.371000
DOCKED: USER    NEWDPF tran0 37.796395 15.089544 121.188539
DOCKED: USER    NEWDPF quaternion0 0.306146 -0.931018 -0.108777 -0.166273
DOCKED: USER    NEWDPF axisangle0 0.310468 -0.944161 -0.110312 -160.857590
DOCKED: USER    NEWDPF quat0 0.310468 -0.944161 -0.110312 -160.857590
DOCKED: USER    NEWDPF dihe0 8.26 -171.65 -134.45 -178.56 20.38 34.33 -34.49 -162.36 -120.92 
DOCKED: USER  keepresnum = 1 
DOCKED: USER  
DOCKED: REMARK  Name = 
DOCKED: REMARK  9 active torsions:
DOCKED: REMARK  status: ('A' for Active; 'I' for Inactive)
DOCKED: REMARK    1  A    between atoms: C_2  and  C_10
DOCKED: REMARK    2  A    between atoms: N_3  and  C_4
DOCKED: REMARK    3  A    between atoms: C_10  and  C_11
DOCKED: REMARK    4  A    between atoms: C_11  and  C_12
DOCKED: REMARK    5  A    between atoms: C_12  and  C_13
DOCKED: REMARK    6  A    between atoms: C_13  and  C_14
DOCKED: REMARK    7  A    between atoms: C_14  and  C_15
DOCKED: REMARK    8  A    between atoms: C_15  and  C_16
DOCKED: REMARK    9  A    between atoms: N_17  and  O_18
DOCKED: REMARK                            x       y       z     vdW  Elec       q    Type
DOCKED: REMARK                         _______ _______ _______ _____ _____    ______ ____
DOCKED: USER                              x       y       z     vdW  Elec       q    Type
DOCKED: USER                           _______ _______ _______ _____ _____    ______ ____
DOCKED: ROOT
DOCKED: ATOM      1  C   UNL     1      38.219  16.522 123.462 -0.27 -0.00    +0.000 C 
DOCKED: ENDROOT
DOCKED: BRANCH   1   3
DOCKED: ATOM      2  O   UNL     1      39.575  17.711 121.900 -0.11 -0.00    +0.000 OA
DOCKED: ATOM      3  C   UNL     1      39.502  16.757 122.722 -0.25 -0.00    +0.000 C 
DOCKED: ATOM      4  N   UNL     1      40.631  15.900 122.953 -0.35 -0.00    +0.000 N 
DOCKED: ATOM      5  H   UNL     1      40.489  15.077 123.473 -0.03 -0.00    +0.000 HD
DOCKED: BRANCH   4   6
DOCKED: ATOM      6  C   UNL     1      41.956  16.175 122.469 -0.39 -0.00    +0.000 A 
DOCKED: ATOM      7  C   UNL     1      42.437  15.597 121.279 -0.26 -0.00    +0.000 A 
DOCKED: ATOM      8  C   UNL     1      43.722  15.900 120.818 -0.25 -0.00    +0.000 A 
DOCKED: ATOM      9  C   UNL     1      44.531  16.790 121.530 -0.25 -0.00    +0.000 A 
DOCKED: ATOM     10  C   UNL     1      44.052  17.384 122.701 -0.30 -0.00    +0.000 A 
DOCKED: ATOM     11  C   UNL     1      42.768  17.085 123.164 -0.34 -0.00    +0.000 A 
DOCKED: ATOM     12  CM  UNL     1      43.245  16.489 121.994 +0.00 -0.00    +0.000 AC
DOCKED: ENDBRANCH   4   6
DOCKED: ENDBRANCH   1   3
DOCKED: BRANCH   1  12
DOCKED: ATOM     13  C   UNL     1      37.436  15.374 122.819 -0.37 -0.00    +0.000 C 
DOCKED: BRANCH  12  13
DOCKED: ATOM     14  C   UNL     1      38.258  14.077 122.818 -0.48 -0.00    +0.000 C 
DOCKED: BRANCH  13  14
DOCKED: ATOM     15  C   UNL     1      37.399  12.834 123.098 -0.59 -0.00    +0.000 C 
DOCKED: BRANCH  14  15
DOCKED: ATOM     16  C   UNL     1      37.188  11.969 121.843 -0.53 -0.00    +0.000 C 
DOCKED: BRANCH  15  16
DOCKED: ATOM     17  C   UNL     1      36.073  10.931 122.034 -0.58 -0.00    +0.000 C 
DOCKED: BRANCH  16  17
DOCKED: ATOM     18  C   UNL     1      36.620   9.535 122.116 -0.69 -0.00    +0.000 C 
DOCKED: ATOM     19  N   UNL     1      36.971   8.967 123.381 -0.60 -0.00    +0.000 N 
DOCKED: ATOM     20  O   UNL     1      36.741   8.850 121.065 -2.63 -0.00    +0.000 OA
DOCKED: ATOM     21  H   UNL     1      36.877   9.506 124.200 -0.53 -0.00    +0.000 HD
DOCKED: BRANCH  18  21
DOCKED: ATOM     22  O   UNL     1      37.432   7.697 123.461 -2.17 -0.00    +0.000 OA
DOCKED: ATOM     23  H   UNL     1      37.588   7.353 122.568 -0.21 -0.00    +0.000 HD
DOCKED: ENDBRANCH  18  21
DOCKED: ENDBRANCH  16  17
DOCKED: ENDBRANCH  15  16
DOCKED: ENDBRANCH  14  15
DOCKED: ENDBRANCH  13  14
DOCKED: ENDBRANCH  12  13
DOCKED: ENDBRANCH   1  12
DOCKED: TORSDOF 9DOCKED: TER
DOCKED: ENDMDL
________________________________________________________________________________


	BEGINNING GENETIC ALGORITHM DOCKING 98 of 100
Run: 98 Seed: 1872261552 985898776 [ Run 98 of 100 GA/GALS ]
Beginning LAMARCKIAN GENETIC ALGORITHM (LGA), with a maximum of 2500000 energy evaluations.

Final-Value: -13.662


	FINAL GENETIC ALGORITHM DOCKED STATE
	_______________________________________________


Detailed state:  trans 35.524 15.730 122.281 quatxyzw 0.098990 0.794632 0.316513 0.508509 center -0.037 -0.159 0.371 ntor 9 4.5154 165.3634 46.6657 86.3897 -42.4910 87.1059 121.3435 -83.3693 -91.1652
State:	 35.524  15.730 122.281   0.115  0.923  0.368 118.871      4.52  165.36   46.67   86.39  -42.49   87.11  121.34  -83.37  -91.17

DOCKED: MODEL       98
DOCKED: USER    Run = 98
DOCKED: USER    DPF = ligand_dock.biased.dpf
DOCKED: USER  
DOCKED: USER    Estimated Free Energy of Binding    =   -9.43 kcal/mol  [=(1)+(2)+(3)-(4)]
DOCKED: USER    Estimated Inhibition Constant, Ki   =  121.99 nM (nanomolar)  [Temperature = 298.15 K]
DOCKED: USER    
DOCKED: USER    (1) Final Intermolecular Energy     =  -12.12 kcal/mol
DOCKED: USER        vdW + Hbond + desolv Energy     =  -12.12 kcal/mol
DOCKED: USER        Electrostatic Energy            =   +0.00 kcal/mol
DOCKED: USER    (2) Final Total Internal Energy     =   -1.55 kcal/mol
DOCKED: USER    (3) Torsional Free Energy           =   +2.68 kcal/mol
DOCKED: USER    (4) Unbound System's Energy  [=(2)] =   -1.55 kcal/mol
DOCKED: USER    
DOCKED: USER    
DOCKED: USER    NEWDPF move ligand.dum.pdbqt
DOCKED: USER    NEWDPF about -0.037000 -0.159000 0.371000
DOCKED: USER    NEWDPF tran0 35.524136 15.730381 122.281286
DOCKED: USER    NEWDPF quaternion0 0.098990 0.794632 0.316513 0.508509
DOCKED: USER    NEWDPF axisangle0 0.114963 0.922856 0.367586 118.870882
DOCKED: USER    NEWDPF quat0 0.114963 0.922856 0.367586 118.870882
DOCKED: USER    NEWDPF dihe0 4.52 165.36 46.67 86.39 -42.49 87.11 121.34 -83.37 -91.17 
DOCKED: USER  keepresnum = 1 
DOCKED: USER  
DOCKED: REMARK  Name = 
DOCKED: REMARK  9 active torsions:
DOCKED: REMARK  status: ('A' for Active; 'I' for Inactive)
DOCKED: REMARK    1  A    between atoms: C_2  and  C_10
DOCKED: REMARK    2  A    between atoms: N_3  and  C_4
DOCKED: REMARK    3  A    between atoms: C_10  and  C_11
DOCKED: REMARK    4  A    between atoms: C_11  and  C_12
DOCKED: REMARK    5  A    between atoms: C_12  and  C_13
DOCKED: REMARK    6  A    between atoms: C_13  and  C_14
DOCKED: REMARK    7  A    between atoms: C_14  and  C_15
DOCKED: REMARK    8  A    between atoms: C_15  and  C_16
DOCKED: REMARK    9  A    between atoms: N_17  and  O_18
DOCKED: REMARK                            x       y       z     vdW  Elec       q    Type
DOCKED: REMARK                         _______ _______ _______ _____ _____    ______ ____
DOCKED: USER                              x       y       z     vdW  Elec       q    Type
DOCKED: USER                           _______ _______ _______ _____ _____    ______ ____
DOCKED: ROOT
DOCKED: ATOM      1  C   UNL     1      38.156  15.807 122.965 -0.33 -0.00    +0.000 C 
DOCKED: ENDROOT
DOCKED: BRANCH   1   3
DOCKED: ATOM      2  O   UNL     1      39.345  15.758 120.897 -0.22 -0.00    +0.000 OA
DOCKED: ATOM      3  C   UNL     1      38.242  15.590 121.484 -0.26 -0.00    +0.000 C 
DOCKED: ATOM      4  N   UNL     1      37.074  15.194 120.748 -0.23 -0.00    +0.000 N 
DOCKED: ATOM      5  H   UNL     1      36.203  15.230 121.206 -0.01 -0.00    +0.000 HD
DOCKED: BRANCH   4   6
DOCKED: ATOM      6  C   UNL     1      37.101  14.748 119.383 -0.25 -0.00    +0.000 A 
DOCKED: ATOM      7  C   UNL     1      37.388  13.409 119.053 -0.38 -0.00    +0.000 A 
DOCKED: ATOM      8  C   UNL     1      37.384  12.996 117.717 -0.29 -0.00    +0.000 A 
DOCKED: ATOM      9  C   UNL     1      37.082  13.908 116.702 -0.33 -0.00    +0.000 A 
DOCKED: ATOM     10  C   UNL     1      36.775  15.233 117.023 -0.19 -0.00    +0.000 A 
DOCKED: ATOM     11  C   UNL     1      36.777  15.650 118.357 -0.17 -0.00    +0.000 A 
DOCKED: ATOM     12  CM  UNL     1      37.084  14.324 118.039 +0.00 -0.00    +0.000 AC
DOCKED: ENDBRANCH   4   6
DOCKED: ENDBRANCH   1   3
DOCKED: BRANCH   1  12
DOCKED: ATOM     13  C   UNL     1      36.728  15.554 123.459 -0.40 -0.00    +0.000 C 
DOCKED: BRANCH  12  13
DOCKED: ATOM     14  C   UNL     1      36.527  14.077 123.829 -0.49 -0.00    +0.000 C 
DOCKED: BRANCH  13  14
DOCKED: ATOM     15  C   UNL     1      36.711  13.138 122.627 -0.56 -0.00    +0.000 C 
DOCKED: BRANCH  14  15
DOCKED: ATOM     16  C   UNL     1      36.995  11.686 123.052 -0.66 -0.00    +0.000 C 
DOCKED: BRANCH  15  16
DOCKED: ATOM     17  C   UNL     1      36.096  10.680 122.318 -0.67 -0.00    +0.000 C 
DOCKED: BRANCH  16  17
DOCKED: ATOM     18  C   UNL     1      36.722   9.317 122.255 -0.72 -0.00    +0.000 C 
DOCKED: ATOM     19  N   UNL     1      36.894   8.543 123.445 -0.66 -0.00    +0.000 N 
DOCKED: ATOM     20  O   UNL     1      37.070   8.841 121.140 -2.69 -0.00    +0.000 OA
DOCKED: ATOM     21  H   UNL     1      36.623   8.917 124.314 -0.38 -0.00    +0.000 HD
DOCKED: BRANCH  18  21
DOCKED: ATOM     22  O   UNL     1      37.426   7.299 123.386 -1.92 -0.00    +0.000 OA
DOCKED: ATOM     23  H   UNL     1      37.702   7.109 122.476 -0.32 -0.00    +0.000 HD
DOCKED: ENDBRANCH  18  21
DOCKED: ENDBRANCH  16  17
DOCKED: ENDBRANCH  15  16
DOCKED: ENDBRANCH  14  15
DOCKED: ENDBRANCH  13  14
DOCKED: ENDBRANCH  12  13
DOCKED: ENDBRANCH   1  12
DOCKED: TORSDOF 9DOCKED: TER
DOCKED: ENDMDL
________________________________________________________________________________


	BEGINNING GENETIC ALGORITHM DOCKING 99 of 100
Run: 99 Seed: 2057333700 346277004 [ Run 99 of 100 GA/GALS ]
Beginning LAMARCKIAN GENETIC ALGORITHM (LGA), with a maximum of 2500000 energy evaluations.

Final-Value: -13.714


	FINAL GENETIC ALGORITHM DOCKED STATE
	_______________________________________________


Detailed state:  trans 36.472 12.349 120.761 quatxyzw 0.750534 0.641851 0.150949 -0.044040 center -0.037 -0.159 0.371 ntor 9 -12.3762 -121.3120 -92.7356 88.4512 68.9152 140.4049 -30.1394 175.4901 -84.0047
State:	 36.472  12.349 120.761   0.751  0.642  0.151 -174.952    -12.38 -121.31  -92.74   88.45   68.92  140.40  -30.14  175.49  -84.00

DOCKED: MODEL       99
DOCKED: USER    Run = 99
DOCKED: USER    DPF = ligand_dock.biased.dpf
DOCKED: USER  
DOCKED: USER    Estimated Free Energy of Binding    =   -9.81 kcal/mol  [=(1)+(2)+(3)-(4)]
DOCKED: USER    Estimated Inhibition Constant, Ki   =   64.96 nM (nanomolar)  [Temperature = 298.15 K]
DOCKED: USER    
DOCKED: USER    (1) Final Intermolecular Energy     =  -12.49 kcal/mol
DOCKED: USER        vdW + Hbond + desolv Energy     =  -12.49 kcal/mol
DOCKED: USER        Electrostatic Energy            =   +0.00 kcal/mol
DOCKED: USER    (2) Final Total Internal Energy     =   -1.22 kcal/mol
DOCKED: USER    (3) Torsional Free Energy           =   +2.68 kcal/mol
DOCKED: USER    (4) Unbound System's Energy  [=(2)] =   -1.22 kcal/mol
DOCKED: USER    
DOCKED: USER    
DOCKED: USER    NEWDPF move ligand.dum.pdbqt
DOCKED: USER    NEWDPF about -0.037000 -0.159000 0.371000
DOCKED: USER    NEWDPF tran0 36.472187 12.349234 120.761021
DOCKED: USER    NEWDPF quaternion0 0.750534 0.641851 0.150949 -0.044040
DOCKED: USER    NEWDPF axisangle0 0.751263 0.642475 0.151096 -174.951699
DOCKED: USER    NEWDPF quat0 0.751263 0.642475 0.151096 -174.951699
DOCKED: USER    NEWDPF dihe0 -12.38 -121.31 -92.74 88.45 68.92 140.40 -30.14 175.49 -84.00 
DOCKED: USER  keepresnum = 1 
DOCKED: USER  
DOCKED: REMARK  Name = 
DOCKED: REMARK  9 active torsions:
DOCKED: REMARK  status: ('A' for Active; 'I' for Inactive)
DOCKED: REMARK    1  A    between atoms: C_2  and  C_10
DOCKED: REMARK    2  A    between atoms: N_3  and  C_4
DOCKED: REMARK    3  A    between atoms: C_10  and  C_11
DOCKED: REMARK    4  A    between atoms: C_11  and  C_12
DOCKED: REMARK    5  A    between atoms: C_12  and  C_13
DOCKED: REMARK    6  A    between atoms: C_13  and  C_14
DOCKED: REMARK    7  A    between atoms: C_14  and  C_15
DOCKED: REMARK    8  A    between atoms: C_15  and  C_16
DOCKED: REMARK    9  A    between atoms: N_17  and  O_18
DOCKED: REMARK                            x       y       z     vdW  Elec       q    Type
DOCKED: REMARK                         _______ _______ _______ _____ _____    ______ ____
DOCKED: USER                              x       y       z     vdW  Elec       q    Type
DOCKED: USER                           _______ _______ _______ _____ _____    ______ ____
DOCKED: ROOT
DOCKED: ATOM      1  C   UNL     1      37.309  11.184 123.072 -0.41 -0.00    +0.000 C 
DOCKED: ENDROOT
DOCKED: BRANCH   1   3
DOCKED: ATOM      2  O   UNL     1      36.911   9.558 121.372 -2.28 -0.00    +0.000 OA
DOCKED: ATOM      3  C   UNL     1      36.515  10.073 122.452 -0.69 -0.00    +0.000 C 
DOCKED: ATOM      4  N   UNL     1      35.315   9.607 123.089 -0.60 -0.00    +0.000 N 
DOCKED: ATOM      5  H   UNL     1      34.951  10.135 123.836 -0.43 -0.00    +0.000 HD
DOCKED: BRANCH   4   6
DOCKED: ATOM      6  C   UNL     1      34.615   8.414 122.701 -0.61 -0.00    +0.000 A 
DOCKED: ATOM      7  C   UNL     1      34.177   8.217 121.377 -0.56 -0.00    +0.000 A 
DOCKED: ATOM      8  C   UNL     1      33.520   7.036 121.021 -0.44 -0.00    +0.000 A 
DOCKED: ATOM      9  C   UNL     1      33.305   6.037 121.974 -0.55 -0.00    +0.000 A 
DOCKED: ATOM     10  C   UNL     1      33.755   6.216 123.285 -0.65 -0.00    +0.000 A 
DOCKED: ATOM     11  C   UNL     1      34.415   7.394 123.646 -0.63 -0.00    +0.000 A 
DOCKED: ATOM     12  CM  UNL     1      33.964   7.219 122.334 +0.00 -0.00    +0.000 AC
DOCKED: ENDBRANCH   4   6
DOCKED: ENDBRANCH   1   3
DOCKED: BRANCH   1  12
DOCKED: ATOM     13  C   UNL     1      37.026  12.507 122.354 -0.58 -0.00    +0.000 C 
DOCKED: BRANCH  12  13
DOCKED: ATOM     14  C   UNL     1      35.946  13.314 123.089 -0.49 -0.00    +0.000 C 
DOCKED: BRANCH  13  14
DOCKED: ATOM     15  C   UNL     1      36.176  14.830 122.993 -0.42 -0.00    +0.000 C 
DOCKED: BRANCH  14  15
DOCKED: ATOM     16  C   UNL     1      35.717  15.577 124.258 -0.43 -0.00    +0.000 C 
DOCKED: BRANCH  15  16
DOCKED: ATOM     17  C   UNL     1      34.587  16.574 123.965 -0.50 -0.00    +0.000 C 
DOCKED: BRANCH  16  17
DOCKED: ATOM     18  C   UNL     1      33.787  16.887 125.197 -0.33 -0.00    +0.000 C 
DOCKED: ATOM     19  N   UNL     1      33.320  18.217 125.440 -0.36 -0.00    +0.000 N 
DOCKED: ATOM     20  O   UNL     1      33.501  15.963 126.006 -0.93 -0.00    +0.000 OA
DOCKED: ATOM     21  H   UNL     1      33.547  18.936 124.807 -0.03 -0.00    +0.000 HD
DOCKED: BRANCH  18  21
DOCKED: ATOM     22  O   UNL     1      32.570  18.494 126.532 -0.34 -0.00    +0.000 OA
DOCKED: ATOM     23  H   UNL     1      32.274  17.665 126.939 -0.24 -0.00    +0.000 HD
DOCKED: ENDBRANCH  18  21
DOCKED: ENDBRANCH  16  17
DOCKED: ENDBRANCH  15  16
DOCKED: ENDBRANCH  14  15
DOCKED: ENDBRANCH  13  14
DOCKED: ENDBRANCH  12  13
DOCKED: ENDBRANCH   1  12
DOCKED: TORSDOF 9DOCKED: TER
DOCKED: ENDMDL
________________________________________________________________________________


	BEGINNING GENETIC ALGORITHM DOCKING 100 of 100
Run: 100 Seed: 1964385591 31056501 [ Run 100 of 100 GA/GALS ]
Beginning LAMARCKIAN GENETIC ALGORITHM (LGA), with a maximum of 2500000 energy evaluations.

Final-Value: -14.107


	FINAL GENETIC ALGORITHM DOCKED STATE
	_______________________________________________


Detailed state:  trans 37.679 15.001 123.192 quatxyzw 0.084525 0.222292 -0.970826 0.030625 center -0.037 -0.159 0.371 ntor 9 14.7406 155.1589 -134.8845 78.9734 170.4454 137.5287 -87.3410 -179.6838 67.9782
State:	 37.679  15.001 123.192   0.085  0.222 -0.971 176.490     14.74  155.16 -134.88   78.97  170.45  137.53  -87.34 -179.68   67.98

DOCKED: MODEL      100
DOCKED: USER    Run = 100
DOCKED: USER    DPF = ligand_dock.biased.dpf
DOCKED: USER  
DOCKED: USER    Estimated Free Energy of Binding    =   -9.98 kcal/mol  [=(1)+(2)+(3)-(4)]
DOCKED: USER    Estimated Inhibition Constant, Ki   =   48.24 nM (nanomolar)  [Temperature = 298.15 K]
DOCKED: USER    
DOCKED: USER    (1) Final Intermolecular Energy     =  -12.67 kcal/mol
DOCKED: USER        vdW + Hbond + desolv Energy     =  -12.67 kcal/mol
DOCKED: USER        Electrostatic Energy            =   +0.00 kcal/mol
DOCKED: USER    (2) Final Total Internal Energy     =   -1.44 kcal/mol
DOCKED: USER    (3) Torsional Free Energy           =   +2.68 kcal/mol
DOCKED: USER    (4) Unbound System's Energy  [=(2)] =   -1.44 kcal/mol
DOCKED: USER    
DOCKED: USER    
DOCKED: USER    NEWDPF move ligand.dum.pdbqt
DOCKED: USER    NEWDPF about -0.037000 -0.159000 0.371000
DOCKED: USER    NEWDPF tran0 37.679449 15.000793 123.192193
DOCKED: USER    NEWDPF quaternion0 0.084525 0.222292 -0.970826 0.030625
DOCKED: USER    NEWDPF axisangle0 0.084565 0.222397 -0.971282 176.490063
DOCKED: USER    NEWDPF quat0 0.084565 0.222397 -0.971282 176.490063
DOCKED: USER    NEWDPF dihe0 14.74 155.16 -134.88 78.97 170.45 137.53 -87.34 -179.68 67.98 
DOCKED: USER  keepresnum = 1 
DOCKED: USER  
DOCKED: REMARK  Name = 
DOCKED: REMARK  9 active torsions:
DOCKED: REMARK  status: ('A' for Active; 'I' for Inactive)
DOCKED: REMARK    1  A    between atoms: C_2  and  C_10
DOCKED: REMARK    2  A    between atoms: N_3  and  C_4
DOCKED: REMARK    3  A    between atoms: C_10  and  C_11
DOCKED: REMARK    4  A    between atoms: C_11  and  C_12
DOCKED: REMARK    5  A    between atoms: C_12  and  C_13
DOCKED: REMARK    6  A    between atoms: C_13  and  C_14
DOCKED: REMARK    7  A    between atoms: C_14  and  C_15
DOCKED: REMARK    8  A    between atoms: C_15  and  C_16
DOCKED: REMARK    9  A    between atoms: N_17  and  O_18
DOCKED: REMARK                            x       y       z     vdW  Elec       q    Type
DOCKED: REMARK                         _______ _______ _______ _____ _____    ______ ____
DOCKED: USER                              x       y       z     vdW  Elec       q    Type
DOCKED: USER                           _______ _______ _______ _____ _____    ______ ____
DOCKED: ROOT
DOCKED: ATOM      1  C   UNL     1      38.645  14.403 120.720 -0.33 -0.00    +0.000 C 
DOCKED: ENDROOT
DOCKED: BRANCH   1   3
DOCKED: ATOM      2  O   UNL     1      40.375  14.100 122.335 -1.03 +0.00    +0.000 OA
DOCKED: ATOM      3  C   UNL     1      39.894  14.834 121.429 -0.33 -0.00    +0.000 C 
DOCKED: ATOM      4  N   UNL     1      40.530  16.071 121.073 -0.20 -0.00    +0.000 N 
DOCKED: ATOM      5  H   UNL     1      40.043  16.690 120.483 +0.00 -0.00    +0.000 HD
DOCKED: BRANCH   4   6
DOCKED: ATOM      6  C   UNL     1      41.837  16.459 121.529 -0.24 -0.00    +0.000 A 
DOCKED: ATOM      7  C   UNL     1      42.004  17.317 122.633 -0.27 -0.00    +0.000 A 
DOCKED: ATOM      8  C   UNL     1      43.288  17.659 123.070 -0.21 -0.00    +0.000 A 
DOCKED: ATOM      9  C   UNL     1      44.412  17.140 122.422 -0.30 -0.00    +0.000 A 
DOCKED: ATOM     10  C   UNL     1      44.254  16.271 121.339 -0.22 -0.00    +0.000 A 
DOCKED: ATOM     11  C   UNL     1      42.972  15.925 120.899 -0.25 -0.00    +0.000 A 
DOCKED: ATOM     12  CM  UNL     1      43.128  16.795 121.982 +0.00 -0.00    +0.000 AC
DOCKED: ENDBRANCH   4   6
DOCKED: ENDBRANCH   1   3
DOCKED: BRANCH   1  12
DOCKED: ATOM     13  C   UNL     1      37.408  14.798 121.533 -0.34 -0.00    +0.000 C 
DOCKED: BRANCH  12  13
DOCKED: ATOM     14  C   UNL     1      36.689  13.557 122.080 -0.40 -0.00    +0.000 C 
DOCKED: BRANCH  13  14
DOCKED: ATOM     15  C   UNL     1      37.221  13.126 123.456 -0.58 -0.00    +0.000 C 
DOCKED: BRANCH  14  15
DOCKED: ATOM     16  C   UNL     1      37.117  11.606 123.678 -0.64 -0.00    +0.000 C 
DOCKED: BRANCH  15  16
DOCKED: ATOM     17  C   UNL     1      36.165  10.937 122.676 -0.69 -0.00    +0.000 C 
DOCKED: BRANCH  16  17
DOCKED: ATOM     18  C   UNL     1      36.598   9.538 122.346 -0.71 -0.00    +0.000 C 
DOCKED: ATOM     19  N   UNL     1      36.747   8.563 123.381 -0.65 -0.00    +0.000 N 
DOCKED: ATOM     20  O   UNL     1      36.801   9.215 121.144 -2.66 -0.00    +0.000 OA
DOCKED: ATOM     21  H   UNL     1      36.590   8.818 124.318 -0.37 -0.00    +0.000 HD
DOCKED: BRANCH  18  21
DOCKED: ATOM     22  O   UNL     1      37.104   7.291 123.082 -2.09 -0.00    +0.000 OA
DOCKED: ATOM     23  H   UNL     1      37.442   7.256 122.174 -0.16 -0.00    +0.000 HD
DOCKED: ENDBRANCH  18  21
DOCKED: ENDBRANCH  16  17
DOCKED: ENDBRANCH  15  16
DOCKED: ENDBRANCH  14  15
DOCKED: ENDBRANCH  13  14
DOCKED: ENDBRANCH  12  13
DOCKED: ENDBRANCH   1  12
DOCKED: TORSDOF 9DOCKED: TER
DOCKED: ENDMDL
________________________________________________________________________________

DPF> analysis                             # perform a ranked cluster analysis


		CLUSTER ANALYSIS OF CONFORMATIONS
		_________________________________

Number of conformations = 100

RMSD cluster analysis will be performed using the ligand atoms only (23 / 23 total atoms).

Outputting structurally similar clusters, ranked in order of increasing energy.


________________________________________________________________________________

Number of distinct conformational clusters found = 17,  out of 100 runs,
Using an rmsd-tolerance of 2.0 A


	CLUSTERING HISTOGRAM
	____________________

________________________________________________________________________________
     |           |     |           |     |                                    
Clus | Lowest    | Run | Mean      | Num | Histogram                          
-ter | Binding   |     | Binding   | in  |                                    
Rank | Energy    |     | Energy    | Clus|    5    10   15   20   25   30   35
_____|___________|_____|___________|_____|____:____|____:____|____:____|____:___
   1 |    -10.72 |  16 |     -9.87 |   8 |########
   2 |    -10.67 |  21 |     -9.80 |  16 |################
   3 |    -10.66 |  25 |    -10.07 |   7 |#######
   4 |    -10.50 |  32 |     -9.80 |  24 |########################
   5 |    -10.49 |  56 |     -9.66 |  18 |##################
   6 |    -10.26 |  50 |     -9.24 |  11 |###########
   7 |     -9.67 |   1 |     -9.33 |   3 |###
   8 |     -9.60 |  13 |     -9.55 |   2 |##
   9 |     -9.48 |  55 |     -9.17 |   2 |##
  10 |     -9.44 |  73 |     -9.44 |   1 |#
  11 |     -9.30 |  36 |     -9.30 |   1 |#
  12 |     -9.26 |  96 |     -9.26 |   1 |#
  13 |     -9.26 |  51 |     -9.26 |   1 |#
  14 |     -9.15 |  74 |     -8.93 |   2 |##
  15 |     -8.98 |  66 |     -8.98 |   1 |#
  16 |     -8.80 |  77 |     -8.80 |   1 |#
  17 |     -7.52 |  80 |     -7.52 |   1 |#
_____|___________|_____|___________|_____|______________________________________


Number of multi-member conformational clusters found = 10, out of 100 runs.

	RMSD TABLE
	__________

_____________________________________________________________________
     |      |      |           |         |                 |
Rank | Sub- | Run  | Binding   | Cluster | Reference       | Grep
     | Rank |      | Energy    | RMSD    | RMSD            | Pattern
_____|______|______|___________|_________|_________________|___________
   1      1     16      -10.72      0.00    127.05           RANKING
   1      2      6      -10.27      1.06    126.40           RANKING
   1      3     52       -9.98      1.33    126.53           RANKING
   1      4     79       -9.82      1.16    126.93           RANKING
   1      5     89       -9.79      1.67    126.63           RANKING
   1      6     33       -9.71      1.18    126.85           RANKING
   1      7     75       -9.61      1.29    126.53           RANKING
   1      8      2       -9.06      1.45    126.62           RANKING
   2      1     21      -10.67      0.00    127.50           RANKING
   2      2     78      -10.60      0.49    127.44           RANKING
   2      3      5      -10.38      0.84    127.74           RANKING
   2      4     29      -10.16      1.83    128.32           RANKING
   2      5     70      -10.05      1.89    128.69           RANKING
   2      6     46       -9.98      1.46    127.04           RANKING
   2      7     27       -9.87      0.88    127.27           RANKING
   2      8     71       -9.76      0.98    127.11           RANKING
   2      9     10       -9.75      0.95    127.04           RANKING
   2     10     38       -9.70      1.43    126.89           RANKING
   2     11     54       -9.68      1.16    127.16           RANKING
   2     12     28       -9.41      1.60    127.40           RANKING
   2     13     17       -9.32      1.56    128.08           RANKING
   2     14     62       -9.24      1.77    128.06           RANKING
   2     15     59       -9.16      1.67    128.31           RANKING
   2     16      7       -9.03      1.92    128.42           RANKING
   3      1     25      -10.66      0.00    127.29           RANKING
   3      2     93      -10.56      1.27    126.87           RANKING
   3      3     90      -10.43      1.07    127.04           RANKING
   3      4     65      -10.04      1.60    126.75           RANKING
   3      5     99       -9.81      1.17    127.03           RANKING
   3      6     43       -9.58      1.33    126.71           RANKING
   3      7     53       -9.43      1.93    126.01           RANKING
   4      1     32      -10.50      0.00    127.45           RANKING
   4      2     40      -10.47      1.49    127.65           RANKING
   4      3     81      -10.40      0.95    127.30           RANKING
   4      4     72      -10.14      1.21    127.59           RANKING
   4      5     45      -10.13      1.18    127.57           RANKING
   4      6     49      -10.06      1.30    127.55           RANKING
   4      7    100       -9.98      1.21    127.24           RANKING
   4      8     63       -9.97      1.38    127.07           RANKING
   4      9     64       -9.96      1.36    127.13           RANKING
   4     10     95       -9.90      1.20    127.37           RANKING
   4     11     85       -9.88      1.37    127.31           RANKING
   4     12     26       -9.88      1.10    127.27           RANKING
   4     13     35       -9.85      1.35    127.43           RANKING
   4     14     88       -9.84      1.79    127.50           RANKING
   4     15     58       -9.82      1.60    127.54           RANKING
   4     16      4       -9.67      1.77    127.16           RANKING
   4     17     30       -9.56      1.39    127.65           RANKING
   4     18     22       -9.50      1.13    127.56           RANKING
   4     19     97       -9.50      1.20    127.64           RANKING
   4     20     69       -9.31      1.50    127.42           RANKING
   4     21     60       -9.31      1.40    127.64           RANKING
   4     22     57       -9.28      1.43    126.94           RANKING
   4     23     18       -9.18      1.51    127.55           RANKING
   4     24     42       -9.05      1.25    127.42           RANKING
   5      1     56      -10.49      0.00    124.00           RANKING
   5      2     86      -10.25      0.55    124.01           RANKING
   5      3     14      -10.19      1.05    123.99           RANKING
   5      4     12      -10.18      1.29    124.94           RANKING
   5      5     87      -10.14      1.12    124.54           RANKING
   5      6     37      -10.01      1.65    124.91           RANKING
   5      7     23       -9.99      0.91    123.97           RANKING
   5      8     34       -9.94      1.22    124.06           RANKING
   5      9     91       -9.90      0.87    123.69           RANKING
   5     10     84       -9.66      1.17    124.58           RANKING
   5     11     68       -9.65      1.11    123.87           RANKING
   5     12      8       -9.65      1.90    125.34           RANKING
   5     13     76       -9.44      1.21    124.32           RANKING
   5     14     98       -9.43      1.90    125.40           RANKING
   5     15     15       -9.33      1.43    124.94           RANKING
   5     16     41       -9.12      1.83    122.91           RANKING
   5     17     92       -8.35      1.60    123.99           RANKING
   5     18     20       -8.24      1.79    124.38           RANKING
   6      1     50      -10.26      0.00    127.84           RANKING
   6      2     82       -9.84      1.94    127.38           RANKING
   6      3     44       -9.67      1.79    127.56           RANKING
   6      4     47       -9.57      0.91    127.72           RANKING
   6      5     94       -9.17      1.40    128.09           RANKING
   6      6     67       -9.16      1.88    126.57           RANKING
   6      7     31       -9.12      1.67    126.93           RANKING
   6      8     24       -9.08      0.98    127.93           RANKING
   6      9     83       -9.06      1.50    128.46           RANKING
   6     10     61       -8.42      1.89    127.31           RANKING
   6     11     39       -8.32      1.30    127.35           RANKING
   7      1      1       -9.67      0.00    125.82           RANKING
   7      2      3       -9.17      1.37    125.68           RANKING
   7      3     19       -9.16      1.31    125.48           RANKING
   8      1     13       -9.60      0.00    125.60           RANKING
   8      2      9       -9.49      1.97    124.04           RANKING
   9      1     55       -9.48      0.00    124.07           RANKING
   9      2     11       -8.86      1.00    124.08           RANKING
  10      1     73       -9.44      0.00    125.29           RANKING
  11      1     36       -9.30      0.00    123.36           RANKING
  12      1     96       -9.26      0.00    126.30           RANKING
  13      1     51       -9.26      0.00    126.65           RANKING
  14      1     74       -9.15      0.00    126.94           RANKING
  14      2     48       -8.71      1.05    126.94           RANKING
  15      1     66       -8.98      0.00    123.66           RANKING
  16      1     77       -8.80      0.00    126.09           RANKING
  17      1     80       -7.52      0.00    127.20           RANKING
_______________________________________________________________________



	INFORMATION ENTROPY ANALYSIS FOR THIS CLUSTERING
	________________________________________________


Information entropy for this clustering = 0.49  (rmstol = 2.00 Angstrom)

_______________________________________________________________________


	STATISTICAL MECHANICAL ANALYSIS
	_______________________________


Partition function, Q =   101.64            at Temperature, T = 298.15 K
Free energy,        A ~ -2738.11 kcal/mol   at Temperature, T = 298.15 K
Internal energy,    U =    -9.63 kcal/mol   at Temperature, T = 298.15 K
Entropy,            S =     9.15 kcal/mol/K at Temperature, T = 298.15 K

_______________________________________________________________________


	LOWEST ENERGY DOCKED CONFORMATION from EACH CLUSTER
	___________________________________________________



Keeping original residue number (specified in the input PDBQ file) for outputting.

MODEL       16
USER    Run = 16
USER    Cluster Rank = 1
USER    Number of conformations in this cluster = 8
USER  
USER    RMSD from reference structure       = 127.051 A
USER  
USER    Estimated Free Energy of Binding    =  -10.72 kcal/mol  [=(1)+(2)+(3)-(4)]
USER    Estimated Inhibition Constant, Ki   =   13.99 nM (nanomolar)  [Temperature = 298.15 K]
USER    
USER    (1) Final Intermolecular Energy     =  -13.40 kcal/mol
USER        vdW + Hbond + desolv Energy     =  -13.40 kcal/mol
USER        Electrostatic Energy            =   +0.00 kcal/mol
USER    (2) Final Total Internal Energy     =   -0.84 kcal/mol
USER    (3) Torsional Free Energy           =   +2.68 kcal/mol
USER    (4) Unbound System's Energy  [=(2)] =   -0.84 kcal/mol
USER    
USER    
USER  
USER    DPF = ligand_dock.biased.dpf
USER    NEWDPF move	ligand.dum.pdbqt
USER    NEWDPF about	-0.037000 -0.159000 0.371000
USER    NEWDPF tran0	34.871456 12.069009 121.212141
USER    NEWDPF axisangle0	0.640192 0.766226 -0.055242 156.160861
USER    NEWDPF quaternion0	0.626389 0.749705 -0.054051 0.206538
USER    NEWDPF dihe0	-103.77 6.26 -159.32 179.21 66.14 77.84 -178.13 -147.92 -4.35 
USER  
USER                              x       y       z    vdW   Elec        q     RMS 
ATOM      1  C   UNL     1      37.213  11.417 122.433 -0.46 -0.00    +0.000    127.051
ATOM      2  O   UNL     1      37.065   9.386 121.189 -2.59 -0.00    +0.000    127.051
ATOM      3  C   UNL     1      36.634  10.061 122.163 -0.66 -0.00    +0.000    127.051
ATOM      4  N   UNL     1      35.596   9.543 123.010 -0.61 -0.00    +0.000    127.051
ATOM      5  H   UNL     1      35.174  10.157 123.654 -0.28 -0.00    +0.000    127.051
ATOM      6  C   UNL     1      35.138   8.181 122.974 -0.61 -0.00    +0.000    127.051
ATOM      7  C   UNL     1      33.789   7.868 122.719 -0.64 -0.00    +0.000    127.051
ATOM      8  C   UNL     1      33.375   6.533 122.665 -0.64 -0.00    +0.000    127.051
ATOM      9  C   UNL     1      34.301   5.503 122.850 -0.23 -0.00    +0.000    127.051
ATOM     10  C   UNL     1      35.645   5.806 123.081 -0.62 -0.00    +0.000    127.051
ATOM     11  C   UNL     1      36.064   7.139 123.135 -0.68 -0.00    +0.000    127.051
ATOM     12  CM  UNL     1      34.719   6.838 122.904 +0.00 -0.00    +0.000    127.051
ATOM     13  C   UNL     1      36.149  12.501 122.237 -0.30 -0.00    +0.000    127.051
ATOM     14  C   UNL     1      36.695  13.885 122.615 -0.48 -0.00    +0.000    127.051
ATOM     15  C   UNL     1      38.142  13.827 123.129 -0.47 -0.00    +0.000    127.051
ATOM     16  C   UNL     1      38.923  15.122 122.839 -0.33 -0.00    +0.000    127.051
ATOM     17  C   UNL     1      40.164  14.868 121.973 -0.42 -0.00    +0.000    127.051
ATOM     18  C   UNL     1      41.434  15.095 122.740 -0.55 -0.00    +0.000    127.051
ATOM     19  N   UNL     1      42.061  16.380 122.742 -0.40 -0.00    +0.000    127.051
ATOM     20  O   UNL     1      41.934  14.152 123.411 -0.94 -0.00    +0.000    127.051
ATOM     21  H   UNL     1      41.670  17.114 122.215 +0.00 -0.00    +0.000    127.051
ATOM     22  O   UNL     1      43.188  16.596 123.461 -0.87 -0.00    +0.000    127.051
ATOM     23  H   UNL     1      42.968  17.093 124.264 -0.61 -0.00    +0.000    127.051
TER
ENDMDL
MODEL       21
USER    Run = 21
USER    Cluster Rank = 2
USER    Number of conformations in this cluster = 16
USER  
USER    RMSD from reference structure       = 127.505 A
USER  
USER    Estimated Free Energy of Binding    =  -10.67 kcal/mol  [=(1)+(2)+(3)-(4)]
USER    Estimated Inhibition Constant, Ki   =   15.10 nM (nanomolar)  [Temperature = 298.15 K]
USER    
USER    (1) Final Intermolecular Energy     =  -13.35 kcal/mol
USER        vdW + Hbond + desolv Energy     =  -13.35 kcal/mol
USER        Electrostatic Energy            =   +0.00 kcal/mol
USER    (2) Final Total Internal Energy     =   -1.43 kcal/mol
USER    (3) Torsional Free Energy           =   +2.68 kcal/mol
USER    (4) Unbound System's Energy  [=(2)] =   -1.43 kcal/mol
USER    
USER    
USER  
USER    DPF = ligand_dock.biased.dpf
USER    NEWDPF move	ligand.dum.pdbqt
USER    NEWDPF about	-0.037000 -0.159000 0.371000
USER    NEWDPF tran0	38.622487 14.133662 123.485951
USER    NEWDPF axisangle0	-0.492629 0.652135 -0.576226 -86.596580
USER    NEWDPF quaternion0	-0.337843 0.447232 -0.395174 -0.727793
USER    NEWDPF dihe0	13.89 57.25 179.82 109.03 143.41 19.92 -107.82 -178.22 -148.45 
USER  
USER                              x       y       z    vdW   Elec        q     RMS 
ATOM      1  C   UNL     1      36.939  15.133 121.597 -0.26 -0.00    +0.000    127.505
ATOM      2  O   UNL     1      37.382  16.842 123.203 -0.26 -0.00    +0.000    127.505
ATOM      3  C   UNL     1      36.574  15.967 122.789 -0.34 -0.00    +0.000    127.505
ATOM      4  N   UNL     1      35.314  15.763 123.447 -0.44 -0.00    +0.000    127.505
ATOM      5  H   UNL     1      34.785  14.971 123.201 -0.03 -0.00    +0.000    127.505
ATOM      6  C   UNL     1      34.780  16.650 124.444 -0.43 -0.00    +0.000    127.505
ATOM      7  C   UNL     1      34.067  16.160 125.556 -0.41 -0.00    +0.000    127.505
ATOM      8  C   UNL     1      33.579  17.043 126.524 -0.36 -0.00    +0.000    127.505
ATOM      9  C   UNL     1      33.808  18.416 126.401 -0.28 -0.00    +0.000    127.505
ATOM     10  C   UNL     1      34.534  18.907 125.312 -0.26 -0.00    +0.000    127.505
ATOM     11  C   UNL     1      35.025  18.028 124.342 -0.30 -0.00    +0.000    127.505
ATOM     12  CM  UNL     1      34.299  17.534 125.430 -0.33 -0.00    +0.000    127.505
ATOM     13  C   UNL     1      37.787  13.932 122.026 -0.46 -0.00    +0.000    127.505
ATOM     14  C   UNL     1      37.404  13.463 123.438 -0.53 -0.00    +0.000    127.505
ATOM     15  C   UNL     1      36.001  12.839 123.490 -0.63 -0.00    +0.000    127.505
ATOM     16  C   UNL     1      36.028  11.311 123.310 -0.70 -0.00    +0.000    127.505
ATOM     17  C   UNL     1      36.984  10.876 122.189 -0.57 -0.00    +0.000    127.505
ATOM     18  C   UNL     1      37.040   9.382 122.053 -0.64 -0.00    +0.000    127.505
ATOM     19  N   UNL     1      37.051   8.548 123.215 -0.70 -0.00    +0.000    127.505
ATOM     20  O   UNL     1      37.047   8.861 120.905 -2.71 -0.00    +0.000    127.505
ATOM     21  H   UNL     1      37.047   8.959 124.109 -0.52 -0.00    +0.000    127.505
ATOM     22  O   UNL     1      37.066   7.200 123.094 -2.02 -0.00    +0.000    127.505
ATOM     23  H   UNL     1      37.287   6.960 122.181 -0.19 -0.00    +0.000    127.505
TER
ENDMDL
MODEL       25
USER    Run = 25
USER    Cluster Rank = 3
USER    Number of conformations in this cluster = 7
USER  
USER    RMSD from reference structure       = 127.290 A
USER  
USER    Estimated Free Energy of Binding    =  -10.66 kcal/mol  [=(1)+(2)+(3)-(4)]
USER    Estimated Inhibition Constant, Ki   =   15.25 nM (nanomolar)  [Temperature = 298.15 K]
USER    
USER    (1) Final Intermolecular Energy     =  -13.35 kcal/mol
USER        vdW + Hbond + desolv Energy     =  -13.35 kcal/mol
USER        Electrostatic Energy            =   +0.00 kcal/mol
USER    (2) Final Total Internal Energy     =   -1.28 kcal/mol
USER    (3) Torsional Free Energy           =   +2.68 kcal/mol
USER    (4) Unbound System's Energy  [=(2)] =   -1.28 kcal/mol
USER    
USER    
USER  
USER    DPF = ligand_dock.biased.dpf
USER    NEWDPF move	ligand.dum.pdbqt
USER    NEWDPF about	-0.037000 -0.159000 0.371000
USER    NEWDPF tran0	34.495086 11.917365 123.149931
USER    NEWDPF axisangle0	0.562781 0.804155 -0.191343 115.556721
USER    NEWDPF quaternion0	0.476108 0.680309 -0.161874 0.533196
USER    NEWDPF dihe0	3.78 132.58 -147.31 -154.82 52.93 176.51 13.84 -99.99 21.44 
USER  
USER                              x       y       z    vdW   Elec        q     RMS 
ATOM      1  C   UNL     1      37.095  11.578 122.424 -0.58 -0.00    +0.000    127.290
ATOM      2  O   UNL     1      37.020   9.536 121.193 -2.45 -0.00    +0.000    127.290
ATOM      3  C   UNL     1      36.526  10.223 122.127 -0.64 -0.00    +0.000    127.290
ATOM      4  N   UNL     1      35.428   9.720 122.905 -0.60 -0.00    +0.000    127.290
ATOM      5  H   UNL     1      34.966  10.342 123.511 -0.35 -0.00    +0.000    127.290
ATOM      6  C   UNL     1      34.964   8.361 122.849 -0.61 -0.00    +0.000    127.290
ATOM      7  C   UNL     1      33.724   8.032 122.269 -0.63 -0.00    +0.000    127.290
ATOM      8  C   UNL     1      33.308   6.698 122.207 -0.55 -0.00    +0.000    127.290
ATOM      9  C   UNL     1      34.128   5.683 122.707 -0.47 -0.00    +0.000    127.290
ATOM     10  C   UNL     1      35.370   6.000 123.264 -0.63 -0.00    +0.000    127.290
ATOM     11  C   UNL     1      35.791   7.331 123.328 -0.66 -0.00    +0.000    127.290
ATOM     12  CM  UNL     1      34.548   7.017 122.771 +0.00 -0.00    +0.000    127.290
ATOM     13  C   UNL     1      36.116  12.392 123.276 -0.65 -0.00    +0.000    127.290
ATOM     14  C   UNL     1      36.399  13.897 123.154 -0.54 -0.00    +0.000    127.290
ATOM     15  C   UNL     1      35.610  14.729 124.177 -0.53 -0.00    +0.000    127.290
ATOM     16  C   UNL     1      34.509  15.581 123.520 -0.51 -0.00    +0.000    127.290
ATOM     17  C   UNL     1      34.506  17.025 124.039 -0.47 -0.00    +0.000    127.290
ATOM     18  C   UNL     1      33.698  17.163 125.297 -0.34 -0.00    +0.000    127.290
ATOM     19  N   UNL     1      33.671  16.108 126.261 -0.47 -0.00    +0.000    127.290
ATOM     20  O   UNL     1      33.064  18.231 125.516 -0.40 -0.00    +0.000    127.290
ATOM     21  H   UNL     1      34.166  15.275 126.085 -0.05 -0.00    +0.000    127.290
ATOM     22  O   UNL     1      32.971  16.244 127.411 -1.14 -0.00    +0.000    127.290
ATOM     23  H   UNL     1      32.497  17.089 127.403 -0.09 -0.00    +0.000    127.290
TER
ENDMDL
MODEL       32
USER    Run = 32
USER    Cluster Rank = 4
USER    Number of conformations in this cluster = 24
USER  
USER    RMSD from reference structure       = 127.454 A
USER  
USER    Estimated Free Energy of Binding    =  -10.50 kcal/mol  [=(1)+(2)+(3)-(4)]
USER    Estimated Inhibition Constant, Ki   =   19.94 nM (nanomolar)  [Temperature = 298.15 K]
USER    
USER    (1) Final Intermolecular Energy     =  -13.19 kcal/mol
USER        vdW + Hbond + desolv Energy     =  -13.19 kcal/mol
USER        Electrostatic Energy            =   +0.00 kcal/mol
USER    (2) Final Total Internal Energy     =   -1.31 kcal/mol
USER    (3) Torsional Free Energy           =   +2.68 kcal/mol
USER    (4) Unbound System's Energy  [=(2)] =   -1.31 kcal/mol
USER    
USER    
USER  
USER    DPF = ligand_dock.biased.dpf
USER    NEWDPF move	ligand.dum.pdbqt
USER    NEWDPF about	-0.037000 -0.159000 0.371000
USER    NEWDPF tran0	38.860935 12.579872 122.497988
USER    NEWDPF axisangle0	0.304473 -0.901573 0.307348 -158.894143
USER    NEWDPF quaternion0	0.299323 -0.886324 0.302149 -0.183144
USER    NEWDPF dihe0	16.30 41.95 -162.02 49.93 -106.81 -172.44 13.47 118.53 23.61 
USER  
USER                              x       y       z    vdW   Elec        q     RMS 
ATOM      1  C   UNL     1      38.620  15.226 123.079 -0.30 -0.00    +0.000    127.454
ATOM      2  O   UNL     1      40.450  14.095 122.048 -1.05 +0.00    +0.000    127.454
ATOM      3  C   UNL     1      40.028  15.164 122.566 -0.40 -0.00    +0.000    127.454
ATOM      4  N   UNL     1      40.880  16.315 122.668 -0.31 -0.00    +0.000    127.454
ATOM      5  H   UNL     1      40.574  17.071 123.219 -0.01 -0.00    +0.000    127.454
ATOM      6  C   UNL     1      42.154  16.429 122.013 -0.31 -0.00    +0.000    127.454
ATOM      7  C   UNL     1      43.328  16.713 122.735 -0.36 -0.00    +0.000    127.454
ATOM      8  C   UNL     1      44.558  16.794 122.076 -0.27 -0.00    +0.000    127.454
ATOM      9  C   UNL     1      44.631  16.579 120.697 -0.20 -0.00    +0.000    127.454
ATOM     10  C   UNL     1      43.473  16.275 119.976 -0.19 -0.00    +0.000    127.454
ATOM     11  C   UNL     1      42.241  16.192 120.632 -0.20 -0.00    +0.000    127.454
ATOM     12  CM  UNL     1      43.398  16.497 121.354 +0.00 -0.00    +0.000    127.454
ATOM     13  C   UNL     1      38.093  13.817 123.364 -0.37 -0.00    +0.000    127.454
ATOM     14  C   UNL     1      36.558  13.782 123.318 -0.56 -0.00    +0.000    127.454
ATOM     15  C   UNL     1      35.983  12.453 123.832 -0.63 -0.00    +0.000    127.454
ATOM     16  C   UNL     1      35.599  11.497 122.688 -0.54 -0.00    +0.000    127.454
ATOM     17  C   UNL     1      36.824  11.011 121.901 -0.58 -0.00    +0.000    127.454
ATOM     18  C   UNL     1      36.976   9.520 121.972 -0.63 -0.00    +0.000    127.454
ATOM     19  N   UNL     1      37.053   8.859 123.238 -0.66 -0.00    +0.000    127.454
ATOM     20  O   UNL     1      37.007   8.844 120.908 -2.70 -0.00    +0.000    127.454
ATOM     21  H   UNL     1      37.031   9.389 124.067 -0.54 -0.00    +0.000    127.454
ATOM     22  O   UNL     1      37.156   7.511 123.306 -2.17 -0.00    +0.000    127.454
ATOM     23  H   UNL     1      37.421   7.163 122.440 -0.20 -0.00    +0.000    127.454
TER
ENDMDL
MODEL       56
USER    Run = 56
USER    Cluster Rank = 5
USER    Number of conformations in this cluster = 18
USER  
USER    RMSD from reference structure       = 124.000 A
USER  
USER    Estimated Free Energy of Binding    =  -10.49 kcal/mol  [=(1)+(2)+(3)-(4)]
USER    Estimated Inhibition Constant, Ki   =   20.55 nM (nanomolar)  [Temperature = 298.15 K]
USER    
USER    (1) Final Intermolecular Energy     =  -13.17 kcal/mol
USER        vdW + Hbond + desolv Energy     =  -13.17 kcal/mol
USER        Electrostatic Energy            =   +0.00 kcal/mol
USER    (2) Final Total Internal Energy     =   -0.86 kcal/mol
USER    (3) Torsional Free Energy           =   +2.68 kcal/mol
USER    (4) Unbound System's Energy  [=(2)] =   -0.86 kcal/mol
USER    
USER    
USER  
USER    DPF = ligand_dock.biased.dpf
USER    NEWDPF move	ligand.dum.pdbqt
USER    NEWDPF about	-0.037000 -0.159000 0.371000
USER    NEWDPF tran0	36.928807 12.343630 120.020975
USER    NEWDPF axisangle0	-0.647080 0.752676 -0.121514 94.088775
USER    NEWDPF quaternion0	-0.473586 0.550870 -0.088934 0.681432
USER    NEWDPF dihe0	178.72 121.52 83.50 99.64 118.91 6.68 -68.34 -80.41 -11.43 
USER  
USER                              x       y       z    vdW   Elec        q     RMS 
ATOM      1  C   UNL     1      37.068  15.021 120.481 -0.25 -0.00    +0.000    124.000
ATOM      2  O   UNL     1      36.653  16.057 118.371 -0.17 -0.00    +0.000    124.000
ATOM      3  C   UNL     1      36.897  14.986 118.991 -0.26 -0.00    +0.000    124.000
ATOM      4  N   UNL     1      37.010  13.740 118.286 -0.37 -0.00    +0.000    124.000
ATOM      5  H   UNL     1      37.038  12.910 118.814 -0.04 -0.00    +0.000    124.000
ATOM      6  C   UNL     1      37.086  13.635 116.855 -0.35 -0.00    +0.000    124.000
ATOM      7  C   UNL     1      38.190  13.033 116.220 -0.42 -0.00    +0.000    124.000
ATOM      8  C   UNL     1      38.226  12.922 114.827 -0.43 -0.00    +0.000    124.000
ATOM      9  C   UNL     1      37.160  13.395 114.057 -0.33 -0.00    +0.000    124.000
ATOM     10  C   UNL     1      36.052  13.974 114.681 -0.26 -0.00    +0.000    124.000
ATOM     11  C   UNL     1      36.010  14.086 116.074 -0.29 -0.00    +0.000    124.000
ATOM     12  CM  UNL     1      37.120  13.508 115.452 +0.00 -0.00    +0.000    124.000
ATOM     13  C   UNL     1      37.420  13.628 121.010 -0.43 -0.00    +0.000    124.000
ATOM     14  C   UNL     1      37.876  13.693 122.475 -0.50 -0.00    +0.000    124.000
ATOM     15  C   UNL     1      36.832  13.115 123.443 -0.61 -0.00    +0.000    124.000
ATOM     16  C   UNL     1      36.865  11.576 123.493 -0.69 -0.00    +0.000    124.000
ATOM     17  C   UNL     1      36.399  10.943 122.175 -0.64 -0.00    +0.000    124.000
ATOM     18  C   UNL     1      36.690   9.471 122.131 -0.70 -0.00    +0.000    124.000
ATOM     19  N   UNL     1      36.836   8.724 123.342 -0.64 -0.00    +0.000    124.000
ATOM     20  O   UNL     1      36.775   8.885 121.018 -2.64 -0.00    +0.000    124.000
ATOM     21  H   UNL     1      36.771   9.185 124.210 -0.49 -0.00    +0.000    124.000
ATOM     22  O   UNL     1      37.064   7.390 123.305 -2.15 -0.00    +0.000    124.000
ATOM     23  H   UNL     1      37.157   7.053 124.209 -0.50 -0.00    +0.000    124.000
TER
ENDMDL
MODEL       50
USER    Run = 50
USER    Cluster Rank = 6
USER    Number of conformations in this cluster = 11
USER  
USER    RMSD from reference structure       = 127.836 A
USER  
USER    Estimated Free Energy of Binding    =  -10.26 kcal/mol  [=(1)+(2)+(3)-(4)]
USER    Estimated Inhibition Constant, Ki   =   30.07 nM (nanomolar)  [Temperature = 298.15 K]
USER    
USER    (1) Final Intermolecular Energy     =  -12.95 kcal/mol
USER        vdW + Hbond + desolv Energy     =  -12.95 kcal/mol
USER        Electrostatic Energy            =   +0.00 kcal/mol
USER    (2) Final Total Internal Energy     =   -0.99 kcal/mol
USER    (3) Torsional Free Energy           =   +2.68 kcal/mol
USER    (4) Unbound System's Energy  [=(2)] =   -0.99 kcal/mol
USER    
USER    
USER  
USER    DPF = ligand_dock.biased.dpf
USER    NEWDPF move	ligand.dum.pdbqt
USER    NEWDPF about	-0.037000 -0.159000 0.371000
USER    NEWDPF tran0	36.589284 14.979330 123.120760
USER    NEWDPF axisangle0	0.235834 0.154345 -0.959458 -167.453359
USER    NEWDPF quaternion0	0.234421 0.153421 -0.953713 -0.109271
USER    NEWDPF dihe0	-174.79 100.70 -149.67 77.09 -99.23 179.97 156.68 -130.48 119.48 
USER  
USER                              x       y       z    vdW   Elec        q     RMS 
ATOM      1  C   UNL     1      38.460  14.309 121.263 -0.38 -0.00    +0.000    127.836
ATOM      2  O   UNL     1      40.246  14.510 122.832 -0.93 -0.00    +0.000    127.836
ATOM      3  C   UNL     1      39.286  15.081 122.248 -0.40 -0.00    +0.000    127.836
ATOM      4  N   UNL     1      38.978  16.458 122.518 -0.22 -0.00    +0.000    127.836
ATOM      5  H   UNL     1      38.131  16.820 122.171 +0.00 -0.00    +0.000    127.836
ATOM      6  C   UNL     1      39.834  17.338 123.264 -0.22 -0.00    +0.000    127.836
ATOM      7  C   UNL     1      39.459  17.828 124.530 -0.22 -0.00    +0.000    127.836
ATOM      8  C   UNL     1      40.322  18.663 125.246 -0.25 -0.00    +0.000    127.836
ATOM      9  C   UNL     1      41.568  19.005 124.715 -0.12 -0.00    +0.000    127.836
ATOM     10  C   UNL     1      41.957  18.506 123.469 -0.20 -0.00    +0.000    127.836
ATOM     11  C   UNL     1      41.098  17.669 122.750 -0.20 -0.00    +0.000    127.836
ATOM     12  CM  UNL     1      40.707  18.168 123.995 +0.00 -0.00    +0.000    127.836
ATOM     13  C   UNL     1      36.968  14.523 121.534 -0.27 -0.00    +0.000    127.836
ATOM     14  C   UNL     1      36.589  14.042 122.943 -0.50 -0.00    +0.000    127.836
ATOM     15  C   UNL     1      37.517  12.929 123.455 -0.55 -0.00    +0.000    127.836
ATOM     16  C   UNL     1      36.833  11.550 123.464 -0.69 -0.00    +0.000    127.836
ATOM     17  C   UNL     1      36.685  10.967 122.052 -0.63 -0.00    +0.000    127.836
ATOM     18  C   UNL     1      36.817   9.471 122.050 -0.67 -0.00    +0.000    127.836
ATOM     19  N   UNL     1      36.983   8.757 123.278 -0.66 -0.00    +0.000    127.836
ATOM     20  O   UNL     1      36.750   8.841 120.960 -2.63 -0.00    +0.000    127.836
ATOM     21  H   UNL     1      37.037   9.252 124.127 -0.55 -0.00    +0.000    127.836
ATOM     22  O   UNL     1      37.067   7.406 123.282 -2.16 -0.00    +0.000    127.836
ATOM     23  H   UNL     1      37.094   7.087 124.197 -0.50 -0.00    +0.000    127.836
TER
ENDMDL
MODEL        1
USER    Run = 1
USER    Cluster Rank = 7
USER    Number of conformations in this cluster = 3
USER  
USER    RMSD from reference structure       = 125.823 A
USER  
USER    Estimated Free Energy of Binding    =   -9.67 kcal/mol  [=(1)+(2)+(3)-(4)]
USER    Estimated Inhibition Constant, Ki   =   81.39 nM (nanomolar)  [Temperature = 298.15 K]
USER    
USER    (1) Final Intermolecular Energy     =  -12.36 kcal/mol
USER        vdW + Hbond + desolv Energy     =  -12.36 kcal/mol
USER        Electrostatic Energy            =   +0.00 kcal/mol
USER    (2) Final Total Internal Energy     =   -1.01 kcal/mol
USER    (3) Torsional Free Energy           =   +2.68 kcal/mol
USER    (4) Unbound System's Energy  [=(2)] =   -1.01 kcal/mol
USER    
USER    
USER  
USER    DPF = ligand_dock.biased.dpf
USER    NEWDPF move	ligand.dum.pdbqt
USER    NEWDPF about	-0.037000 -0.159000 0.371000
USER    NEWDPF tran0	36.511408 13.830468 122.379601
USER    NEWDPF axisangle0	-0.928674 0.370493 0.017292 104.881395
USER    NEWDPF quaternion0	-0.736181 0.293698 0.013708 0.609582
USER    NEWDPF dihe0	-174.02 -124.45 -179.84 130.91 -177.27 61.16 -41.78 -143.51 144.24 
USER  
USER                              x       y       z    vdW   Elec        q     RMS 
ATOM      1  C   UNL     1      36.120  15.857 124.151 -0.35 -0.00    +0.000    125.823
ATOM      2  O   UNL     1      34.011  16.216 123.093 -0.51 -0.00    +0.000    125.823
ATOM      3  C   UNL     1      35.266  16.301 123.001 -0.39 -0.00    +0.000    125.823
ATOM      4  N   UNL     1      35.880  16.817 121.809 -0.23 -0.00    +0.000    125.823
ATOM      5  H   UNL     1      36.854  16.718 121.710 +0.00 -0.00    +0.000    125.823
ATOM      6  C   UNL     1      35.155  17.470 120.754 -0.21 -0.00    +0.000    125.823
ATOM      7  C   UNL     1      35.499  17.280 119.402 -0.12 -0.00    +0.000    125.823
ATOM      8  C   UNL     1      34.761  17.908 118.393 -0.15 -0.00    +0.000    125.823
ATOM      9  C   UNL     1      33.670  18.717 118.722 -0.22 -0.00    +0.000    125.823
ATOM     10  C   UNL     1      33.310  18.893 120.060 -0.28 -0.00    +0.000    125.823
ATOM     11  C   UNL     1      34.043  18.266 121.072 -0.29 -0.00    +0.000    125.823
ATOM     12  CM  UNL     1      34.406  18.089 119.734 +0.00 -0.00    +0.000    125.823
ATOM     13  C   UNL     1      37.049  14.720 123.717 -0.34 -0.00    +0.000    125.823
ATOM     14  C   UNL     1      36.354  13.796 122.706 -0.45 -0.00    +0.000    125.823
ATOM     15  C   UNL     1      37.254  13.451 121.509 -0.45 -0.00    +0.000    125.823
ATOM     16  C   UNL     1      37.225  11.951 121.164 -0.53 -0.00    +0.000    125.823
ATOM     17  C   UNL     1      36.380  11.143 122.159 -0.64 -0.00    +0.000    125.823
ATOM     18  C   UNL     1      36.725   9.682 122.126 -0.68 -0.00    +0.000    125.823
ATOM     19  N   UNL     1      36.834   8.936 123.341 -0.61 -0.00    +0.000    125.823
ATOM     20  O   UNL     1      36.891   9.105 121.017 -2.67 -0.00    +0.000    125.823
ATOM     21  H   UNL     1      36.705   9.389 124.205 -0.48 -0.00    +0.000    125.823
ATOM     22  O   UNL     1      37.111   7.611 123.312 -2.24 -0.00    +0.000    125.823
ATOM     23  H   UNL     1      37.055   7.249 124.209 -0.51 -0.00    +0.000    125.823
TER
ENDMDL
MODEL       13
USER    Run = 13
USER    Cluster Rank = 8
USER    Number of conformations in this cluster = 2
USER  
USER    RMSD from reference structure       = 125.597 A
USER  
USER    Estimated Free Energy of Binding    =   -9.60 kcal/mol  [=(1)+(2)+(3)-(4)]
USER    Estimated Inhibition Constant, Ki   =   91.23 nM (nanomolar)  [Temperature = 298.15 K]
USER    
USER    (1) Final Intermolecular Energy     =  -12.29 kcal/mol
USER        vdW + Hbond + desolv Energy     =  -12.29 kcal/mol
USER        Electrostatic Energy            =   +0.00 kcal/mol
USER    (2) Final Total Internal Energy     =   -1.60 kcal/mol
USER    (3) Torsional Free Energy           =   +2.68 kcal/mol
USER    (4) Unbound System's Energy  [=(2)] =   -1.60 kcal/mol
USER    
USER    
USER  
USER    DPF = ligand_dock.biased.dpf
USER    NEWDPF move	ligand.dum.pdbqt
USER    NEWDPF about	-0.037000 -0.159000 0.371000
USER    NEWDPF tran0	35.973819 11.153569 124.680347
USER    NEWDPF axisangle0	-0.288526 -0.682509 0.671516 -74.320662
USER    NEWDPF quaternion0	-0.174283 -0.412268 0.405628 -0.796948
USER    NEWDPF dihe0	1.52 145.77 179.83 -28.94 -74.30 -176.56 -175.84 -37.63 8.44 
USER  
USER                              x       y       z    vdW   Elec        q     RMS 
ATOM      1  C   UNL     1      36.645  11.744 122.111 -0.61 -0.00    +0.000    125.597
ATOM      2  O   UNL     1      37.067   9.581 121.198 -2.43 -0.00    +0.000    125.597
ATOM      3  C   UNL     1      36.402  10.267 122.021 -0.60 -0.00    +0.000    125.597
ATOM      4  N   UNL     1      35.421   9.649 122.867 -0.60 -0.00    +0.000    125.597
ATOM      5  H   UNL     1      34.813  10.233 123.375 -0.40 -0.00    +0.000    125.597
ATOM      6  C   UNL     1      35.274   8.227 123.015 -0.61 -0.00    +0.000    125.597
ATOM      7  C   UNL     1      34.006   7.630 123.151 -0.63 -0.00    +0.000    125.597
ATOM      8  C   UNL     1      33.890   6.242 123.270 -0.67 -0.00    +0.000    125.597
ATOM      9  C   UNL     1      35.032   5.437 123.240 -0.45 -0.00    +0.000    125.597
ATOM     10  C   UNL     1      36.292   6.020 123.083 -0.54 -0.00    +0.000    125.597
ATOM     11  C   UNL     1      36.413   7.408 122.963 -0.70 -0.00    +0.000    125.597
ATOM     12  CM  UNL     1      35.152   6.827 123.120 +0.00 -0.00    +0.000    125.597
ATOM     13  C   UNL     1      36.747  12.179 123.576 -0.68 -0.00    +0.000    125.597
ATOM     14  C   UNL     1      36.787  13.710 123.696 -0.48 -0.00    +0.000    125.597
ATOM     15  C   UNL     1      36.702  14.410 122.330 -0.38 -0.00    +0.000    125.597
ATOM     16  C   UNL     1      38.066  14.945 121.858 -0.36 -0.00    +0.000    125.597
ATOM     17  C   UNL     1      38.742  14.003 120.852 -0.35 -0.00    +0.000    125.597
ATOM     18  C   UNL     1      37.754  13.425 119.880 -0.42 -0.00    +0.000    125.597
ATOM     19  N   UNL     1      36.816  14.271 119.210 -0.30 -0.00    +0.000    125.597
ATOM     20  O   UNL     1      37.774  12.189 119.632 -0.54 -0.00    +0.000    125.597
ATOM     21  H   UNL     1      36.802  15.236 119.407 -0.01 -0.00    +0.000    125.597
ATOM     22  O   UNL     1      35.948  13.757 118.307 -0.43 -0.00    +0.000    125.597
ATOM     23  H   UNL     1      36.075  12.798 118.247 -0.11 -0.00    +0.000    125.597
TER
ENDMDL
MODEL       55
USER    Run = 55
USER    Cluster Rank = 9
USER    Number of conformations in this cluster = 2
USER  
USER    RMSD from reference structure       = 124.073 A
USER  
USER    Estimated Free Energy of Binding    =   -9.48 kcal/mol  [=(1)+(2)+(3)-(4)]
USER    Estimated Inhibition Constant, Ki   =  112.58 nM (nanomolar)  [Temperature = 298.15 K]
USER    
USER    (1) Final Intermolecular Energy     =  -12.16 kcal/mol
USER        vdW + Hbond + desolv Energy     =  -12.16 kcal/mol
USER        Electrostatic Energy            =   +0.00 kcal/mol
USER    (2) Final Total Internal Energy     =   -1.23 kcal/mol
USER    (3) Torsional Free Energy           =   +2.68 kcal/mol
USER    (4) Unbound System's Energy  [=(2)] =   -1.23 kcal/mol
USER    
USER    
USER  
USER    DPF = ligand_dock.biased.dpf
USER    NEWDPF move	ligand.dum.pdbqt
USER    NEWDPF about	-0.037000 -0.159000 0.371000
USER    NEWDPF tran0	38.715094 11.213290 120.928565
USER    NEWDPF axisangle0	-0.547343 -0.671742 -0.499178 88.702047
USER    NEWDPF quaternion0	-0.382621 -0.469583 -0.348952 0.715070
USER    NEWDPF dihe0	2.89 98.27 173.08 20.64 -22.35 38.50 34.56 97.14 -38.58 
USER  
USER                              x       y       z    vdW   Elec        q     RMS 
ATOM      1  C   UNL     1      36.312  11.870 122.021 -0.57 -0.00    +0.000    124.073
ATOM      2  O   UNL     1      37.051   9.723 121.288 -2.17 -0.00    +0.000    124.073
ATOM      3  C   UNL     1      36.214  10.375 121.970 -0.55 -0.00    +0.000    124.073
ATOM      4  N   UNL     1      35.174   9.699 122.694 -0.60 -0.00    +0.000    124.073
ATOM      5  H   UNL     1      34.449  10.243 123.079 -0.36 -0.00    +0.000    124.073
ATOM      6  C   UNL     1      35.130   8.277 122.891 -0.61 -0.00    +0.000    124.073
ATOM      7  C   UNL     1      33.907   7.590 123.010 -0.64 -0.00    +0.000    124.073
ATOM      8  C   UNL     1      33.892   6.201 123.177 -0.66 -0.00    +0.000    124.073
ATOM      9  C   UNL     1      35.092   5.486 123.211 -0.53 -0.00    +0.000    124.073
ATOM     10  C   UNL     1      36.309   6.158 123.071 -0.58 -0.00    +0.000    124.073
ATOM     11  C   UNL     1      36.329   7.546 122.904 -0.70 -0.00    +0.000    124.073
ATOM     12  CM  UNL     1      35.110   6.876 123.044 +0.00 -0.00    +0.000    124.073
ATOM     13  C   UNL     1      37.489  12.357 121.170 -0.51 -0.00    +0.000    124.073
ATOM     14  C   UNL     1      37.133  13.650 120.423 -0.39 -0.00    +0.000    124.073
ATOM     15  C   UNL     1      37.863  13.773 119.077 -0.30 -0.00    +0.000    124.073
ATOM     16  C   UNL     1      36.907  13.657 117.876 -0.41 -0.00    +0.000    124.073
ATOM     17  C   UNL     1      37.409  14.443 116.656 -0.31 -0.00    +0.000    124.073
ATOM     18  C   UNL     1      38.290  13.603 115.778 -0.46 -0.00    +0.000    124.073
ATOM     19  N   UNL     1      38.556  12.238 116.110 -0.43 -0.00    +0.000    124.073
ATOM     20  O   UNL     1      38.773  14.097 114.723 -0.39 -0.00    +0.000    124.073
ATOM     21  H   UNL     1      38.179  11.855 116.935 -0.08 -0.00    +0.000    124.073
ATOM     22  O   UNL     1      39.322  11.468 115.301 -0.82 -0.00    +0.000    124.073
ATOM     23  H   UNL     1      39.649  12.004 114.562 -0.09 -0.00    +0.000    124.073
TER
ENDMDL
MODEL       73
USER    Run = 73
USER    Cluster Rank = 10
USER    Number of conformations in this cluster = 1
USER  
USER    RMSD from reference structure       = 125.290 A
USER  
USER    Estimated Free Energy of Binding    =   -9.44 kcal/mol  [=(1)+(2)+(3)-(4)]
USER    Estimated Inhibition Constant, Ki   =  119.78 nM (nanomolar)  [Temperature = 298.15 K]
USER    
USER    (1) Final Intermolecular Energy     =  -12.13 kcal/mol
USER        vdW + Hbond + desolv Energy     =  -12.13 kcal/mol
USER        Electrostatic Energy            =   +0.00 kcal/mol
USER    (2) Final Total Internal Energy     =   -0.97 kcal/mol
USER    (3) Torsional Free Energy           =   +2.68 kcal/mol
USER    (4) Unbound System's Energy  [=(2)] =   -0.97 kcal/mol
USER    
USER    
USER  
USER    DPF = ligand_dock.biased.dpf
USER    NEWDPF move	ligand.dum.pdbqt
USER    NEWDPF about	-0.037000 -0.159000 0.371000
USER    NEWDPF tran0	35.674440 12.980174 121.851171
USER    NEWDPF axisangle0	-0.191233 0.962963 0.190083 122.010947
USER    NEWDPF quaternion0	-0.167265 0.842271 0.166259 0.484726
USER    NEWDPF dihe0	148.02 -148.05 74.31 27.71 9.38 -165.56 68.20 -22.12 -84.94 
USER  
USER                              x       y       z    vdW   Elec        q     RMS 
ATOM      1  C   UNL     1      37.623  14.432 123.074 -0.48 -0.00    +0.000    125.290
ATOM      2  O   UNL     1      39.335  14.087 121.448 -0.78 -0.00    +0.000    125.290
ATOM      3  C   UNL     1      38.129  14.388 121.664 -0.40 -0.00    +0.000    125.290
ATOM      4  N   UNL     1      37.243  14.687 120.574 -0.26 -0.00    +0.000    125.290
ATOM      5  H   UNL     1      36.362  15.072 120.786 -0.01 -0.00    +0.000    125.290
ATOM      6  C   UNL     1      37.566  14.456 119.193 -0.27 -0.00    +0.000    125.290
ATOM      7  C   UNL     1      36.902  13.471 118.438 -0.37 -0.00    +0.000    125.290
ATOM      8  C   UNL     1      37.219  13.284 117.089 -0.35 -0.00    +0.000    125.290
ATOM      9  C   UNL     1      38.188  14.085 116.479 -0.32 -0.00    +0.000    125.290
ATOM     10  C   UNL     1      38.836  15.080 117.216 -0.16 -0.00    +0.000    125.290
ATOM     11  C   UNL     1      38.521  15.271 118.564 -0.16 -0.00    +0.000    125.290
ATOM     12  CM  UNL     1      37.872  14.275 117.830 +0.00 -0.00    +0.000    125.290
ATOM     13  C   UNL     1      36.495  13.414 123.268 -0.59 -0.00    +0.000    125.290
ATOM     14  C   UNL     1      37.036  12.092 123.832 -0.64 -0.00    +0.000    125.290
ATOM     15  C   UNL     1      36.865  10.920 122.852 -0.65 -0.00    +0.000    125.290
ATOM     16  C   UNL     1      35.551  10.150 123.079 -0.64 -0.00    +0.000    125.290
ATOM     17  C   UNL     1      35.418   8.941 122.142 -0.65 -0.00    +0.000    125.290
ATOM     18  C   UNL     1      35.856   7.669 122.809 -0.76 -0.00    +0.000    125.290
ATOM     19  N   UNL     1      34.912   6.627 123.071 -0.70 -0.00    +0.000    125.290
ATOM     20  O   UNL     1      37.069   7.509 123.112 -2.24 -0.00    +0.000    125.290
ATOM     21  H   UNL     1      33.965   6.756 122.834 -0.02 -0.00    +0.000    125.290
ATOM     22  O   UNL     1      35.311   5.465 123.640 -1.05 -0.00    +0.000    125.290
ATOM     23  H   UNL     1      34.594   5.111 124.188 -0.61 -0.00    +0.000    125.290
TER
ENDMDL
MODEL       36
USER    Run = 36
USER    Cluster Rank = 11
USER    Number of conformations in this cluster = 1
USER  
USER    RMSD from reference structure       = 123.358 A
USER  
USER    Estimated Free Energy of Binding    =   -9.30 kcal/mol  [=(1)+(2)+(3)-(4)]
USER    Estimated Inhibition Constant, Ki   =  153.01 nM (nanomolar)  [Temperature = 298.15 K]
USER    
USER    (1) Final Intermolecular Energy     =  -11.98 kcal/mol
USER        vdW + Hbond + desolv Energy     =  -11.98 kcal/mol
USER        Electrostatic Energy            =   +0.00 kcal/mol
USER    (2) Final Total Internal Energy     =   -1.44 kcal/mol
USER    (3) Torsional Free Energy           =   +2.68 kcal/mol
USER    (4) Unbound System's Energy  [=(2)] =   -1.44 kcal/mol
USER    
USER    
USER  
USER    DPF = ligand_dock.biased.dpf
USER    NEWDPF move	ligand.dum.pdbqt
USER    NEWDPF about	-0.037000 -0.159000 0.371000
USER    NEWDPF tran0	36.266331 12.736867 120.728517
USER    NEWDPF axisangle0	0.212842 0.287052 0.933970 60.799241
USER    NEWDPF quaternion0	0.107704 0.145256 0.472615 0.862517
USER    NEWDPF dihe0	-22.32 179.97 -170.32 -1.81 -105.56 167.83 32.04 179.96 126.19 
USER  
USER                              x       y       z    vdW   Elec        q     RMS 
ATOM      1  C   UNL     1      37.606  13.400 118.456 -0.35 -0.00    +0.000    123.358
ATOM      2  O   UNL     1      36.009  15.100 118.960 -0.21 -0.00    +0.000    123.358
ATOM      3  C   UNL     1      36.299  14.103 118.243 -0.37 -0.00    +0.000    123.358
ATOM      4  N   UNL     1      35.391  13.638 117.232 -0.31 -0.00    +0.000    123.358
ATOM      5  H   UNL     1      35.575  12.769 116.808 +0.03 -0.00    +0.000    123.358
ATOM      6  C   UNL     1      34.230  14.368 116.803 -0.30 -0.00    +0.000    123.358
ATOM      7  C   UNL     1      32.976  13.740 116.670 -0.37 -0.00    +0.000    123.358
ATOM      8  C   UNL     1      31.857  14.479 116.274 -0.35 -0.00    +0.000    123.358
ATOM      9  C   UNL     1      31.974  15.849 116.021 -0.19 -0.00    +0.000    123.358
ATOM     10  C   UNL     1      33.210  16.483 116.172 -0.14 -0.00    +0.000    123.358
ATOM     11  C   UNL     1      34.332  15.748 116.569 -0.18 -0.00    +0.000    123.358
ATOM     12  CM  UNL     1      33.097  15.112 116.418 +0.00 -0.00    +0.000    123.358
ATOM     13  C   UNL     1      37.492  12.399 119.610 -0.42 -0.00    +0.000    123.358
ATOM     14  C   UNL     1      36.963  13.081 120.881 -0.42 -0.00    +0.000    123.358
ATOM     15  C   UNL     1      37.459  12.398 122.165 -0.50 -0.00    +0.000    123.358
ATOM     16  C   UNL     1      36.304  11.850 123.023 -0.69 -0.00    +0.000    123.358
ATOM     17  C   UNL     1      35.586  10.674 122.347 -0.64 -0.00    +0.000    123.358
ATOM     18  C   UNL     1      36.470   9.466 122.244 -0.70 -0.00    +0.000    123.358
ATOM     19  N   UNL     1      36.619   8.579 123.357 -0.65 -0.00    +0.000    123.358
ATOM     20  O   UNL     1      37.062   9.216 121.159 -2.74 -0.00    +0.000    123.358
ATOM     21  H   UNL     1      36.157   8.778 124.203 -0.27 -0.00    +0.000    123.358
ATOM     22  O   UNL     1      37.389   7.470 123.255 -2.05 -0.00    +0.000    123.358
ATOM     23  H   UNL     1      37.478   7.224 122.322 -0.18 -0.00    +0.000    123.358
TER
ENDMDL
MODEL       96
USER    Run = 96
USER    Cluster Rank = 12
USER    Number of conformations in this cluster = 1
USER  
USER    RMSD from reference structure       = 126.302 A
USER  
USER    Estimated Free Energy of Binding    =   -9.26 kcal/mol  [=(1)+(2)+(3)-(4)]
USER    Estimated Inhibition Constant, Ki   =  161.76 nM (nanomolar)  [Temperature = 298.15 K]
USER    
USER    (1) Final Intermolecular Energy     =  -11.95 kcal/mol
USER        vdW + Hbond + desolv Energy     =  -11.95 kcal/mol
USER        Electrostatic Energy            =   +0.00 kcal/mol
USER    (2) Final Total Internal Energy     =   -1.67 kcal/mol
USER    (3) Torsional Free Energy           =   +2.68 kcal/mol
USER    (4) Unbound System's Energy  [=(2)] =   -1.67 kcal/mol
USER    
USER    
USER  
USER    DPF = ligand_dock.biased.dpf
USER    NEWDPF move	ligand.dum.pdbqt
USER    NEWDPF about	-0.037000 -0.159000 0.371000
USER    NEWDPF tran0	35.586422 11.912430 120.284467
USER    NEWDPF axisangle0	0.661853 0.748680 0.037793 -177.848451
USER    NEWDPF quaternion0	0.661736 0.748548 0.037787 -0.018775
USER    NEWDPF dihe0	6.42 -162.54 -157.93 -153.03 -70.32 -178.02 120.93 -171.20 66.19 
USER  
USER                              x       y       z    vdW   Elec        q     RMS 
ATOM      1  C   UNL     1      37.079  11.408 122.502 -0.59 -0.00    +0.000    126.302
ATOM      2  O   UNL     1      37.066   9.365 121.269 -2.55 -0.00    +0.000    126.302
ATOM      3  C   UNL     1      36.540  10.044 122.192 -0.66 -0.00    +0.000    126.302
ATOM      4  N   UNL     1      35.434   9.522 122.946 -0.60 -0.00    +0.000    126.302
ATOM      5  H   UNL     1      34.949  10.136 123.542 -0.37 -0.00    +0.000    126.302
ATOM      6  C   UNL     1      34.995   8.155 122.879 -0.61 -0.00    +0.000    126.302
ATOM      7  C   UNL     1      33.687   7.823 122.477 -0.64 -0.00    +0.000    126.302
ATOM      8  C   UNL     1      33.293   6.484 122.398 -0.58 -0.00    +0.000    126.302
ATOM      9  C   UNL     1      34.200   5.466 122.705 -0.30 -0.00    +0.000    126.302
ATOM     10  C   UNL     1      35.506   5.787 123.085 -0.63 -0.00    +0.000    126.302
ATOM     11  C   UNL     1      35.905   7.125 123.164 -0.67 -0.00    +0.000    126.302
ATOM     12  CM  UNL     1      34.598   6.807 122.785 +0.00 -0.00    +0.000    126.302
ATOM     13  C   UNL     1      36.324  12.474 121.702 -0.36 -0.00    +0.000    126.302
ATOM     14  C   UNL     1      37.246  13.151 120.677 -0.46 -0.00    +0.000    126.302
ATOM     15  C   UNL     1      38.410  13.904 121.339 -0.41 -0.00    +0.000    126.302
ATOM     16  C   UNL     1      38.210  15.430 121.321 -0.27 -0.00    +0.000    126.302
ATOM     17  C   UNL     1      37.765  15.974 122.686 -0.30 -0.00    +0.000    126.302
ATOM     18  C   UNL     1      36.280  15.858 122.874 -0.36 -0.00    +0.000    126.302
ATOM     19  N   UNL     1      35.728  14.788 123.645 -0.50 -0.00    +0.000    126.302
ATOM     20  O   UNL     1      35.518  16.729 122.373 -0.32 -0.00    +0.000    126.302
ATOM     21  H   UNL     1      36.325  14.108 124.034 -0.04 -0.00    +0.000    126.302
ATOM     22  O   UNL     1      34.392  14.701 123.845 -0.67 -0.00    +0.000    126.302
ATOM     23  H   UNL     1      33.942  15.380 123.319 -0.05 -0.00    +0.000    126.302
TER
ENDMDL
MODEL       51
USER    Run = 51
USER    Cluster Rank = 13
USER    Number of conformations in this cluster = 1
USER  
USER    RMSD from reference structure       = 126.647 A
USER  
USER    Estimated Free Energy of Binding    =   -9.26 kcal/mol  [=(1)+(2)+(3)-(4)]
USER    Estimated Inhibition Constant, Ki   =  162.79 nM (nanomolar)  [Temperature = 298.15 K]
USER    
USER    (1) Final Intermolecular Energy     =  -11.95 kcal/mol
USER        vdW + Hbond + desolv Energy     =  -11.95 kcal/mol
USER        Electrostatic Energy            =   +0.00 kcal/mol
USER    (2) Final Total Internal Energy     =   -0.84 kcal/mol
USER    (3) Torsional Free Energy           =   +2.68 kcal/mol
USER    (4) Unbound System's Energy  [=(2)] =   -0.84 kcal/mol
USER    
USER    
USER  
USER    DPF = ligand_dock.biased.dpf
USER    NEWDPF move	ligand.dum.pdbqt
USER    NEWDPF about	-0.037000 -0.159000 0.371000
USER    NEWDPF tran0	34.787617 14.071018 122.335585
USER    NEWDPF axisangle0	0.498733 -0.865336 0.049591 -133.019490
USER    NEWDPF quaternion0	0.457402 -0.793624 0.045481 -0.398593
USER    NEWDPF dihe0	-177.55 121.20 -129.08 164.62 91.37 87.77 -13.75 -156.19 -132.21 
USER  
USER                              x       y       z    vdW   Elec        q     RMS 
ATOM      1  C   UNL     1      34.985  16.353 123.804 -0.48 -0.00    +0.000    126.647
ATOM      2  O   UNL     1      35.147  17.318 121.627 -0.31 -0.00    +0.000    126.647
ATOM      3  C   UNL     1      35.747  16.730 122.568 -0.32 -0.00    +0.000    126.647
ATOM      4  N   UNL     1      37.145  16.419 122.465 -0.22 -0.00    +0.000    126.647
ATOM      5  H   UNL     1      37.538  15.821 123.141 -0.01 -0.00    +0.000    126.647
ATOM      6  C   UNL     1      38.005  16.931 121.433 -0.12 -0.00    +0.000    126.647
ATOM      7  C   UNL     1      38.210  16.225 120.233 -0.14 -0.00    +0.000    126.647
ATOM      8  C   UNL     1      39.033  16.758 119.235 -0.09 -0.00    +0.000    126.647
ATOM      9  C   UNL     1      39.644  18.001 119.419 -0.03 -0.00    +0.000    126.647
ATOM     10  C   UNL     1      39.427  18.717 120.599 -0.03 -0.00    +0.000    126.647
ATOM     11  C   UNL     1      38.605  18.189 121.599 -0.06 -0.00    +0.000    126.647
ATOM     12  CM  UNL     1      38.821  17.471 120.420 +0.00 -0.00    +0.000    126.647
ATOM     13  C   UNL     1      34.751  14.839 123.844 -0.55 -0.00    +0.000    126.647
ATOM     14  C   UNL     1      36.047  14.072 123.545 -0.55 -0.00    +0.000    126.647
ATOM     15  C   UNL     1      35.976  12.602 123.985 -0.53 -0.00    +0.000    126.647
ATOM     16  C   UNL     1      37.037  11.728 123.290 -0.67 -0.00    +0.000    126.647
ATOM     17  C   UNL     1      36.482  11.024 122.043 -0.63 -0.00    +0.000    126.647
ATOM     18  C   UNL     1      36.710   9.541 122.093 -0.69 -0.00    +0.000    126.647
ATOM     19  N   UNL     1      36.892   8.877 123.347 -0.62 -0.00    +0.000    126.647
ATOM     20  O   UNL     1      36.712   8.874 121.024 -2.62 -0.00    +0.000    126.647
ATOM     21  H   UNL     1      36.892   9.401 124.180 -0.53 -0.00    +0.000    126.647
ATOM     22  O   UNL     1      37.063   7.535 123.397 -2.21 -0.00    +0.000    126.647
ATOM     23  H   UNL     1      37.132   7.253 124.321 -0.53 -0.00    +0.000    126.647
TER
ENDMDL
MODEL       74
USER    Run = 74
USER    Cluster Rank = 14
USER    Number of conformations in this cluster = 2
USER  
USER    RMSD from reference structure       = 126.935 A
USER  
USER    Estimated Free Energy of Binding    =   -9.15 kcal/mol  [=(1)+(2)+(3)-(4)]
USER    Estimated Inhibition Constant, Ki   =  196.35 nM (nanomolar)  [Temperature = 298.15 K]
USER    
USER    (1) Final Intermolecular Energy     =  -11.83 kcal/mol
USER        vdW + Hbond + desolv Energy     =  -11.83 kcal/mol
USER        Electrostatic Energy            =   +0.00 kcal/mol
USER    (2) Final Total Internal Energy     =   -0.84 kcal/mol
USER    (3) Torsional Free Energy           =   +2.68 kcal/mol
USER    (4) Unbound System's Energy  [=(2)] =   -0.84 kcal/mol
USER    
USER    
USER  
USER    DPF = ligand_dock.biased.dpf
USER    NEWDPF move	ligand.dum.pdbqt
USER    NEWDPF about	-0.037000 -0.159000 0.371000
USER    NEWDPF tran0	36.458999 12.184456 122.641645
USER    NEWDPF axisangle0	-0.491550 0.852353 -0.178531 144.190780
USER    NEWDPF quaternion0	-0.467744 0.811073 -0.169884 0.307433
USER    NEWDPF dihe0	-173.10 -66.07 115.75 -167.17 87.10 63.72 -25.52 -144.76 152.50 
USER  
USER                              x       y       z    vdW   Elec        q     RMS 
ATOM      1  C   UNL     1      36.035  14.594 123.831 -0.52 -0.00    +0.000    126.935
ATOM      2  O   UNL     1      36.718  15.574 121.766 -0.28 -0.00    +0.000    126.935
ATOM      3  C   UNL     1      37.068  14.950 122.804 -0.42 -0.00    +0.000    126.935
ATOM      4  N   UNL     1      38.440  14.578 123.007 -0.41 -0.00    +0.000    126.935
ATOM      5  H   UNL     1      38.647  13.955 123.741 -0.04 -0.00    +0.000    126.935
ATOM      6  C   UNL     1      39.528  15.061 122.202 -0.36 -0.00    +0.000    126.935
ATOM      7  C   UNL     1      40.836  15.152 122.715 -0.43 -0.00    +0.000    126.935
ATOM      8  C   UNL     1      41.881  15.603 121.903 -0.38 -0.00    +0.000    126.935
ATOM      9  C   UNL     1      41.635  15.953 120.572 -0.16 -0.00    +0.000    126.935
ATOM     10  C   UNL     1      40.344  15.844 120.050 -0.14 -0.00    +0.000    126.935
ATOM     11  C   UNL     1      39.296  15.392 120.858 -0.22 -0.00    +0.000    126.935
ATOM     12  CM  UNL     1      40.586  15.501 121.383 +0.00 -0.00    +0.000    126.935
ATOM     13  C   UNL     1      35.940  13.073 123.987 -0.51 -0.00    +0.000    126.935
ATOM     14  C   UNL     1      36.345  12.360 122.688 -0.62 -0.00    +0.000    126.935
ATOM     15  C   UNL     1      36.948  10.970 122.943 -0.64 -0.00    +0.000    126.935
ATOM     16  C   UNL     1      36.419   9.909 121.962 -0.61 -0.00    +0.000    126.935
ATOM     17  C   UNL     1      35.305   9.052 122.579 -0.68 -0.00    +0.000    126.935
ATOM     18  C   UNL     1      35.829   7.743 123.093 -0.76 -0.00    +0.000    126.935
ATOM     19  N   UNL     1      34.934   6.666 123.381 -0.71 -0.00    +0.000    126.935
ATOM     20  O   UNL     1      37.071   7.584 123.244 -2.26 -0.00    +0.000    126.935
ATOM     21  H   UNL     1      33.965   6.793 123.264 -0.04 -0.00    +0.000    126.935
ATOM     22  O   UNL     1      35.408   5.473 123.812 -1.04 -0.00    +0.000    126.935
ATOM     23  H   UNL     1      34.681   4.832 123.852 -0.60 -0.00    +0.000    126.935
TER
ENDMDL
MODEL       66
USER    Run = 66
USER    Cluster Rank = 15
USER    Number of conformations in this cluster = 1
USER  
USER    RMSD from reference structure       = 123.664 A
USER  
USER    Estimated Free Energy of Binding    =   -8.98 kcal/mol  [=(1)+(2)+(3)-(4)]
USER    Estimated Inhibition Constant, Ki   =  262.64 nM (nanomolar)  [Temperature = 298.15 K]
USER    
USER    (1) Final Intermolecular Energy     =  -11.66 kcal/mol
USER        vdW + Hbond + desolv Energy     =  -11.66 kcal/mol
USER        Electrostatic Energy            =   +0.00 kcal/mol
USER    (2) Final Total Internal Energy     =   -1.33 kcal/mol
USER    (3) Torsional Free Energy           =   +2.68 kcal/mol
USER    (4) Unbound System's Energy  [=(2)] =   -1.33 kcal/mol
USER    
USER    
USER  
USER    DPF = ligand_dock.biased.dpf
USER    NEWDPF move	ligand.dum.pdbqt
USER    NEWDPF about	-0.037000 -0.159000 0.371000
USER    NEWDPF tran0	39.085935 12.798673 118.495321
USER    NEWDPF axisangle0	-0.499594 0.523899 -0.689881 -172.774440
USER    NEWDPF quaternion0	-0.498601 0.522858 -0.688510 -0.063013
USER    NEWDPF dihe0	12.28 -67.15 -146.92 168.76 9.87 -151.90 8.86 7.88 -106.00 
USER  
USER                              x       y       z    vdW   Elec        q     RMS 
ATOM      1  C   UNL     1      37.120  13.861 116.944 -0.38 -0.00    +0.000    123.664
ATOM      2  O   UNL     1      38.236  15.943 117.277 -0.14 -0.00    +0.000    123.664
ATOM      3  C   UNL     1      38.243  14.824 116.698 -0.25 -0.00    +0.000    123.664
ATOM      4  N   UNL     1      39.312  14.466 115.808 -0.34 -0.00    +0.000    123.664
ATOM      5  H   UNL     1      39.203  13.660 115.253 -0.04 -0.00    +0.000    123.664
ATOM      6  C   UNL     1      40.532  15.215 115.681 -0.30 -0.00    +0.000    123.664
ATOM      7  C   UNL     1      40.816  15.963 114.522 -0.21 -0.00    +0.000    123.664
ATOM      8  C   UNL     1      42.000  16.703 114.435 -0.16 -0.00    +0.000    123.664
ATOM      9  C   UNL     1      42.901  16.715 115.503 -0.18 -0.00    +0.000    123.664
ATOM     10  C   UNL     1      42.615  15.992 116.664 -0.26 -0.00    +0.000    123.664
ATOM     11  C   UNL     1      41.432  15.252 116.757 -0.24 -0.00    +0.000    123.664
ATOM     12  CM  UNL     1      41.716  15.973 115.594 +0.00 -0.00    +0.000    123.664
ATOM     13  C   UNL     1      37.437  12.968 118.148 -0.36 -0.00    +0.000    123.664
ATOM     14  C   UNL     1      37.297  13.748 119.464 -0.40 -0.00    +0.000    123.664
ATOM     15  C   UNL     1      37.731  12.923 120.686 -0.49 -0.00    +0.000    123.664
ATOM     16  C   UNL     1      36.652  11.920 121.132 -0.46 -0.00    +0.000    123.664
ATOM     17  C   UNL     1      37.059  11.156 122.399 -0.58 -0.00    +0.000    123.664
ATOM     18  C   UNL     1      37.064   9.671 122.177 -0.60 -0.00    +0.000    123.664
ATOM     19  N   UNL     1      37.091   8.772 123.288 -0.65 -0.00    +0.000    123.664
ATOM     20  O   UNL     1      37.014   9.217 121.002 -2.72 -0.00    +0.000    123.664
ATOM     21  H   UNL     1      37.132   9.130 124.204 -0.58 -0.00    +0.000    123.664
ATOM     22  O   UNL     1      37.061   7.433 123.091 -2.21 -0.00    +0.000    123.664
ATOM     23  H   UNL     1      37.216   7.241 122.153 -0.12 -0.00    +0.000    123.664
TER
ENDMDL
MODEL       77
USER    Run = 77
USER    Cluster Rank = 16
USER    Number of conformations in this cluster = 1
USER  
USER    RMSD from reference structure       = 126.095 A
USER  
USER    Estimated Free Energy of Binding    =   -8.80 kcal/mol  [=(1)+(2)+(3)-(4)]
USER    Estimated Inhibition Constant, Ki   =  356.17 nM (nanomolar)  [Temperature = 298.15 K]
USER    
USER    (1) Final Intermolecular Energy     =  -11.48 kcal/mol
USER        vdW + Hbond + desolv Energy     =  -11.48 kcal/mol
USER        Electrostatic Energy            =   +0.00 kcal/mol
USER    (2) Final Total Internal Energy     =   -1.40 kcal/mol
USER    (3) Torsional Free Energy           =   +2.68 kcal/mol
USER    (4) Unbound System's Energy  [=(2)] =   -1.40 kcal/mol
USER    
USER    
USER  
USER    DPF = ligand_dock.biased.dpf
USER    NEWDPF move	ligand.dum.pdbqt
USER    NEWDPF about	-0.037000 -0.159000 0.371000
USER    NEWDPF tran0	37.877680 13.174166 118.485472
USER    NEWDPF axisangle0	-0.140972 0.862333 -0.486322 -148.370575
USER    NEWDPF quaternion0	-0.135635 0.829692 -0.467913 -0.272527
USER    NEWDPF dihe0	31.06 -123.91 -105.13 67.73 -1.93 104.15 -52.09 -158.20 -179.76 
USER  
USER                              x       y       z    vdW   Elec        q     RMS 
ATOM      1  C   UNL     1      37.222  15.800 118.207 -0.18 -0.00    +0.000    126.095
ATOM      2  O   UNL     1      39.548  16.027 118.689 -0.16 -0.00    +0.000    126.095
ATOM      3  C   UNL     1      38.384  15.884 119.152 -0.16 -0.00    +0.000    126.095
ATOM      4  N   UNL     1      38.164  15.801 120.569 -0.17 -0.00    +0.000    126.095
ATOM      5  H   UNL     1      37.272  15.529 120.884 -0.00 -0.00    +0.000    126.095
ATOM      6  C   UNL     1      39.169  16.093 121.553 -0.20 -0.00    +0.000    126.095
ATOM      7  C   UNL     1      40.300  15.271 121.713 -0.32 -0.00    +0.000    126.095
ATOM      8  C   UNL     1      41.275  15.592 122.662 -0.44 -0.00    +0.000    126.095
ATOM      9  C   UNL     1      41.139  16.739 123.449 -0.31 -0.00    +0.000    126.095
ATOM     10  C   UNL     1      40.030  17.572 123.281 -0.21 -0.00    +0.000    126.095
ATOM     11  C   UNL     1      39.053  17.256 122.332 -0.15 -0.00    +0.000    126.095
ATOM     12  CM  UNL     1      40.161  16.421 122.498 +0.00 -0.00    +0.000    126.095
ATOM     13  C   UNL     1      36.726  14.354 118.100 -0.35 -0.00    +0.000    126.095
ATOM     14  C   UNL     1      37.557  13.419 118.991 -0.39 -0.00    +0.000    126.095
ATOM     15  C   UNL     1      36.690  12.628 119.984 -0.36 -0.00    +0.000    126.095
ATOM     16  C   UNL     1      37.516  11.641 120.829 -0.43 -0.00    +0.000    126.095
ATOM     17  C   UNL     1      36.688  11.010 121.958 -0.62 -0.00    +0.000    126.095
ATOM     18  C   UNL     1      36.945   9.536 122.080 -0.64 -0.00    +0.000    126.095
ATOM     19  N   UNL     1      37.073   8.927 123.367 -0.61 -0.00    +0.000    126.095
ATOM     20  O   UNL     1      37.018   8.828 121.039 -2.68 -0.00    +0.000    126.095
ATOM     21  H   UNL     1      37.018   9.483 124.177 -0.56 -0.00    +0.000    126.095
ATOM     22  O   UNL     1      37.271   7.592 123.480 -2.15 -0.00    +0.000    126.095
ATOM     23  H   UNL     1      37.770   7.274 122.713 -0.40 -0.00    +0.000    126.095
TER
ENDMDL
MODEL       80
USER    Run = 80
USER    Cluster Rank = 17
USER    Number of conformations in this cluster = 1
USER  
USER    RMSD from reference structure       = 127.201 A
USER  
USER    Estimated Free Energy of Binding    =   -7.52 kcal/mol  [=(1)+(2)+(3)-(4)]
USER    Estimated Inhibition Constant, Ki   =    3.05 uM (micromolar)  [Temperature = 298.15 K]
USER    
USER    (1) Final Intermolecular Energy     =  -10.21 kcal/mol
USER        vdW + Hbond + desolv Energy     =  -10.21 kcal/mol
USER        Electrostatic Energy            =   +0.00 kcal/mol
USER    (2) Final Total Internal Energy     =   -1.75 kcal/mol
USER    (3) Torsional Free Energy           =   +2.68 kcal/mol
USER    (4) Unbound System's Energy  [=(2)] =   -1.75 kcal/mol
USER    
USER    
USER  
USER    DPF = ligand_dock.biased.dpf
USER    NEWDPF move	ligand.dum.pdbqt
USER    NEWDPF about	-0.037000 -0.159000 0.371000
USER    NEWDPF tran0	36.525672 14.379191 124.422169
USER    NEWDPF axisangle0	0.120945 -0.511222 0.850896 -157.351391
USER    NEWDPF quaternion0	0.118590 -0.501269 0.834330 -0.196362
USER    NEWDPF dihe0	-10.40 139.92 -63.61 -134.85 36.28 179.18 148.53 -142.31 138.78 
USER  
USER                              x       y       z    vdW   Elec        q     RMS 
ATOM      1  C   UNL     1      36.380  15.438 121.921 -0.16 -0.00    +0.000    127.201
ATOM      2  O   UNL     1      38.459  14.365 121.450 -0.41 -0.00    +0.000    127.201
ATOM      3  C   UNL     1      37.861  15.275 122.086 -0.33 -0.00    +0.000    127.201
ATOM      4  N   UNL     1      38.585  16.152 122.964 -0.27 -0.00    +0.000    127.201
ATOM      5  H   UNL     1      38.069  16.739 123.562 -0.01 -0.00    +0.000    127.201
ATOM      6  C   UNL     1      40.019  16.223 123.019 -0.23 -0.00    +0.000    127.201
ATOM      7  C   UNL     1      40.823  15.126 122.657 -0.44 -0.00    +0.000    127.201
ATOM      8  C   UNL     1      42.217  15.231 122.697 -0.44 -0.00    +0.000    127.201
ATOM      9  C   UNL     1      42.820  16.430 123.083 -0.39 -0.00    +0.000    127.201
ATOM     10  C   UNL     1      42.029  17.531 123.423 -0.30 -0.00    +0.000    127.201
ATOM     11  C   UNL     1      40.635  17.431 123.384 -0.26 -0.00    +0.000    127.201
ATOM     12  CM  UNL     1      41.424  16.329 123.044 +0.00 -0.00    +0.000    127.201
ATOM     13  C   UNL     1      35.672  15.280 123.270 -0.44 -0.00    +0.000    127.201
ATOM     14  C   UNL     1      36.283  14.128 124.081 -0.41 -0.00    +0.000    127.201
ATOM     15  C   UNL     1      36.739  12.959 123.194 -0.62 -0.00    +0.000    127.201
ATOM     16  C   UNL     1      35.822  11.729 123.322 -0.65 -0.00    +0.000    127.201
ATOM     17  C   UNL     1      36.577  10.415 123.081 -0.69 -0.00    +0.000    127.201
ATOM     18  C   UNL     1      37.061  10.303 121.664 -0.50 -0.00    +0.000    127.201
ATOM     19  N   UNL     1      37.643  11.431 121.005 -0.36 -0.00    +0.000    127.201
ATOM     20  O   UNL     1      36.980   9.198 121.063 -2.71 -0.00    +0.000    127.201
ATOM     21  H   UNL     1      37.702  12.294 121.477 -0.02 -0.00    +0.000    127.201
ATOM     22  O   UNL     1      38.111  11.323 119.740 -0.55 -0.00    +0.000    127.201
ATOM     23  H   UNL     1      38.130  10.389 119.481 -0.03 -0.00    +0.000    127.201
TER
ENDMDL


AVSFLD: # AVS field file
AVSFLD: #
AVSFLD: # Created by AutoDock
AVSFLD: #
AVSFLD: ndim=2           # number of dimensions in the field
AVSFLD: nspace=1         # number of physical coordinates
AVSFLD: veclen=7         # vector size
AVSFLD: dim1=23          # atoms
AVSFLD: dim2=17          # conformations
AVSFLD: data=Real       # data type (byte,integer,Real,double)
AVSFLD: field=uniform    # field coordinate layout
AVSFLD: label= x y z vdW Elec q RMS
AVSFLD: variable 1 file = ligand_dock.biased.dlg.pdb filetype = ascii offset = 5 stride = 12
AVSFLD: variable 2 file = ligand_dock.biased.dlg.pdb filetype = ascii offset = 6 stride = 12
AVSFLD: variable 3 file = ligand_dock.biased.dlg.pdb filetype = ascii offset = 7 stride = 12
AVSFLD: variable 4 file = ligand_dock.biased.dlg.pdb filetype = ascii offset = 8 stride = 12
AVSFLD: variable 5 file = ligand_dock.biased.dlg.pdb filetype = ascii offset = 9 stride = 12
AVSFLD: variable 6 file = ligand_dock.biased.dlg.pdb filetype = ascii offset = 10 stride = 12
AVSFLD: variable 7 file = ligand_dock.biased.dlg.pdb filetype = ascii offset = 11 stride = 12
AVSFLD: # end of file

>>> Closing the docking parameter file (DPF)...
This docking finished at:			6:50 56" p.m., 11/08/2024


________________________________________________________________________________

autodock4: Successful Completion on "ThinkStation-P620"

Real= 11m 48.93s,  CPU= 11m 48.68s,  System= 0.19s
________________________________________________________________________________

