REMARK  Name = 
REMARK  12 active torsions:
REMARK  status: ('A' for Active; 'I' for Inactive)
REMARK    1  A    between atoms: C_2  and  O_3
REMARK    2  A    between atoms: O_3  and  C_4
REMARK    3  A    between atoms: C_4  and  C_5
REMARK    4  A    between atoms: C_10  and  C_11
REMARK    5  A    between atoms: C_11  and  N_12
REMARK    6  A    between atoms: N_12  and  C_13
REMARK    7  A    between atoms: N_12  and  C_15
REMARK    8  A    between atoms: C_13  and  C_14
REMARK    9  A    between atoms: C_15  and  C_16
REMARK   10  A    between atoms: N_21  and  C_22
REMARK   11  A    between atoms: C_25  and  C_26
REMARK   12  A    between atoms: N_27  and  O_28
REMARK                            x       y       z     vdW  Elec       q    Type
REMARK                         _______ _______ _______ _____ _____    ______ ____
ROOT
ATOM      1  C   UNL     1       1.699  -0.437   1.488  0.00  0.00    +0.000 C 
ENDROOT
BRANCH   1   2
ATOM      2  C   UNL     1       0.296  -0.546   0.965  0.00  0.00    +0.000 A 
ATOM      3  C   UNL     1      -0.177  -1.768   0.463  0.00  0.00    +0.000 A 
ATOM      4  C   UNL     1      -1.470  -1.865  -0.060  0.00  0.00    +0.000 A 
ATOM      5  C   UNL     1      -2.302  -0.738  -0.100  0.00  0.00    +0.000 A 
ATOM      6  C   UNL     1      -3.601  -0.826  -0.624  0.00  0.00    +0.000 A 
ATOM      7  C   UNL     1      -4.428   0.308  -0.666  0.00  0.00    +0.000 A 
ATOM      8  C   UNL     1      -3.948   1.533  -0.178  0.00  0.00    +0.000 A 
ATOM      9  C   UNL     1      -2.656   1.631   0.344  0.00  0.00    +0.000 A 
ATOM     10  C   UNL     1      -1.825   0.502   0.389  0.00  0.00    +0.000 A 
ATOM     11  C   UNL     1      -0.527   0.590   0.913  0.00  0.00    +0.000 A 
BRANCH   7  12
ATOM     12  C   UNL     1      -5.830   0.215  -1.209  0.00  0.00    +0.000 C 
BRANCH  12  13
ATOM     13  N   UNL     1      -6.811   0.401  -0.118  0.00  0.00    +0.000 N 
ATOM     14  H   UNL     1      -6.428   1.080   0.540  0.00  0.00    +0.000 HD
BRANCH  13  15
ATOM     15  C   UNL     1      -6.997  -0.847   0.660  0.00  0.00    +0.000 C 
ATOM     16  C   UNL     1      -7.734  -0.594   1.975  0.00  0.00    +0.000 C 
ENDBRANCH  13  15
BRANCH  13  17
ATOM     17  C   UNL     1      -8.075   1.010  -0.602  0.00  0.00    +0.000 C 
ATOM     18  C   UNL     1      -8.885   0.115  -1.550  0.00  0.00    +0.000 C 
ENDBRANCH  13  17
ENDBRANCH  12  13
ENDBRANCH   7  12
ENDBRANCH   1   2
BRANCH   1  19
ATOM     19  O   UNL     1       2.567  -0.055   0.426  0.00  0.00    +0.000 OA
BRANCH  19  21
ATOM     20  O   UNL     1       4.462  -0.032   1.741  0.00  0.00    +0.000 OA
ATOM     21  C   UNL     1       3.941   0.125   0.603  0.00  0.00    +0.000 C 
ATOM     22  N   UNL     1       4.740   0.531  -0.517  0.00  0.00    +0.000 N 
ATOM     23  H   UNL     1       4.273   0.796  -1.342  0.00  0.00    +0.000 HD
BRANCH  22  24
ATOM     24  C   UNL     1       6.177   0.576  -0.514  0.00  0.00    +0.000 A 
ATOM     25  C   UNL     1       6.836   1.548  -1.278  0.00  0.00    +0.000 A 
ATOM     26  C   UNL     1       8.232   1.600  -1.311  0.00  0.00    +0.000 A 
ATOM     27  C   UNL     1       9.000   0.674  -0.584  0.00  0.00    +0.000 A 
ATOM     28  C   UNL     1       8.337  -0.324   0.154  0.00  0.00    +0.000 A 
ATOM     29  C   UNL     1       6.940  -0.374   0.186  0.00  0.00    +0.000 A 
BRANCH  27  30
ATOM     30  C   UNL     1      10.481   0.739  -0.631  0.00  0.00    +0.000 C 
ATOM     31  N   UNL     1      11.287   0.173   0.410  0.00  0.00    +0.000 N 
ATOM     32  O   UNL     1      11.047   1.316  -1.599  0.00  0.00    +0.000 OA
ATOM     33  H   UNL     1      10.858  -0.203   1.212  0.00  0.00    +0.000 HD
BRANCH  31  34
ATOM     34  O   UNL     1      12.636   0.155   0.295  0.00  0.00    +0.000 OA
ATOM     35  H   UNL     1      12.895   0.561  -0.548  0.00  0.00    +0.000 HD
ENDBRANCH  31  34
ENDBRANCH  27  30
ENDBRANCH  22  24
ENDBRANCH  19  21
ENDBRANCH   1  19
TORSDOF 10
