          AutoDock 4.2 Release 4.2.6   
         (C) 1989-2012 The Scripps Research Institute
        AutoDock comes with ABSOLUTELY NO WARRANTY.
        AutoDock is free software, and you are welcome
        to redistribute it under certain conditions;
        for details type 'autodock4 -C'

                     main.cc  $Revision: 1.213 $

                   Compiled on Feb 20 2022 at 09:48:33


This file was created at:			10:03 16" a.m., 11/08/2024
                   on host:		"ThinkStation-P620"
Current Working Directory = "/home/antonio/Documenti/buccheri/IDROSSAMICO HDAC/HDAC 2/P/Ligand_7"

      ________________________________________________________________

                   SETTING UP DEFAULT PARAMETER LIBRARY
      ________________________________________________________________


Random number generator was seeded with values 328178, 1731056596.
Docking parameter file (DPF) used for this docking:		ligand_dock.biased.dpf
DPF> autodock_parameter_version 4.2       # used by autodock to validate parameter set

	Autodock parameter version 4.2.
DPF> outlev 1                             # diagnostic output level

Output Level = 1  ADT-COMPATIBLE OUTPUT DURING DOCKING.
DPF> intelec                              # calculate internal electrostatics

Electrostatic energies will be calculated for all non-bonds between moving atoms.
DPF> seed pid time                        # seeds for random generator

Random number generator was seeded with values 328178, 1731056596.
DPF> ligand_types A C OA HD N             # atoms types in ligand

DPF> fld receptor.maps.fld                # grid_data_file

Opening Grid Map Dimensions file:		receptor.maps.fld
Grid Point Spacing =				0.375 Angstroms

Even Number of User-specified Grid Points =	70 x-points
						70 y-points
						70 z-points

Coordinates of Central Grid Point of Maps =	(24.757, -16.735, 0.794)
Macromolecule file used to create Grid Maps =	receptor.pdbqt
Grid Parameter file used to create Grid Maps =	receptor.gpf
Minimum coordinates in grid = (11.632, -29.860, -12.331)
Maximum coordinates in grid = (37.882, -3.610, 13.919)

DPF> map receptor.A.map                   # atom-specific affinity map

DPF> map receptor.C.map                   # atom-specific affinity map

DPF> map receptor.OA.biased.map

DPF> map receptor.HD.biased.map

DPF> map receptor.N.map                   # atom-specific affinity map

DPF> elecmap receptor.e.map               # electrostatics map

DPF> desolvmap receptor.d.map             # desolvation map

DPF> move ligand.pdbqt                    # small molecule

1,4-interactions will be _ignored_ in the non-bonded internal energy calculation.

Ligand PDBQT file = "ligand.pdbqt"

INPUT LIGAND PDBQT FILE:
________________________

INPUT-LIGAND-PDBQT: REMARK  Name = 
INPUT-LIGAND-PDBQT: REMARK  12 active torsions:
INPUT-LIGAND-PDBQT: REMARK  status: ('A' for Active; 'I' for Inactive)
INPUT-LIGAND-PDBQT: REMARK    1  A    between atoms: C_2  and  O_3
INPUT-LIGAND-PDBQT: REMARK    2  A    between atoms: O_3  and  C_4
INPUT-LIGAND-PDBQT: REMARK    3  A    between atoms: C_4  and  C_5
INPUT-LIGAND-PDBQT: REMARK    4  A    between atoms: C_10  and  C_11
INPUT-LIGAND-PDBQT: REMARK    5  A    between atoms: C_11  and  N_12
INPUT-LIGAND-PDBQT: REMARK    6  A    between atoms: N_12  and  C_13
INPUT-LIGAND-PDBQT: REMARK    7  A    between atoms: N_12  and  C_15
INPUT-LIGAND-PDBQT: REMARK    8  A    between atoms: C_13  and  C_14
INPUT-LIGAND-PDBQT: REMARK    9  A    between atoms: C_15  and  C_16
INPUT-LIGAND-PDBQT: REMARK   10  A    between atoms: N_21  and  C_22
INPUT-LIGAND-PDBQT: REMARK   11  A    between atoms: C_25  and  C_26
INPUT-LIGAND-PDBQT: REMARK   12  A    between atoms: N_27  and  O_28
INPUT-LIGAND-PDBQT: REMARK                            x       y       z     vdW  Elec       q    Type
INPUT-LIGAND-PDBQT: REMARK                         _______ _______ _______ _____ _____    ______ ____
INPUT-LIGAND-PDBQT: ROOT
INPUT-LIGAND-PDBQT: ATOM      1  C   UNL     1       1.699  -0.437   1.488  0.00  0.00    +0.000 C 
INPUT-LIGAND-PDBQT: ENDROOT
INPUT-LIGAND-PDBQT: BRANCH   1   2
INPUT-LIGAND-PDBQT: ATOM      2  C   UNL     1       0.296  -0.546   0.965  0.00  0.00    +0.000 A 
INPUT-LIGAND-PDBQT: ATOM      3  C   UNL     1      -0.177  -1.768   0.463  0.00  0.00    +0.000 A 
INPUT-LIGAND-PDBQT: ATOM      4  C   UNL     1      -1.470  -1.865  -0.060  0.00  0.00    +0.000 A 
INPUT-LIGAND-PDBQT: ATOM      5  C   UNL     1      -2.302  -0.738  -0.100  0.00  0.00    +0.000 A 
INPUT-LIGAND-PDBQT: ATOM      6  C   UNL     1      -3.601  -0.826  -0.624  0.00  0.00    +0.000 A 
INPUT-LIGAND-PDBQT: ATOM      7  C   UNL     1      -4.428   0.308  -0.666  0.00  0.00    +0.000 A 
INPUT-LIGAND-PDBQT: ATOM      8  C   UNL     1      -3.948   1.533  -0.178  0.00  0.00    +0.000 A 
INPUT-LIGAND-PDBQT: ATOM      9  C   UNL     1      -2.656   1.631   0.344  0.00  0.00    +0.000 A 
INPUT-LIGAND-PDBQT: ATOM     10  C   UNL     1      -1.825   0.502   0.389  0.00  0.00    +0.000 A 
INPUT-LIGAND-PDBQT: ATOM     11  C   UNL     1      -0.527   0.590   0.913  0.00  0.00    +0.000 A 
INPUT-LIGAND-PDBQT: BRANCH   7  12
INPUT-LIGAND-PDBQT: ATOM     12  C   UNL     1      -5.830   0.215  -1.209  0.00  0.00    +0.000 C 
INPUT-LIGAND-PDBQT: BRANCH  12  13
INPUT-LIGAND-PDBQT: ATOM     13  N   UNL     1      -6.811   0.401  -0.118  0.00  0.00    +0.000 N 
INPUT-LIGAND-PDBQT: ATOM     14  H   UNL     1      -6.428   1.080   0.540  0.00  0.00    +0.000 HD
INPUT-LIGAND-PDBQT: BRANCH  13  15
INPUT-LIGAND-PDBQT: ATOM     15  C   UNL     1      -6.997  -0.847   0.660  0.00  0.00    +0.000 C 
INPUT-LIGAND-PDBQT: ATOM     16  C   UNL     1      -7.734  -0.594   1.975  0.00  0.00    +0.000 C 
INPUT-LIGAND-PDBQT: ENDBRANCH  13  15
INPUT-LIGAND-PDBQT: BRANCH  13  17
INPUT-LIGAND-PDBQT: ATOM     17  C   UNL     1      -8.075   1.010  -0.602  0.00  0.00    +0.000 C 
INPUT-LIGAND-PDBQT: ATOM     18  C   UNL     1      -8.885   0.115  -1.550  0.00  0.00    +0.000 C 
INPUT-LIGAND-PDBQT: ENDBRANCH  13  17
INPUT-LIGAND-PDBQT: ENDBRANCH  12  13
INPUT-LIGAND-PDBQT: ENDBRANCH   7  12
INPUT-LIGAND-PDBQT: ENDBRANCH   1   2
INPUT-LIGAND-PDBQT: BRANCH   1  19
INPUT-LIGAND-PDBQT: ATOM     19  O   UNL     1       2.567  -0.055   0.426  0.00  0.00    +0.000 OA
INPUT-LIGAND-PDBQT: BRANCH  19  21
INPUT-LIGAND-PDBQT: ATOM     20  O   UNL     1       4.462  -0.032   1.741  0.00  0.00    +0.000 OA
INPUT-LIGAND-PDBQT: ATOM     21  C   UNL     1       3.941   0.125   0.603  0.00  0.00    +0.000 C 
INPUT-LIGAND-PDBQT: ATOM     22  N   UNL     1       4.740   0.531  -0.517  0.00  0.00    +0.000 N 
INPUT-LIGAND-PDBQT: ATOM     23  H   UNL     1       4.273   0.796  -1.342  0.00  0.00    +0.000 HD
INPUT-LIGAND-PDBQT: BRANCH  22  24
INPUT-LIGAND-PDBQT: ATOM     24  C   UNL     1       6.177   0.576  -0.514  0.00  0.00    +0.000 A 
INPUT-LIGAND-PDBQT: ATOM     25  C   UNL     1       6.836   1.548  -1.278  0.00  0.00    +0.000 A 
INPUT-LIGAND-PDBQT: ATOM     26  C   UNL     1       8.232   1.600  -1.311  0.00  0.00    +0.000 A 
INPUT-LIGAND-PDBQT: ATOM     27  C   UNL     1       9.000   0.674  -0.584  0.00  0.00    +0.000 A 
INPUT-LIGAND-PDBQT: ATOM     28  C   UNL     1       8.337  -0.324   0.154  0.00  0.00    +0.000 A 
INPUT-LIGAND-PDBQT: ATOM     29  C   UNL     1       6.940  -0.374   0.186  0.00  0.00    +0.000 A 
INPUT-LIGAND-PDBQT: BRANCH  27  30
INPUT-LIGAND-PDBQT: ATOM     30  C   UNL     1      10.481   0.739  -0.631  0.00  0.00    +0.000 C 
INPUT-LIGAND-PDBQT: ATOM     31  N   UNL     1      11.287   0.173   0.410  0.00  0.00    +0.000 N 
INPUT-LIGAND-PDBQT: ATOM     32  O   UNL     1      11.047   1.316  -1.599  0.00  0.00    +0.000 OA
INPUT-LIGAND-PDBQT: ATOM     33  H   UNL     1      10.858  -0.203   1.212  0.00  0.00    +0.000 HD
INPUT-LIGAND-PDBQT: BRANCH  31  34
INPUT-LIGAND-PDBQT: ATOM     34  O   UNL     1      12.636   0.155   0.295  0.00  0.00    +0.000 OA
INPUT-LIGAND-PDBQT: ATOM     35  H   UNL     1      12.895   0.561  -0.548  0.00  0.00    +0.000 HD
INPUT-LIGAND-PDBQT: ENDBRANCH  31  34
INPUT-LIGAND-PDBQT: ENDBRANCH  27  30
INPUT-LIGAND-PDBQT: ENDBRANCH  22  24
INPUT-LIGAND-PDBQT: ENDBRANCH  19  21
INPUT-LIGAND-PDBQT: ENDBRANCH   1  19
INPUT-LIGAND-PDBQT: TORSDOF 10
________________________________________________________________________________

Total charge on ligand                               =	+0.000 e
REMARK  Name = 
REMARK  12 active torsions:
REMARK  status: ('A' for Active; 'I' for Inactive)
REMARK    1  A    between atoms: C_2  and  O_3
REMARK    2  A    between atoms: O_3  and  C_4
REMARK    3  A    between atoms: C_4  and  C_5
REMARK    4  A    between atoms: C_10  and  C_11
REMARK    5  A    between atoms: C_11  and  N_12
REMARK    6  A    between atoms: N_12  and  C_13
REMARK    7  A    between atoms: N_12  and  C_15
REMARK    8  A    between atoms: C_13  and  C_14
REMARK    9  A    between atoms: C_15  and  C_16
REMARK   10  A    between atoms: N_21  and  C_22
REMARK   11  A    between atoms: C_25  and  C_26
REMARK   12  A    between atoms: N_27  and  O_28
REMARK                            x       y       z     vdW  Elec       q    Type
REMARK                         _______ _______ _______ _____ _____    ______ ____


Number of Rotatable Bonds in Small Molecule =	10 torsions
Number of atoms in ligand:  35

Number of non-hydrogen atoms in ligand:  31

Number of vibrational degrees of freedom of ligand:  99


Number of torsional degrees of freedom = 10
Estimated loss of torsional free energy upon binding = +2.9830 kcal/mol


DPF> about 1.857 0.216 -0.019            # small molecule center

Small molecule center of rotation =	(+1.857, +0.216, -0.019)

DPF> tran0 random                         # initial coordinates/A or random

Initial translation =			(34.151, -15.606, 3.922) Angstroms
DPF> quaternion0 random                   # initial orientation

Each run will begin with a new, random initial orientation.
Initial quaternion,  (x,y,z,w) =	( 0.356, 0.099, -0.368, 0.853 ),
DPF> dihe0 random                         # initial dihedrals (relative) or random

DPF> torsdof 10                            # torsional degrees of freedom

Number of torsional degrees of freedom = 10
Free energy coefficient for torsional degrees of freedom = 0.2983, the factory default value.

Estimated loss of torsional free energy upon binding = +2.9830 kcal/mol

DPF> rmstol 2.0                           # cluster_tolerance/A

Maximum RMS tolerance for conformational cluster analysis = 2.00 Angstroms
DPF> extnrg 1000.0                        # external grid energy

External grid energy (beyond grid map walls) = 1000.00

DPF> e0max 0.0 10000                      # max initial energy; max number of retries

Using user-specified maximum number of retries for simanneal initialization, 10000 retries.
If the simanneal initial energy is greater than e0max, 0.000,
then a new, random initial state will be created.

DPF> ga_pop_size 150                      # number of individuals in population

A population of 150 individuals will be used
DPF> ga_num_evals 2500000                 # maximum number of energy evaluations

There will be at most 2500000 function evaluations used.
DPF> ga_num_generations 27000             # maximum number of generations

The GA will run for at most 27000 generations.
DPF> ga_elitism 1                         # number of top individuals to survive to next generation

The 1 best will be preserved each GA generation.
DPF> ga_mutation_rate 0.02                # rate of gene mutation

The mutation rate is 0.020000.
DPF> ga_crossover_rate 0.8                # rate of crossover

The crossover rate is 0.800000.
DPF> ga_window_size 10                    # 

The GA's selection window is 10 generations.
DPF> ga_cauchy_alpha 0.0                  # Alpha parameter of Cauchy distribution

The alpha parameter (for the Cauchy distribution) is being set to 0.000000.
DPF> ga_cauchy_beta 1.0                   # Beta parameter Cauchy distribution

The beta parameter (for the Cauchy distribution) is being set to 1.000000.
DPF> set_ga                               # set the above parameters for GA or LGA

DPF> sw_max_its 300                       # iterations of Solis & Wets local search

Solis & Wets algorithms will perform at most 300 iterations.
DPF> sw_max_succ 4                        # consecutive successes before changing rho

Solis & Wets algorithms expand rho every 4 in a row successes.
DPF> sw_max_fail 4                        # consecutive failures before changing rho

Solis & Wets algorithms contract rho every 4 in a row failures.
DPF> sw_rho 1.0                           # size of local search space to sample

rho is set to 1.000000.
DPF> sw_lb_rho 0.01                       # lower bound on rho

rho will never get smaller than 0.010000.
DPF> ls_search_freq 0.06                  # probability of performing local search on individual

Local search will be performed with frequency 0.060000.
DPF> set_psw1                             # set the above pseudo-Solis & Wets parameters

Creating a new Local Search object using the pseudo-Solis-Wets algorithm (pSW1) with the current settings.

DPF> unbound_model bound                  # state of unbound ligand

DPF> ga_run 100

centering ligand on specified point: 1.857 0.216 -0.019
Furthest true ligand atom from "about" center is 11.056 Angstroms (maxrad).
Number of requested GA dockings = 100 runs
Unbound model to be used is 'same as bound' [AutoDock 4.2 default].

	BEGINNING GENETIC ALGORITHM DOCKING 1 of 100
Run: 1 Seed: 358260673 1507618878 [ Run 1 of 100 GA/GALS ]
Beginning LAMARCKIAN GENETIC ALGORITHM (LGA), with a maximum of 2500000 energy evaluations.

Final-Value: -16.243


	FINAL GENETIC ALGORITHM DOCKED STATE
	_______________________________________________


Detailed state:  trans 28.287 -15.108 -0.404 quatxyzw -0.827146 0.369984 -0.419314 -0.055837 center 1.857 0.216 -0.019 ntor 10 -179.5919 170.5947 12.5873 -44.4435 -25.5431 -1.0484 173.9939 -77.1206 -6.9064 -139.9307
State:	 28.287 -15.108  -0.404  -0.828  0.371 -0.420 -173.598   -179.59  170.59   12.59  -44.44  -25.54   -1.05  173.99  -77.12   -6.91 -139.93

DOCKED: MODEL        1
DOCKED: USER    Run = 1
DOCKED: USER    DPF = ligand_dock.biased.dpf
DOCKED: USER  
DOCKED: USER    Estimated Free Energy of Binding    =  -10.82 kcal/mol  [=(1)+(2)+(3)-(4)]
DOCKED: USER    Estimated Inhibition Constant, Ki   =   11.78 nM (nanomolar)  [Temperature = 298.15 K]
DOCKED: USER    
DOCKED: USER    (1) Final Intermolecular Energy     =  -13.80 kcal/mol
DOCKED: USER        vdW + Hbond + desolv Energy     =  -13.80 kcal/mol
DOCKED: USER        Electrostatic Energy            =   +0.00 kcal/mol
DOCKED: USER    (2) Final Total Internal Energy     =   -2.44 kcal/mol
DOCKED: USER    (3) Torsional Free Energy           =   +2.98 kcal/mol
DOCKED: USER    (4) Unbound System's Energy  [=(2)] =   -2.44 kcal/mol
DOCKED: USER    
DOCKED: USER    
DOCKED: USER    NEWDPF move ligand.pdbqt
DOCKED: USER    NEWDPF about 1.857000 0.216000 -0.019000
DOCKED: USER    NEWDPF tran0 28.286751 -15.108127 -0.404470
DOCKED: USER    NEWDPF quaternion0 -0.827146 0.369984 -0.419314 -0.055837
DOCKED: USER    NEWDPF axisangle0 -0.828438 0.370562 -0.419969 -173.598206
DOCKED: USER    NEWDPF quat0 -0.828438 0.370562 -0.419969 -173.598206
DOCKED: USER    NEWDPF dihe0 -179.59 170.59 12.59 -44.44 -25.54 -1.05 173.99 -77.12 -6.91 -139.93 
DOCKED: USER  keepresnum = 1 
DOCKED: USER  
DOCKED: REMARK  Name = 
DOCKED: REMARK  12 active torsions:
DOCKED: REMARK  status: ('A' for Active; 'I' for Inactive)
DOCKED: REMARK    1  A    between atoms: C_2  and  O_3
DOCKED: REMARK    2  A    between atoms: O_3  and  C_4
DOCKED: REMARK    3  A    between atoms: C_4  and  C_5
DOCKED: REMARK    4  A    between atoms: C_10  and  C_11
DOCKED: REMARK    5  A    between atoms: C_11  and  N_12
DOCKED: REMARK    6  A    between atoms: N_12  and  C_13
DOCKED: REMARK    7  A    between atoms: N_12  and  C_15
DOCKED: REMARK    8  A    between atoms: C_13  and  C_14
DOCKED: REMARK    9  A    between atoms: C_15  and  C_16
DOCKED: REMARK   10  A    between atoms: N_21  and  C_22
DOCKED: REMARK   11  A    between atoms: C_25  and  C_26
DOCKED: REMARK   12  A    between atoms: N_27  and  O_28
DOCKED: REMARK                            x       y       z     vdW  Elec       q    Type
DOCKED: REMARK                         _______ _______ _______ _____ _____    ______ ____
DOCKED: USER                              x       y       z     vdW  Elec       q    Type
DOCKED: USER                           _______ _______ _______ _____ _____    ______ ____
DOCKED: ROOT
DOCKED: ATOM      1  C   UNL     1      29.704 -14.862  -1.212 -0.10 -0.00    +0.000 C 
DOCKED: ENDROOT
DOCKED: BRANCH   1   2
DOCKED: ATOM      2  C   UNL     1      28.856 -13.745  -1.748 -0.07 -0.00    +0.000 A 
DOCKED: ATOM      3  C   UNL     1      28.896 -12.478  -1.146 -0.05 -0.00    +0.000 A 
DOCKED: ATOM      4  C   UNL     1      28.079 -11.446  -1.617 -0.08 -0.00    +0.000 A 
DOCKED: ATOM      5  C   UNL     1      27.203 -11.670  -2.688 -0.10 -0.00    +0.000 A 
DOCKED: ATOM      6  C   UNL     1      26.380 -10.640  -3.167 -0.00 -0.00    +0.000 A 
DOCKED: ATOM      7  C   UNL     1      25.500 -10.873  -4.236 -0.19 -0.00    +0.000 A 
DOCKED: ATOM      8  C   UNL     1      25.450 -12.145  -4.827 -0.26 -0.00    +0.000 A 
DOCKED: ATOM      9  C   UNL     1      26.265 -13.177  -4.356 -0.33 -0.00    +0.000 A 
DOCKED: ATOM     10  C   UNL     1      27.146 -12.951  -3.288 -0.19 -0.00    +0.000 A 
DOCKED: ATOM     11  C   UNL     1      27.969 -13.981  -2.810 -0.15 -0.00    +0.000 A 
DOCKED: BRANCH   7  12
DOCKED: ATOM     12  C   UNL     1      24.628  -9.765  -4.768 -0.37 -0.00    +0.000 C 
DOCKED: BRANCH  12  13
DOCKED: ATOM     13  N   UNL     1      25.084  -9.362  -6.116 -0.22 -0.00    +0.000 N 
DOCKED: ATOM     14  H   UNL     1      25.974  -9.824  -6.300 +0.00 -0.00    +0.000 HD
DOCKED: BRANCH  13  15
DOCKED: ATOM     15  C   UNL     1      25.368  -7.909  -6.178 -0.12 -0.00    +0.000 C 
DOCKED: ATOM     16  C   UNL     1      24.814  -7.167  -4.961 -0.16 -0.00    +0.000 C 
DOCKED: ENDBRANCH  13  15
DOCKED: BRANCH  13  17
DOCKED: ATOM     17  C   UNL     1      24.173  -9.850  -7.181 -0.43 -0.00    +0.000 C 
DOCKED: ATOM     18  C   UNL     1      24.854 -10.726  -8.242 -0.31 -0.00    +0.000 C 
DOCKED: ENDBRANCH  13  17
DOCKED: ENDBRANCH  12  13
DOCKED: ENDBRANCH   7  12
DOCKED: ENDBRANCH   1   2
DOCKED: BRANCH   1  19
DOCKED: ATOM     19  O   UNL     1      29.033 -15.478  -0.118 -0.22 -0.00    +0.000 OA
DOCKED: BRANCH  19  21
DOCKED: ATOM     20  O   UNL     1      26.848 -14.776   0.119 -0.35 -0.00    +0.000 OA
DOCKED: ATOM     21  C   UNL     1      27.656 -15.716  -0.115 -0.33 -0.00    +0.000 C 
DOCKED: ATOM     22  N   UNL     1      27.180 -17.050  -0.341 -0.45 -0.00    +0.000 N 
DOCKED: ATOM     23  H   UNL     1      27.843 -17.777  -0.359 -0.21 -0.00    +0.000 HD
DOCKED: BRANCH  22  24
DOCKED: ATOM     24  C   UNL     1      25.799 -17.395  -0.541 -0.55 -0.00    +0.000 A 
DOCKED: ATOM     25  C   UNL     1      24.921 -16.439  -1.068 -0.51 -0.00    +0.000 A 
DOCKED: ATOM     26  C   UNL     1      23.569 -16.740  -1.251 -0.36 -0.00    +0.000 A 
DOCKED: ATOM     27  C   UNL     1      23.064 -18.005  -0.904 -0.72 -0.00    +0.000 A 
DOCKED: ATOM     28  C   UNL     1      23.940 -18.952  -0.341 -0.42 -0.00    +0.000 A 
DOCKED: ATOM     29  C   UNL     1      25.292 -18.649  -0.159 -0.38 -0.00    +0.000 A 
DOCKED: BRANCH  27  30
DOCKED: ATOM     30  C   UNL     1      21.626 -18.310  -1.101 -0.69 -0.00    +0.000 C 
DOCKED: ATOM     31  N   UNL     1      21.200 -19.518  -1.745 -0.64 -0.00    +0.000 N 
DOCKED: ATOM     32  O   UNL     1      20.757 -17.485  -0.708 -2.08 +0.00    +0.000 OA
DOCKED: ATOM     33  H   UNL     1      21.867 -20.128  -2.133 -0.55 -0.00    +0.000 HD
DOCKED: BRANCH  31  34
DOCKED: ATOM     34  O   UNL     1      19.882 -19.821  -1.822 -1.85 -0.00    +0.000 OA
DOCKED: ATOM     35  H   UNL     1      19.356 -19.043  -1.579 -0.38 -0.00    +0.000 HD
DOCKED: ENDBRANCH  31  34
DOCKED: ENDBRANCH  27  30
DOCKED: ENDBRANCH  22  24
DOCKED: ENDBRANCH  19  21
DOCKED: ENDBRANCH   1  19
DOCKED: TORSDOF 10
DOCKED: TER
DOCKED: ENDMDL
________________________________________________________________________________


	BEGINNING GENETIC ALGORITHM DOCKING 2 of 100
Run: 2 Seed: 1842262843 1166142026 [ Run 2 of 100 GA/GALS ]
Beginning LAMARCKIAN GENETIC ALGORITHM (LGA), with a maximum of 2500000 energy evaluations.

Final-Value: -13.626


	FINAL GENETIC ALGORITHM DOCKED STATE
	_______________________________________________


Detailed state:  trans 28.302 -16.779 -0.988 quatxyzw -0.213485 0.577115 0.769528 -0.170850 center 1.857 0.216 -0.019 ntor 10 -114.9599 178.8239 9.2829 -76.0757 -111.1856 121.6290 -31.7713 15.7185 -36.1553 -52.8321
State:	 28.302 -16.779  -0.988  -0.217  0.586  0.781 -160.326   -114.96  178.82    9.28  -76.08 -111.19  121.63  -31.77   15.72  -36.16  -52.83

DOCKED: MODEL        2
DOCKED: USER    Run = 2
DOCKED: USER    DPF = ligand_dock.biased.dpf
DOCKED: USER  
DOCKED: USER    Estimated Free Energy of Binding    =   -8.75 kcal/mol  [=(1)+(2)+(3)-(4)]
DOCKED: USER    Estimated Inhibition Constant, Ki   =  384.64 nM (nanomolar)  [Temperature = 298.15 K]
DOCKED: USER    
DOCKED: USER    (1) Final Intermolecular Energy     =  -11.73 kcal/mol
DOCKED: USER        vdW + Hbond + desolv Energy     =  -11.73 kcal/mol
DOCKED: USER        Electrostatic Energy            =   +0.00 kcal/mol
DOCKED: USER    (2) Final Total Internal Energy     =   -1.89 kcal/mol
DOCKED: USER    (3) Torsional Free Energy           =   +2.98 kcal/mol
DOCKED: USER    (4) Unbound System's Energy  [=(2)] =   -1.89 kcal/mol
DOCKED: USER    
DOCKED: USER    
DOCKED: USER    NEWDPF move ligand.pdbqt
DOCKED: USER    NEWDPF about 1.857000 0.216000 -0.019000
DOCKED: USER    NEWDPF tran0 28.302165 -16.779028 -0.987708
DOCKED: USER    NEWDPF quaternion0 -0.213485 0.577115 0.769528 -0.170850
DOCKED: USER    NEWDPF axisangle0 -0.216670 0.585727 0.781011 -160.325527
DOCKED: USER    NEWDPF quat0 -0.216670 0.585727 0.781011 -160.325527
DOCKED: USER    NEWDPF dihe0 -114.96 178.82 9.28 -76.08 -111.19 121.63 -31.77 15.72 -36.16 -52.83 
DOCKED: USER  keepresnum = 1 
DOCKED: USER  
DOCKED: REMARK  Name = 
DOCKED: REMARK  12 active torsions:
DOCKED: REMARK  status: ('A' for Active; 'I' for Inactive)
DOCKED: REMARK    1  A    between atoms: C_2  and  O_3
DOCKED: REMARK    2  A    between atoms: O_3  and  C_4
DOCKED: REMARK    3  A    between atoms: C_4  and  C_5
DOCKED: REMARK    4  A    between atoms: C_10  and  C_11
DOCKED: REMARK    5  A    between atoms: C_11  and  N_12
DOCKED: REMARK    6  A    between atoms: N_12  and  C_13
DOCKED: REMARK    7  A    between atoms: N_12  and  C_15
DOCKED: REMARK    8  A    between atoms: C_13  and  C_14
DOCKED: REMARK    9  A    between atoms: C_15  and  C_16
DOCKED: REMARK   10  A    between atoms: N_21  and  C_22
DOCKED: REMARK   11  A    between atoms: C_25  and  C_26
DOCKED: REMARK   12  A    between atoms: N_27  and  O_28
DOCKED: REMARK                            x       y       z     vdW  Elec       q    Type
DOCKED: REMARK                         _______ _______ _______ _____ _____    ______ ____
DOCKED: USER                              x       y       z     vdW  Elec       q    Type
DOCKED: USER                           _______ _______ _______ _____ _____    ______ ____
DOCKED: ROOT
DOCKED: ATOM      1  C   UNL     1      28.571 -15.153  -1.071 -0.19 -0.00    +0.000 C 
DOCKED: ENDROOT
DOCKED: BRANCH   1   2
DOCKED: ATOM      2  C   UNL     1      29.889 -15.649  -0.549 -0.14 -0.00    +0.000 A 
DOCKED: ATOM      3  C   UNL     1      30.688 -16.492  -1.337 -0.12 -0.00    +0.000 A 
DOCKED: ATOM      4  C   UNL     1      31.897 -16.987  -0.841 -0.08 -0.00    +0.000 A 
DOCKED: ATOM      5  C   UNL     1      32.317 -16.656   0.455 -0.09 -0.00    +0.000 A 
DOCKED: ATOM      6  C   UNL     1      33.530 -17.149   0.961 -0.05 -0.00    +0.000 A 
DOCKED: ATOM      7  C   UNL     1      33.943 -16.818   2.262 -0.09 -0.00    +0.000 A 
DOCKED: ATOM      8  C   UNL     1      33.135 -15.988   3.054 -0.16 -0.00    +0.000 A 
DOCKED: ATOM      9  C   UNL     1      31.926 -15.494   2.559 -0.18 -0.00    +0.000 A 
DOCKED: ATOM     10  C   UNL     1      31.508 -15.820   1.261 -0.12 -0.00    +0.000 A 
DOCKED: ATOM     11  C   UNL     1      30.296 -15.327   0.755 -0.08 -0.00    +0.000 A 
DOCKED: BRANCH   7  12
DOCKED: ATOM     12  C   UNL     1      35.252 -17.328   2.804 -0.09 -0.00    +0.000 C 
DOCKED: BRANCH  12  13
DOCKED: ATOM     13  N   UNL     1      35.037 -18.007   4.100 -0.18 -0.00    +0.000 N 
DOCKED: ATOM     14  H   UNL     1      34.362 -17.460   4.635 -0.15 -0.00    +0.000 HD
DOCKED: BRANCH  13  15
DOCKED: ATOM     15  C   UNL     1      36.274 -18.021   4.915 -0.05 -0.00    +0.000 C 
DOCKED: ATOM     16  C   UNL     1      36.889 -16.627   5.042 -0.12 -0.00    +0.000 C 
DOCKED: ENDBRANCH  13  15
DOCKED: BRANCH  13  17
DOCKED: ATOM     17  C   UNL     1      34.403 -19.338   3.934 -0.22 -0.00    +0.000 C 
DOCKED: ATOM     18  C   UNL     1      32.991 -19.444   4.526 -0.40 -0.00    +0.000 C 
DOCKED: ENDBRANCH  13  17
DOCKED: ENDBRANCH  12  13
DOCKED: ENDBRANCH   7  12
DOCKED: ENDBRANCH   1   2
DOCKED: BRANCH   1  19
DOCKED: ATOM     19  O   UNL     1      27.778 -16.265  -1.474 -0.33 -0.00    +0.000 OA
DOCKED: BRANCH  19  21
DOCKED: ATOM     20  O   UNL     1      25.847 -15.528  -0.450 -0.43 -0.00    +0.000 OA
DOCKED: ATOM     21  C   UNL     1      26.473 -16.464  -1.018 -0.49 -0.00    +0.000 C 
DOCKED: ATOM     22  N   UNL     1      25.873 -17.758  -1.168 -0.56 -0.00    +0.000 N 
DOCKED: ATOM     23  H   UNL     1      26.447 -18.499  -1.469 -0.04 -0.00    +0.000 HD
DOCKED: BRANCH  22  24
DOCKED: ATOM     24  C   UNL     1      24.488 -18.045  -0.908 -0.68 -0.00    +0.000 A 
DOCKED: ATOM     25  C   UNL     1      24.014 -19.353  -1.076 -0.35 -0.00    +0.000 A 
DOCKED: ATOM     26  C   UNL     1      22.668 -19.655  -0.852 -0.31 -0.00    +0.000 A 
DOCKED: ATOM     27  C   UNL     1      21.764 -18.651  -0.462 -0.76 -0.00    +0.000 A 
DOCKED: ATOM     28  C   UNL     1      22.235 -17.332  -0.329 -0.65 -0.00    +0.000 A 
DOCKED: ATOM     29  C   UNL     1      23.582 -17.032  -0.553 -0.51 -0.00    +0.000 A 
DOCKED: BRANCH  27  30
DOCKED: ATOM     30  C   UNL     1      20.338 -18.985  -0.231 -0.71 -0.00    +0.000 C 
DOCKED: ATOM     31  N   UNL     1      19.954 -20.132   0.538 -0.71 -0.00    +0.000 N 
DOCKED: ATOM     32  O   UNL     1      19.440 -18.256  -0.733 -1.46 -0.00    +0.000 OA
DOCKED: ATOM     33  H   UNL     1      20.642 -20.757   0.862 -0.38 -0.00    +0.000 HD
DOCKED: BRANCH  31  34
DOCKED: ATOM     34  O   UNL     1      18.650 -20.359   0.820 -0.79 -0.00    +0.000 OA
DOCKED: ATOM     35  H   UNL     1      18.096 -19.743   0.313 -0.07 -0.00    +0.000 HD
DOCKED: ENDBRANCH  31  34
DOCKED: ENDBRANCH  27  30
DOCKED: ENDBRANCH  22  24
DOCKED: ENDBRANCH  19  21
DOCKED: ENDBRANCH   1  19
DOCKED: TORSDOF 10
DOCKED: TER
DOCKED: ENDMDL
________________________________________________________________________________


	BEGINNING GENETIC ALGORITHM DOCKING 3 of 100
Run: 3 Seed: 1329602868 443901741 [ Run 3 of 100 GA/GALS ]
Beginning LAMARCKIAN GENETIC ALGORITHM (LGA), with a maximum of 2500000 energy evaluations.

Final-Value: -16.451


	FINAL GENETIC ALGORITHM DOCKED STATE
	_______________________________________________


Detailed state:  trans 28.609 -15.696 0.092 quatxyzw -0.667802 0.591333 0.364999 -0.266723 center 1.857 0.216 -0.019 ntor 10 -60.7143 60.2769 -0.0153 -78.2488 30.1749 172.6752 -118.6281 -81.2794 30.0906 -104.3673
State:	 28.609 -15.696   0.092  -0.693  0.614  0.379 -149.061    -60.71   60.28   -0.02  -78.25   30.17  172.68 -118.63  -81.28   30.09 -104.37

DOCKED: MODEL        3
DOCKED: USER    Run = 3
DOCKED: USER    DPF = ligand_dock.biased.dpf
DOCKED: USER  
DOCKED: USER    Estimated Free Energy of Binding    =  -11.59 kcal/mol  [=(1)+(2)+(3)-(4)]
DOCKED: USER    Estimated Inhibition Constant, Ki   =    3.18 nM (nanomolar)  [Temperature = 298.15 K]
DOCKED: USER    
DOCKED: USER    (1) Final Intermolecular Energy     =  -14.58 kcal/mol
DOCKED: USER        vdW + Hbond + desolv Energy     =  -14.58 kcal/mol
DOCKED: USER        Electrostatic Energy            =   +0.00 kcal/mol
DOCKED: USER    (2) Final Total Internal Energy     =   -1.88 kcal/mol
DOCKED: USER    (3) Torsional Free Energy           =   +2.98 kcal/mol
DOCKED: USER    (4) Unbound System's Energy  [=(2)] =   -1.88 kcal/mol
DOCKED: USER    
DOCKED: USER    
DOCKED: USER    NEWDPF move ligand.pdbqt
DOCKED: USER    NEWDPF about 1.857000 0.216000 -0.019000
DOCKED: USER    NEWDPF tran0 28.608907 -15.696109 0.091724
DOCKED: USER    NEWDPF quaternion0 -0.667802 0.591333 0.364999 -0.266723
DOCKED: USER    NEWDPF axisangle0 -0.692904 0.613560 0.378719 -149.061293
DOCKED: USER    NEWDPF quat0 -0.692904 0.613560 0.378719 -149.061293
DOCKED: USER    NEWDPF dihe0 -60.71 60.28 -0.02 -78.25 30.17 172.68 -118.63 -81.28 30.09 -104.37 
DOCKED: USER  keepresnum = 1 
DOCKED: USER  
DOCKED: REMARK  Name = 
DOCKED: REMARK  12 active torsions:
DOCKED: REMARK  status: ('A' for Active; 'I' for Inactive)
DOCKED: REMARK    1  A    between atoms: C_2  and  O_3
DOCKED: REMARK    2  A    between atoms: O_3  and  C_4
DOCKED: REMARK    3  A    between atoms: C_4  and  C_5
DOCKED: REMARK    4  A    between atoms: C_10  and  C_11
DOCKED: REMARK    5  A    between atoms: C_11  and  N_12
DOCKED: REMARK    6  A    between atoms: N_12  and  C_13
DOCKED: REMARK    7  A    between atoms: N_12  and  C_15
DOCKED: REMARK    8  A    between atoms: C_13  and  C_14
DOCKED: REMARK    9  A    between atoms: C_15  and  C_16
DOCKED: REMARK   10  A    between atoms: N_21  and  C_22
DOCKED: REMARK   11  A    between atoms: C_25  and  C_26
DOCKED: REMARK   12  A    between atoms: N_27  and  O_28
DOCKED: REMARK                            x       y       z     vdW  Elec       q    Type
DOCKED: REMARK                         _______ _______ _______ _____ _____    ______ ____
DOCKED: USER                              x       y       z     vdW  Elec       q    Type
DOCKED: USER                           _______ _______ _______ _____ _____    ______ ____
DOCKED: ROOT
DOCKED: ATOM      1  C   UNL     1      28.987 -14.311  -0.722 -0.12 -0.00    +0.000 C 
DOCKED: ENDROOT
DOCKED: BRANCH   1   2
DOCKED: ATOM      2  C   UNL     1      29.136 -13.871   0.706 -0.12 -0.00    +0.000 A 
DOCKED: ATOM      3  C   UNL     1      30.296 -13.197   1.119 -0.05 -0.00    +0.000 A 
DOCKED: ATOM      4  C   UNL     1      30.456 -12.818   2.455 -0.07 -0.00    +0.000 A 
DOCKED: ATOM      5  C   UNL     1      29.465 -13.122   3.399 -0.17 -0.00    +0.000 A 
DOCKED: ATOM      6  C   UNL     1      29.618 -12.747   4.742 -0.20 -0.00    +0.000 A 
DOCKED: ATOM      7  C   UNL     1      28.624 -13.058   5.684 -0.39 -0.00    +0.000 A 
DOCKED: ATOM      8  C   UNL     1      27.472 -13.746   5.272 -0.29 -0.00    +0.000 A 
DOCKED: ATOM      9  C   UNL     1      27.311 -14.125   3.938 -0.45 -0.00    +0.000 A 
DOCKED: ATOM     10  C   UNL     1      28.301 -13.817   2.992 -0.30 -0.00    +0.000 A 
DOCKED: ATOM     11  C   UNL     1      28.148 -14.192   1.649 -0.24 -0.00    +0.000 A 
DOCKED: BRANCH   7  12
DOCKED: ATOM     12  C   UNL     1      28.773 -12.640   7.123 -0.42 -0.00    +0.000 C 
DOCKED: BRANCH  12  13
DOCKED: ATOM     13  N   UNL     1      29.744 -13.520   7.810 -0.37 -0.00    +0.000 N 
DOCKED: ATOM     14  H   UNL     1      29.556 -14.482   7.526 -0.53 -0.00    +0.000 HD
DOCKED: BRANCH  13  15
DOCKED: ATOM     15  C   UNL     1      29.553 -13.493   9.279 -0.42 -0.00    +0.000 C 
DOCKED: ATOM     16  C   UNL     1      28.889 -14.772   9.791 -0.52 -0.00    +0.000 C 
DOCKED: ENDBRANCH  13  15
DOCKED: BRANCH  13  17
DOCKED: ATOM     17  C   UNL     1      31.138 -13.260   7.373 -0.25 -0.00    +0.000 C 
DOCKED: ATOM     18  C   UNL     1      32.120 -12.991   8.521 -0.19 -0.00    +0.000 C 
DOCKED: ENDBRANCH  13  17
DOCKED: ENDBRANCH  12  13
DOCKED: ENDBRANCH   7  12
DOCKED: ENDBRANCH   1   2
DOCKED: BRANCH   1  19
DOCKED: ATOM     19  O   UNL     1      28.823 -15.725  -0.762 -0.22 -0.00    +0.000 OA
DOCKED: BRANCH  19  21
DOCKED: ATOM     20  O   UNL     1      27.351 -16.580   0.794 -0.31 -0.00    +0.000 OA
DOCKED: ATOM     21  C   UNL     1      27.626 -16.355  -0.416 -0.38 -0.00    +0.000 C 
DOCKED: ATOM     22  N   UNL     1      26.736 -16.780  -1.459 -0.42 -0.00    +0.000 N 
DOCKED: ATOM     23  H   UNL     1      27.060 -16.730  -2.387 -0.02 -0.00    +0.000 HD
DOCKED: BRANCH  22  24
DOCKED: ATOM     24  C   UNL     1      25.404 -17.273  -1.237 -0.57 -0.00    +0.000 A 
DOCKED: ATOM     25  C   UNL     1      24.323 -16.384  -1.302 -0.38 -0.00    +0.000 A 
DOCKED: ATOM     26  C   UNL     1      23.020 -16.832  -1.068 -0.31 -0.00    +0.000 A 
DOCKED: ATOM     27  C   UNL     1      22.771 -18.180  -0.757 -0.74 -0.00    +0.000 A 
DOCKED: ATOM     28  C   UNL     1      23.862 -19.064  -0.657 -0.54 -0.00    +0.000 A 
DOCKED: ATOM     29  C   UNL     1      25.165 -18.614  -0.892 -0.43 -0.00    +0.000 A 
DOCKED: BRANCH  27  30
DOCKED: ATOM     30  C   UNL     1      21.384 -18.640  -0.508 -0.85 -0.00    +0.000 C 
DOCKED: ATOM     31  N   UNL     1      21.110 -19.964  -0.033 -0.62 -0.00    +0.000 N 
DOCKED: ATOM     32  O   UNL     1      20.420 -17.858  -0.732 -2.26 -0.00    +0.000 OA
DOCKED: ATOM     33  H   UNL     1      21.844 -20.612   0.062 -0.57 -0.00    +0.000 HD
DOCKED: BRANCH  31  34
DOCKED: ATOM     34  O   UNL     1      19.844 -20.328   0.283 -0.81 -0.00    +0.000 OA
DOCKED: ATOM     35  H   UNL     1      19.245 -19.579   0.133 -0.03 -0.00    +0.000 HD
DOCKED: ENDBRANCH  31  34
DOCKED: ENDBRANCH  27  30
DOCKED: ENDBRANCH  22  24
DOCKED: ENDBRANCH  19  21
DOCKED: ENDBRANCH   1  19
DOCKED: TORSDOF 10
DOCKED: TER
DOCKED: ENDMDL
________________________________________________________________________________


	BEGINNING GENETIC ALGORITHM DOCKING 4 of 100
Run: 4 Seed: 1853407931 2008294068 [ Run 4 of 100 GA/GALS ]
Beginning LAMARCKIAN GENETIC ALGORITHM (LGA), with a maximum of 2500000 energy evaluations.

Final-Value: -14.384


	FINAL GENETIC ALGORITHM DOCKED STATE
	_______________________________________________


Detailed state:  trans 30.060 -17.091 -2.257 quatxyzw -0.290984 0.558302 0.609719 -0.481529 center 1.857 0.216 -0.019 ntor 10 -48.3771 15.9350 -156.5693 -25.0782 47.2473 -158.2426 -90.5340 131.2069 -45.4357 -87.8546
State:	 30.060 -17.091  -2.257  -0.332  0.637  0.696 -122.429    -48.38   15.93 -156.57  -25.08   47.25 -158.24  -90.53  131.21  -45.44  -87.85

DOCKED: MODEL        4
DOCKED: USER    Run = 4
DOCKED: USER    DPF = ligand_dock.biased.dpf
DOCKED: USER  
DOCKED: USER    Estimated Free Energy of Binding    =   -9.61 kcal/mol  [=(1)+(2)+(3)-(4)]
DOCKED: USER    Estimated Inhibition Constant, Ki   =   90.46 nM (nanomolar)  [Temperature = 298.15 K]
DOCKED: USER    
DOCKED: USER    (1) Final Intermolecular Energy     =  -12.59 kcal/mol
DOCKED: USER        vdW + Hbond + desolv Energy     =  -12.59 kcal/mol
DOCKED: USER        Electrostatic Energy            =   +0.00 kcal/mol
DOCKED: USER    (2) Final Total Internal Energy     =   -1.79 kcal/mol
DOCKED: USER    (3) Torsional Free Energy           =   +2.98 kcal/mol
DOCKED: USER    (4) Unbound System's Energy  [=(2)] =   -1.79 kcal/mol
DOCKED: USER    
DOCKED: USER    
DOCKED: USER    NEWDPF move ligand.pdbqt
DOCKED: USER    NEWDPF about 1.857000 0.216000 -0.019000
DOCKED: USER    NEWDPF tran0 30.060070 -17.090835 -2.257086
DOCKED: USER    NEWDPF quaternion0 -0.290984 0.558302 0.609719 -0.481529
DOCKED: USER    NEWDPF axisangle0 -0.332011 0.637018 0.695685 -122.429424
DOCKED: USER    NEWDPF quat0 -0.332011 0.637018 0.695685 -122.429424
DOCKED: USER    NEWDPF dihe0 -48.38 15.93 -156.57 -25.08 47.25 -158.24 -90.53 131.21 -45.44 -87.85 
DOCKED: USER  keepresnum = 1 
DOCKED: USER  
DOCKED: REMARK  Name = 
DOCKED: REMARK  12 active torsions:
DOCKED: REMARK  status: ('A' for Active; 'I' for Inactive)
DOCKED: REMARK    1  A    between atoms: C_2  and  O_3
DOCKED: REMARK    2  A    between atoms: O_3  and  C_4
DOCKED: REMARK    3  A    between atoms: C_4  and  C_5
DOCKED: REMARK    4  A    between atoms: C_10  and  C_11
DOCKED: REMARK    5  A    between atoms: C_11  and  N_12
DOCKED: REMARK    6  A    between atoms: N_12  and  C_13
DOCKED: REMARK    7  A    between atoms: N_12  and  C_15
DOCKED: REMARK    8  A    between atoms: C_13  and  C_14
DOCKED: REMARK    9  A    between atoms: C_15  and  C_16
DOCKED: REMARK   10  A    between atoms: N_21  and  C_22
DOCKED: REMARK   11  A    between atoms: C_25  and  C_26
DOCKED: REMARK   12  A    between atoms: N_27  and  O_28
DOCKED: REMARK                            x       y       z     vdW  Elec       q    Type
DOCKED: REMARK                         _______ _______ _______ _____ _____    ______ ____
DOCKED: USER                              x       y       z     vdW  Elec       q    Type
DOCKED: USER                           _______ _______ _______ _____ _____    ______ ____
DOCKED: ROOT
DOCKED: ATOM      1  C   UNL     1      30.989 -15.741  -2.065 -0.07 -0.00    +0.000 C 
DOCKED: ENDROOT
DOCKED: BRANCH   1   2
DOCKED: ATOM      2  C   UNL     1      31.508 -16.621  -0.965 -0.09 -0.00    +0.000 A 
DOCKED: ATOM      3  C   UNL     1      31.976 -17.911  -1.255 -0.09 -0.00    +0.000 A 
DOCKED: ATOM      4  C   UNL     1      32.425 -18.749  -0.229 -0.10 -0.00    +0.000 A 
DOCKED: ATOM      5  C   UNL     1      32.398 -18.311   1.102 -0.13 -0.00    +0.000 A 
DOCKED: ATOM      6  C   UNL     1      32.846 -19.145   2.138 -0.16 -0.00    +0.000 A 
DOCKED: ATOM      7  C   UNL     1      32.812 -18.703   3.470 -0.31 -0.00    +0.000 A 
DOCKED: ATOM      8  C   UNL     1      32.328 -17.418   3.761 +0.02 -0.00    +0.000 A 
DOCKED: ATOM      9  C   UNL     1      31.879 -16.581   2.736 -0.22 -0.00    +0.000 A 
DOCKED: ATOM     10  C   UNL     1      31.911 -17.017   1.403 -0.14 -0.00    +0.000 A 
DOCKED: ATOM     11  C   UNL     1      31.464 -16.183   0.368 -0.11 -0.00    +0.000 A 
DOCKED: BRANCH   7  12
DOCKED: ATOM     12  C   UNL     1      33.309 -19.586   4.584 -0.38 -0.00    +0.000 C 
DOCKED: BRANCH  12  13
DOCKED: ATOM     13  N   UNL     1      32.760 -20.951   4.434 -0.40 -0.00    +0.000 N 
DOCKED: ATOM     14  H   UNL     1      32.312 -21.013   3.520 -0.01 -0.00    +0.000 HD
DOCKED: BRANCH  13  15
DOCKED: ATOM     15  C   UNL     1      31.688 -21.214   5.424 -0.68 -0.00    +0.000 C 
DOCKED: ATOM     16  C   UNL     1      30.346 -21.495   4.748 -0.56 -0.00    +0.000 C 
DOCKED: ENDBRANCH  13  15
DOCKED: BRANCH  13  17
DOCKED: ATOM     17  C   UNL     1      33.828 -21.981   4.406 -0.15 -0.00    +0.000 C 
DOCKED: ATOM     18  C   UNL     1      34.327 -22.412   5.793 -0.41 -0.00    +0.000 C 
DOCKED: ENDBRANCH  13  17
DOCKED: ENDBRANCH  12  13
DOCKED: ENDBRANCH   7  12
DOCKED: ENDBRANCH   1   2
DOCKED: BRANCH   1  19
DOCKED: ATOM     19  O   UNL     1      30.128 -16.501  -2.907 -0.18 -0.00    +0.000 OA
DOCKED: BRANCH  19  21
DOCKED: ATOM     20  O   UNL     1      27.955 -16.360  -3.669 -0.25 -0.00    +0.000 OA
DOCKED: ATOM     21  C   UNL     1      28.747 -16.568  -2.709 -0.26 -0.00    +0.000 C 
DOCKED: ATOM     22  N   UNL     1      28.245 -16.834  -1.392 -0.33 -0.00    +0.000 N 
DOCKED: ATOM     23  H   UNL     1      28.887 -16.830  -0.646 -0.04 -0.00    +0.000 HD
DOCKED: BRANCH  22  24
DOCKED: ATOM     24  C   UNL     1      26.866 -17.105  -1.089 -0.45 -0.00    +0.000 A 
DOCKED: ATOM     25  C   UNL     1      26.523 -18.309  -0.461 -0.50 -0.00    +0.000 A 
DOCKED: ATOM     26  C   UNL     1      25.188 -18.608  -0.176 -0.47 -0.00    +0.000 A 
DOCKED: ATOM     27  C   UNL     1      24.165 -17.709  -0.521 -0.65 -0.00    +0.000 A 
DOCKED: ATOM     28  C   UNL     1      24.506 -16.516  -1.184 -0.49 -0.00    +0.000 A 
DOCKED: ATOM     29  C   UNL     1      25.843 -16.219  -1.468 -0.47 -0.00    +0.000 A 
DOCKED: BRANCH  27  30
DOCKED: ATOM     30  C   UNL     1      22.752 -18.041  -0.215 -0.79 -0.00    +0.000 C 
DOCKED: ATOM     31  N   UNL     1      21.671 -17.470  -0.964 -0.63 -0.00    +0.000 N 
DOCKED: ATOM     32  O   UNL     1      22.490 -18.831   0.732 -0.41 -0.00    +0.000 OA
DOCKED: ATOM     33  H   UNL     1      21.857 -16.787  -1.648 +0.15 -0.00    +0.000 HD
DOCKED: BRANCH  31  34
DOCKED: ATOM     34  O   UNL     1      20.397 -17.866  -0.733 -2.26 -0.00    +0.000 OA
DOCKED: ATOM     35  H   UNL     1      19.856 -17.690  -1.520 -0.57 -0.00    +0.000 HD
DOCKED: ENDBRANCH  31  34
DOCKED: ENDBRANCH  27  30
DOCKED: ENDBRANCH  22  24
DOCKED: ENDBRANCH  19  21
DOCKED: ENDBRANCH   1  19
DOCKED: TORSDOF 10
DOCKED: TER
DOCKED: ENDMDL
________________________________________________________________________________


	BEGINNING GENETIC ALGORITHM DOCKING 5 of 100
Run: 5 Seed: 2128444380 533090950 [ Run 5 of 100 GA/GALS ]
Beginning LAMARCKIAN GENETIC ALGORITHM (LGA), with a maximum of 2500000 energy evaluations.

Final-Value: -16.650


	FINAL GENETIC ALGORITHM DOCKED STATE
	_______________________________________________


Detailed state:  trans 27.569 -15.784 0.887 quatxyzw -0.717538 0.555626 0.404466 -0.113251 center 1.857 0.216 -0.019 ntor 10 -34.1056 -139.4829 -7.5601 -31.4675 -48.6712 61.8712 107.8248 -179.2680 99.0410 -61.5343
State:	 27.569 -15.784   0.887  -0.722  0.559  0.407 -166.994    -34.11 -139.48   -7.56  -31.47  -48.67   61.87  107.82 -179.27   99.04  -61.53

DOCKED: MODEL        5
DOCKED: USER    Run = 5
DOCKED: USER    DPF = ligand_dock.biased.dpf
DOCKED: USER  
DOCKED: USER    Estimated Free Energy of Binding    =  -11.75 kcal/mol  [=(1)+(2)+(3)-(4)]
DOCKED: USER    Estimated Inhibition Constant, Ki   =    2.43 nM (nanomolar)  [Temperature = 298.15 K]
DOCKED: USER    
DOCKED: USER    (1) Final Intermolecular Energy     =  -14.74 kcal/mol
DOCKED: USER        vdW + Hbond + desolv Energy     =  -14.74 kcal/mol
DOCKED: USER        Electrostatic Energy            =   +0.00 kcal/mol
DOCKED: USER    (2) Final Total Internal Energy     =   -1.91 kcal/mol
DOCKED: USER    (3) Torsional Free Energy           =   +2.98 kcal/mol
DOCKED: USER    (4) Unbound System's Energy  [=(2)] =   -1.91 kcal/mol
DOCKED: USER    
DOCKED: USER    
DOCKED: USER    NEWDPF move ligand.pdbqt
DOCKED: USER    NEWDPF about 1.857000 0.216000 -0.019000
DOCKED: USER    NEWDPF tran0 27.569349 -15.783931 0.886853
DOCKED: USER    NEWDPF quaternion0 -0.717538 0.555626 0.404466 -0.113251
DOCKED: USER    NEWDPF axisangle0 -0.722184 0.559224 0.407085 -166.994480
DOCKED: USER    NEWDPF quat0 -0.722184 0.559224 0.407085 -166.994480
DOCKED: USER    NEWDPF dihe0 -34.11 -139.48 -7.56 -31.47 -48.67 61.87 107.82 -179.27 99.04 -61.53 
DOCKED: USER  keepresnum = 1 
DOCKED: USER  
DOCKED: REMARK  Name = 
DOCKED: REMARK  12 active torsions:
DOCKED: REMARK  status: ('A' for Active; 'I' for Inactive)
DOCKED: REMARK    1  A    between atoms: C_2  and  O_3
DOCKED: REMARK    2  A    between atoms: O_3  and  C_4
DOCKED: REMARK    3  A    between atoms: C_4  and  C_5
DOCKED: REMARK    4  A    between atoms: C_10  and  C_11
DOCKED: REMARK    5  A    between atoms: C_11  and  N_12
DOCKED: REMARK    6  A    between atoms: N_12  and  C_13
DOCKED: REMARK    7  A    between atoms: N_12  and  C_15
DOCKED: REMARK    8  A    between atoms: C_13  and  C_14
DOCKED: REMARK    9  A    between atoms: C_15  and  C_16
DOCKED: REMARK   10  A    between atoms: N_21  and  C_22
DOCKED: REMARK   11  A    between atoms: C_25  and  C_26
DOCKED: REMARK   12  A    between atoms: N_27  and  O_28
DOCKED: REMARK                            x       y       z     vdW  Elec       q    Type
DOCKED: REMARK                         _______ _______ _______ _____ _____    ______ ____
DOCKED: USER                              x       y       z     vdW  Elec       q    Type
DOCKED: USER                           _______ _______ _______ _____ _____    ______ ____
DOCKED: ROOT
DOCKED: ATOM      1  C   UNL     1      27.456 -14.517  -0.164 -0.27 -0.00    +0.000 C 
DOCKED: ENDROOT
DOCKED: BRANCH   1   2
DOCKED: ATOM      2  C   UNL     1      27.713 -13.808   1.134 -0.23 -0.00    +0.000 A 
DOCKED: ATOM      3  C   UNL     1      27.399 -12.447   1.269 -0.22 -0.00    +0.000 A 
DOCKED: ATOM      4  C   UNL     1      27.671 -11.773   2.463 -0.22 +0.00    +0.000 A 
DOCKED: ATOM      5  C   UNL     1      28.274 -12.448   3.533 -0.24 -0.00    +0.000 A 
DOCKED: ATOM      6  C   UNL     1      28.552 -11.780   4.736 -0.26 +0.00    +0.000 A 
DOCKED: ATOM      7  C   UNL     1      29.160 -12.460   5.803 -0.29 -0.00    +0.000 A 
DOCKED: ATOM      8  C   UNL     1      29.488 -13.817   5.661 -0.32 -0.00    +0.000 A 
DOCKED: ATOM      9  C   UNL     1      29.217 -14.491   4.467 -0.40 -0.00    +0.000 A 
DOCKED: ATOM     10  C   UNL     1      28.609 -13.817   3.398 -0.31 -0.00    +0.000 A 
DOCKED: ATOM     11  C   UNL     1      28.331 -14.486   2.197 -0.19 -0.00    +0.000 A 
DOCKED: BRANCH   7  12
DOCKED: ATOM     12  C   UNL     1      29.442 -11.753   7.102 -0.32 -0.00    +0.000 C 
DOCKED: BRANCH  12  13
DOCKED: ATOM     13  N   UNL     1      29.933 -12.718   8.110 -0.29 -0.00    +0.000 N 
DOCKED: ATOM     14  H   UNL     1      30.021 -13.629   7.659 -0.07 -0.00    +0.000 HD
DOCKED: BRANCH  13  15
DOCKED: ATOM     15  C   UNL     1      28.948 -12.906   9.202 -0.46 -0.00    +0.000 C 
DOCKED: ATOM     16  C   UNL     1      28.712 -14.385   9.507 -0.43 -0.00    +0.000 C 
DOCKED: ENDBRANCH  13  15
DOCKED: BRANCH  13  17
DOCKED: ATOM     17  C   UNL     1      31.303 -12.389   8.577 -0.19 -0.00    +0.000 C 
DOCKED: ATOM     18  C   UNL     1      32.406 -12.676   7.549 -0.15 -0.00    +0.000 C 
DOCKED: ENDBRANCH  13  17
DOCKED: ENDBRANCH  12  13
DOCKED: ENDBRANCH   7  12
DOCKED: ENDBRANCH   1   2
DOCKED: BRANCH   1  19
DOCKED: ATOM     19  O   UNL     1      27.647 -15.916   0.020 -0.36 -0.00    +0.000 OA
DOCKED: BRANCH  19  21
DOCKED: ATOM     20  O   UNL     1      26.845 -18.078   0.000 -0.64 -0.00    +0.000 OA
DOCKED: ATOM     21  C   UNL     1      26.624 -16.848  -0.171 -0.47 -0.00    +0.000 C 
DOCKED: ATOM     22  N   UNL     1      25.336 -16.389  -0.603 -0.44 -0.00    +0.000 N 
DOCKED: ATOM     23  H   UNL     1      25.252 -15.448  -0.877 -0.02 -0.00    +0.000 HD
DOCKED: BRANCH  22  24
DOCKED: ATOM     24  C   UNL     1      24.159 -17.214  -0.662 -0.60 -0.00    +0.000 A 
DOCKED: ATOM     25  C   UNL     1      24.269 -18.537  -1.108 -0.65 -0.00    +0.000 A 
DOCKED: ATOM     26  C   UNL     1      23.138 -19.353  -1.196 -0.63 -0.00    +0.000 A 
DOCKED: ATOM     27  C   UNL     1      21.870 -18.859  -0.846 -0.75 -0.00    +0.000 A 
DOCKED: ATOM     28  C   UNL     1      21.756 -17.519  -0.432 -0.56 -0.00    +0.000 A 
DOCKED: ATOM     29  C   UNL     1      22.889 -16.704  -0.344 -0.15 -0.00    +0.000 A 
DOCKED: BRANCH  27  30
DOCKED: ATOM     30  C   UNL     1      20.678 -19.736  -0.948 -0.84 -0.00    +0.000 C 
DOCKED: ATOM     31  N   UNL     1      20.015 -20.234   0.221 -0.72 -0.00    +0.000 N 
DOCKED: ATOM     32  O   UNL     1      20.243 -20.063  -2.085 -1.82 -0.00    +0.000 OA
DOCKED: ATOM     33  H   UNL     1      20.394 -20.058   1.112 -0.19 -0.00    +0.000 HD
DOCKED: BRANCH  31  34
DOCKED: ATOM     34  O   UNL     1      18.870 -20.948   0.104 -0.66 -0.00    +0.000 OA
DOCKED: ATOM     35  H   UNL     1      18.570 -20.930  -0.819 -0.36 -0.00    +0.000 HD
DOCKED: ENDBRANCH  31  34
DOCKED: ENDBRANCH  27  30
DOCKED: ENDBRANCH  22  24
DOCKED: ENDBRANCH  19  21
DOCKED: ENDBRANCH   1  19
DOCKED: TORSDOF 10
DOCKED: TER
DOCKED: ENDMDL
________________________________________________________________________________


	BEGINNING GENETIC ALGORITHM DOCKING 6 of 100
Run: 6 Seed: 1896044404 442780558 [ Run 6 of 100 GA/GALS ]
Beginning LAMARCKIAN GENETIC ALGORITHM (LGA), with a maximum of 2500000 energy evaluations.

Final-Value: -16.215


	FINAL GENETIC ALGORITHM DOCKED STATE
	_______________________________________________


Detailed state:  trans 26.992 -14.325 -1.931 quatxyzw -0.005566 0.755905 -0.378133 -0.534408 center 1.857 0.216 -0.019 ntor 10 -34.1914 57.5393 -20.4504 1.2380 159.6050 -115.3958 70.3454 180.0000 83.8918 87.6266
State:	 26.992 -14.325  -1.931  -0.007  0.894 -0.447 -115.393    -34.19   57.54  -20.45    1.24  159.60 -115.40   70.35  180.00   83.89   87.63

DOCKED: MODEL        6
DOCKED: USER    Run = 6
DOCKED: USER    DPF = ligand_dock.biased.dpf
DOCKED: USER  
DOCKED: USER    Estimated Free Energy of Binding    =  -11.13 kcal/mol  [=(1)+(2)+(3)-(4)]
DOCKED: USER    Estimated Inhibition Constant, Ki   =    6.90 nM (nanomolar)  [Temperature = 298.15 K]
DOCKED: USER    
DOCKED: USER    (1) Final Intermolecular Energy     =  -14.12 kcal/mol
DOCKED: USER        vdW + Hbond + desolv Energy     =  -14.12 kcal/mol
DOCKED: USER        Electrostatic Energy            =   +0.00 kcal/mol
DOCKED: USER    (2) Final Total Internal Energy     =   -2.10 kcal/mol
DOCKED: USER    (3) Torsional Free Energy           =   +2.98 kcal/mol
DOCKED: USER    (4) Unbound System's Energy  [=(2)] =   -2.10 kcal/mol
DOCKED: USER    
DOCKED: USER    
DOCKED: USER    NEWDPF move ligand.pdbqt
DOCKED: USER    NEWDPF about 1.857000 0.216000 -0.019000
DOCKED: USER    NEWDPF tran0 26.992400 -14.324650 -1.930739
DOCKED: USER    NEWDPF quaternion0 -0.005566 0.755905 -0.378133 -0.534408
DOCKED: USER    NEWDPF axisangle0 -0.006585 0.894322 -0.447375 -115.392498
DOCKED: USER    NEWDPF quat0 -0.006585 0.894322 -0.447375 -115.392498
DOCKED: USER    NEWDPF dihe0 -34.19 57.54 -20.45 1.24 159.60 -115.40 70.35 180.00 83.89 87.63 
DOCKED: USER  keepresnum = 1 
DOCKED: USER  
DOCKED: REMARK  Name = 
DOCKED: REMARK  12 active torsions:
DOCKED: REMARK  status: ('A' for Active; 'I' for Inactive)
DOCKED: REMARK    1  A    between atoms: C_2  and  O_3
DOCKED: REMARK    2  A    between atoms: O_3  and  C_4
DOCKED: REMARK    3  A    between atoms: C_4  and  C_5
DOCKED: REMARK    4  A    between atoms: C_10  and  C_11
DOCKED: REMARK    5  A    between atoms: C_11  and  N_12
DOCKED: REMARK    6  A    between atoms: N_12  and  C_13
DOCKED: REMARK    7  A    between atoms: N_12  and  C_15
DOCKED: REMARK    8  A    between atoms: C_13  and  C_14
DOCKED: REMARK    9  A    between atoms: C_15  and  C_16
DOCKED: REMARK   10  A    between atoms: N_21  and  C_22
DOCKED: REMARK   11  A    between atoms: C_25  and  C_26
DOCKED: REMARK   12  A    between atoms: N_27  and  O_28
DOCKED: REMARK                            x       y       z     vdW  Elec       q    Type
DOCKED: REMARK                         _______ _______ _______ _____ _____    ______ ____
DOCKED: USER                              x       y       z     vdW  Elec       q    Type
DOCKED: USER                           _______ _______ _______ _____ _____    ______ ____
DOCKED: ROOT
DOCKED: ATOM      1  C   UNL     1      28.026 -15.578  -1.642 -0.26 -0.00    +0.000 C 
DOCKED: ENDROOT
DOCKED: BRANCH   1   2
DOCKED: ATOM      2  C   UNL     1      28.159 -14.781  -0.377 -0.19 -0.00    +0.000 A 
DOCKED: ATOM      3  C   UNL     1      29.083 -15.168   0.607 -0.09 -0.00    +0.000 A 
DOCKED: ATOM      4  C   UNL     1      29.184 -14.451   1.803 -0.13 -0.00    +0.000 A 
DOCKED: ATOM      5  C   UNL     1      28.354 -13.347   2.037 -0.20 -0.00    +0.000 A 
DOCKED: ATOM      6  C   UNL     1      28.448 -12.622   3.235 -0.21 -0.00    +0.000 A 
DOCKED: ATOM      7  C   UNL     1      27.610 -11.519   3.466 -0.26 +0.00    +0.000 A 
DOCKED: ATOM      8  C   UNL     1      26.676 -11.143   2.488 -0.29 +0.00    +0.000 A 
DOCKED: ATOM      9  C   UNL     1      26.574 -11.859   1.293 -0.30 +0.00    +0.000 A 
DOCKED: ATOM     10  C   UNL     1      27.408 -12.962   1.056 -0.22 -0.00    +0.000 A 
DOCKED: ATOM     11  C   UNL     1      27.314 -13.686  -0.141 -0.21 -0.00    +0.000 A 
DOCKED: BRANCH   7  12
DOCKED: ATOM     12  C   UNL     1      27.721 -10.726   4.741 -0.37 +0.00    +0.000 C 
DOCKED: BRANCH  12  13
DOCKED: ATOM     13  N   UNL     1      28.714 -11.348   5.643 -0.28 +0.00    +0.000 N 
DOCKED: ATOM     14  H   UNL     1      29.473 -11.718   5.070 +0.01 -0.00    +0.000 HD
DOCKED: BRANCH  13  15
DOCKED: ATOM     15  C   UNL     1      28.143 -12.518   6.352 -0.42 +0.00    +0.000 C 
DOCKED: ATOM     16  C   UNL     1      29.068 -13.732   6.286 -0.36 -0.00    +0.000 C 
DOCKED: ENDBRANCH  13  15
DOCKED: BRANCH  13  17
DOCKED: ATOM     17  C   UNL     1      29.360 -10.353   6.535 -0.25 +0.00    +0.000 C 
DOCKED: ATOM     18  C   UNL     1      29.241 -10.674   8.031 -0.32 -0.00    +0.000 C 
DOCKED: ENDBRANCH  13  17
DOCKED: ENDBRANCH  12  13
DOCKED: ENDBRANCH   7  12
DOCKED: ENDBRANCH   1   2
DOCKED: BRANCH   1  19
DOCKED: ATOM     19  O   UNL     1      26.942 -15.063  -2.408 -0.31 -0.00    +0.000 OA
DOCKED: BRANCH  19  21
DOCKED: ATOM     20  O   UNL     1      24.710 -15.057  -2.991 -0.57 -0.00    +0.000 OA
DOCKED: ATOM     21  C   UNL     1      25.641 -15.560  -2.304 -0.51 -0.00    +0.000 C 
DOCKED: ATOM     22  N   UNL     1      25.373 -16.619  -1.374 -0.53 -0.00    +0.000 N 
DOCKED: ATOM     23  H   UNL     1      26.088 -16.872  -0.747 -0.01 -0.00    +0.000 HD
DOCKED: BRANCH  22  24
DOCKED: ATOM     24  C   UNL     1      24.129 -17.337  -1.299 -0.63 -0.00    +0.000 A 
DOCKED: ATOM     25  C   UNL     1      23.026 -16.736  -0.678 -0.38 -0.00    +0.000 A 
DOCKED: ATOM     26  C   UNL     1      21.812 -17.420  -0.571 -0.59 -0.00    +0.000 A 
DOCKED: ATOM     27  C   UNL     1      21.677 -18.724  -1.078 -0.72 -0.00    +0.000 A 
DOCKED: ATOM     28  C   UNL     1      22.797 -19.339  -1.669 -0.43 -0.00    +0.000 A 
DOCKED: ATOM     29  C   UNL     1      24.011 -18.653  -1.775 -0.37 -0.00    +0.000 A 
DOCKED: BRANCH  27  30
DOCKED: ATOM     30  C   UNL     1      20.384 -19.438  -0.954 -0.90 -0.00    +0.000 C 
DOCKED: ATOM     31  N   UNL     1      19.621 -19.399   0.259 -0.73 -0.00    +0.000 N 
DOCKED: ATOM     32  O   UNL     1      19.948 -20.108  -1.930 -1.76 -0.00    +0.000 OA
DOCKED: ATOM     33  H   UNL     1      19.990 -18.953   1.055 -0.20 -0.00    +0.000 HD
DOCKED: BRANCH  31  34
DOCKED: ATOM     34  O   UNL     1      18.397 -19.974   0.314 -0.78 -0.00    +0.000 OA
DOCKED: ATOM     35  H   UNL     1      18.045 -20.075  -0.585 -0.32 -0.00    +0.000 HD
DOCKED: ENDBRANCH  31  34
DOCKED: ENDBRANCH  27  30
DOCKED: ENDBRANCH  22  24
DOCKED: ENDBRANCH  19  21
DOCKED: ENDBRANCH   1  19
DOCKED: TORSDOF 10
DOCKED: TER
DOCKED: ENDMDL
________________________________________________________________________________


	BEGINNING GENETIC ALGORITHM DOCKING 7 of 100
Run: 7 Seed: 823070144 1482248913 [ Run 7 of 100 GA/GALS ]
Beginning LAMARCKIAN GENETIC ALGORITHM (LGA), with a maximum of 2500000 energy evaluations.

Final-Value: -16.612


	FINAL GENETIC ALGORITHM DOCKED STATE
	_______________________________________________


Detailed state:  trans 28.351 -15.856 -0.824 quatxyzw 0.821795 -0.268639 0.495055 -0.086055 center 1.857 0.216 -0.019 ntor 10 -52.4906 144.1665 17.9559 4.1309 165.1568 -162.9353 -18.5580 -94.7332 151.0228 -148.1656
State:	 28.351 -15.856  -0.824   0.825 -0.270  0.497 -170.127    -52.49  144.17   17.96    4.13  165.16 -162.94  -18.56  -94.73  151.02 -148.17

DOCKED: MODEL        7
DOCKED: USER    Run = 7
DOCKED: USER    DPF = ligand_dock.biased.dpf
DOCKED: USER  
DOCKED: USER    Estimated Free Energy of Binding    =  -11.16 kcal/mol  [=(1)+(2)+(3)-(4)]
DOCKED: USER    Estimated Inhibition Constant, Ki   =    6.57 nM (nanomolar)  [Temperature = 298.15 K]
DOCKED: USER    
DOCKED: USER    (1) Final Intermolecular Energy     =  -14.15 kcal/mol
DOCKED: USER        vdW + Hbond + desolv Energy     =  -14.15 kcal/mol
DOCKED: USER        Electrostatic Energy            =   +0.00 kcal/mol
DOCKED: USER    (2) Final Total Internal Energy     =   -2.47 kcal/mol
DOCKED: USER    (3) Torsional Free Energy           =   +2.98 kcal/mol
DOCKED: USER    (4) Unbound System's Energy  [=(2)] =   -2.47 kcal/mol
DOCKED: USER    
DOCKED: USER    
DOCKED: USER    NEWDPF move ligand.pdbqt
DOCKED: USER    NEWDPF about 1.857000 0.216000 -0.019000
DOCKED: USER    NEWDPF tran0 28.350921 -15.856230 -0.823883
DOCKED: USER    NEWDPF quaternion0 0.821795 -0.268639 0.495055 -0.086055
DOCKED: USER    NEWDPF axisangle0 0.824855 -0.269640 0.496899 -170.126556
DOCKED: USER    NEWDPF quat0 0.824855 -0.269640 0.496899 -170.126556
DOCKED: USER    NEWDPF dihe0 -52.49 144.17 17.96 4.13 165.16 -162.94 -18.56 -94.73 151.02 -148.17 
DOCKED: USER  keepresnum = 1 
DOCKED: USER  
DOCKED: REMARK  Name = 
DOCKED: REMARK  12 active torsions:
DOCKED: REMARK  status: ('A' for Active; 'I' for Inactive)
DOCKED: REMARK    1  A    between atoms: C_2  and  O_3
DOCKED: REMARK    2  A    between atoms: O_3  and  C_4
DOCKED: REMARK    3  A    between atoms: C_4  and  C_5
DOCKED: REMARK    4  A    between atoms: C_10  and  C_11
DOCKED: REMARK    5  A    between atoms: C_11  and  N_12
DOCKED: REMARK    6  A    between atoms: N_12  and  C_13
DOCKED: REMARK    7  A    between atoms: N_12  and  C_15
DOCKED: REMARK    8  A    between atoms: C_13  and  C_14
DOCKED: REMARK    9  A    between atoms: C_15  and  C_16
DOCKED: REMARK   10  A    between atoms: N_21  and  C_22
DOCKED: REMARK   11  A    between atoms: C_25  and  C_26
DOCKED: REMARK   12  A    between atoms: N_27  and  O_28
DOCKED: REMARK                            x       y       z     vdW  Elec       q    Type
DOCKED: REMARK                         _______ _______ _______ _____ _____    ______ ____
DOCKED: USER                              x       y       z     vdW  Elec       q    Type
DOCKED: USER                           _______ _______ _______ _____ _____    ______ ____
DOCKED: ROOT
DOCKED: ATOM      1  C   UNL     1      29.794 -15.865  -1.624 -0.16 -0.00    +0.000 C 
DOCKED: ENDROOT
DOCKED: BRANCH   1   2
DOCKED: ATOM      2  C   UNL     1      28.937 -15.060  -2.558 -0.14 -0.00    +0.000 A 
DOCKED: ATOM      3  C   UNL     1      28.528 -15.604  -3.786 -0.25 -0.00    +0.000 A 
DOCKED: ATOM      4  C   UNL     1      27.761 -14.845  -4.675 -0.34 -0.00    +0.000 A 
DOCKED: ATOM      5  C   UNL     1      27.406 -13.527  -4.355 -0.24 -0.00    +0.000 A 
DOCKED: ATOM      6  C   UNL     1      26.638 -12.758  -5.242 -0.14 -0.00    +0.000 A 
DOCKED: ATOM      7  C   UNL     1      26.289 -11.437  -4.918 -0.24 -0.00    +0.000 A 
DOCKED: ATOM      8  C   UNL     1      26.712 -10.889  -3.697 -0.15 -0.00    +0.000 A 
DOCKED: ATOM      9  C   UNL     1      27.479 -11.647  -2.808 -0.11 -0.00    +0.000 A 
DOCKED: ATOM     10  C   UNL     1      27.830 -12.967  -3.126 -0.13 -0.00    +0.000 A 
DOCKED: ATOM     11  C   UNL     1      28.597 -13.736  -2.239 -0.09 -0.00    +0.000 A 
DOCKED: BRANCH   7  12
DOCKED: ATOM     12  C   UNL     1      25.448 -10.613  -5.858 -0.33 -0.00    +0.000 C 
DOCKED: BRANCH  12  13
DOCKED: ATOM     13  N   UNL     1      26.029 -10.641  -7.217 -0.22 -0.00    +0.000 N 
DOCKED: ATOM     14  H   UNL     1      26.371 -11.586  -7.396 -0.01 -0.00    +0.000 HD
DOCKED: BRANCH  13  15
DOCKED: ATOM     15  C   UNL     1      27.219  -9.762  -7.315 -0.11 -0.00    +0.000 C 
DOCKED: ATOM     16  C   UNL     1      28.499 -10.561  -7.557 -0.10 -0.00    +0.000 C 
DOCKED: ENDBRANCH  13  15
DOCKED: BRANCH  13  17
DOCKED: ATOM     17  C   UNL     1      25.007 -10.401  -8.266 -0.32 -0.00    +0.000 C 
DOCKED: ATOM     18  C   UNL     1      25.290 -11.108  -9.599 -0.34 -0.00    +0.000 C 
DOCKED: ENDBRANCH  13  17
DOCKED: ENDBRANCH  12  13
DOCKED: ENDBRANCH   7  12
DOCKED: ENDBRANCH   1   2
DOCKED: BRANCH   1  19
DOCKED: ATOM     19  O   UNL     1      29.095 -16.063  -0.400 -0.25 -0.00    +0.000 OA
DOCKED: BRANCH  19  21
DOCKED: ATOM     20  O   UNL     1      26.996 -15.165  -0.071 -0.35 -0.00    +0.000 OA
DOCKED: ATOM     21  C   UNL     1      27.704 -16.174  -0.335 -0.36 -0.00    +0.000 C 
DOCKED: ATOM     22  N   UNL     1      27.099 -17.460  -0.532 -0.49 -0.00    +0.000 N 
DOCKED: ATOM     23  H   UNL     1      27.692 -18.245  -0.577 -0.20 -0.00    +0.000 HD
DOCKED: BRANCH  22  24
DOCKED: ATOM     24  C   UNL     1      25.684 -17.678  -0.669 -0.59 -0.00    +0.000 A 
DOCKED: ATOM     25  C   UNL     1      25.176 -18.979  -0.565 -0.11 -0.00    +0.000 A 
DOCKED: ATOM     26  C   UNL     1      23.808 -19.223  -0.717 -0.48 -0.00    +0.000 A 
DOCKED: ATOM     27  C   UNL     1      22.919 -18.167  -0.983 -0.73 -0.00    +0.000 A 
DOCKED: ATOM     28  C   UNL     1      23.436 -16.866  -1.123 -0.44 -0.00    +0.000 A 
DOCKED: ATOM     29  C   UNL     1      24.805 -16.625  -0.971 -0.52 -0.00    +0.000 A 
DOCKED: BRANCH  27  30
DOCKED: ATOM     30  C   UNL     1      21.470 -18.440  -1.145 -0.63 -0.00    +0.000 C 
DOCKED: ATOM     31  N   UNL     1      21.002 -19.623  -1.805 -0.68 -0.00    +0.000 N 
DOCKED: ATOM     32  O   UNL     1      20.629 -17.609  -0.707 -2.17 +0.00    +0.000 OA
DOCKED: ATOM     33  H   UNL     1      21.646 -20.236  -2.227 -0.55 -0.00    +0.000 HD
DOCKED: BRANCH  31  34
DOCKED: ATOM     34  O   UNL     1      19.678 -19.900  -1.850 -1.67 -0.00    +0.000 OA
DOCKED: ATOM     35  H   UNL     1      19.171 -19.095  -1.656 -0.52 -0.00    +0.000 HD
DOCKED: ENDBRANCH  31  34
DOCKED: ENDBRANCH  27  30
DOCKED: ENDBRANCH  22  24
DOCKED: ENDBRANCH  19  21
DOCKED: ENDBRANCH   1  19
DOCKED: TORSDOF 10
DOCKED: TER
DOCKED: ENDMDL
________________________________________________________________________________


	BEGINNING GENETIC ALGORITHM DOCKING 8 of 100
Run: 8 Seed: 482712036 786995654 [ Run 8 of 100 GA/GALS ]
Beginning LAMARCKIAN GENETIC ALGORITHM (LGA), with a maximum of 2500000 energy evaluations.

Final-Value: -14.879


	FINAL GENETIC ALGORITHM DOCKED STATE
	_______________________________________________


Detailed state:  trans 27.595 -15.754 -1.609 quatxyzw 0.315251 -0.198130 0.916344 -0.147223 center 1.857 0.216 -0.019 ntor 10 -32.8000 51.1394 9.0691 -169.1221 119.3516 -9.6836 -111.1976 23.9150 56.0816 -64.9154
State:	 27.595 -15.754  -1.609   0.319 -0.200  0.926 -163.068    -32.80   51.14    9.07 -169.12  119.35   -9.68 -111.20   23.91   56.08  -64.92

DOCKED: MODEL        8
DOCKED: USER    Run = 8
DOCKED: USER    DPF = ligand_dock.biased.dpf
DOCKED: USER  
DOCKED: USER    Estimated Free Energy of Binding    =   -9.85 kcal/mol  [=(1)+(2)+(3)-(4)]
DOCKED: USER    Estimated Inhibition Constant, Ki   =   60.34 nM (nanomolar)  [Temperature = 298.15 K]
DOCKED: USER    
DOCKED: USER    (1) Final Intermolecular Energy     =  -12.83 kcal/mol
DOCKED: USER        vdW + Hbond + desolv Energy     =  -12.83 kcal/mol
DOCKED: USER        Electrostatic Energy            =   +0.00 kcal/mol
DOCKED: USER    (2) Final Total Internal Energy     =   -2.05 kcal/mol
DOCKED: USER    (3) Torsional Free Energy           =   +2.98 kcal/mol
DOCKED: USER    (4) Unbound System's Energy  [=(2)] =   -2.05 kcal/mol
DOCKED: USER    
DOCKED: USER    
DOCKED: USER    NEWDPF move ligand.pdbqt
DOCKED: USER    NEWDPF about 1.857000 0.216000 -0.019000
DOCKED: USER    NEWDPF tran0 27.595365 -15.753889 -1.608548
DOCKED: USER    NEWDPF quaternion0 0.315251 -0.198130 0.916344 -0.147223
DOCKED: USER    NEWDPF axisangle0 0.318724 -0.200313 0.926439 -163.067983
DOCKED: USER    NEWDPF quat0 0.318724 -0.200313 0.926439 -163.067983
DOCKED: USER    NEWDPF dihe0 -32.80 51.14 9.07 -169.12 119.35 -9.68 -111.20 23.91 56.08 -64.92 
DOCKED: USER  keepresnum = 1 
DOCKED: USER  
DOCKED: REMARK  Name = 
DOCKED: REMARK  12 active torsions:
DOCKED: REMARK  status: ('A' for Active; 'I' for Inactive)
DOCKED: REMARK    1  A    between atoms: C_2  and  O_3
DOCKED: REMARK    2  A    between atoms: O_3  and  C_4
DOCKED: REMARK    3  A    between atoms: C_4  and  C_5
DOCKED: REMARK    4  A    between atoms: C_10  and  C_11
DOCKED: REMARK    5  A    between atoms: C_11  and  N_12
DOCKED: REMARK    6  A    between atoms: N_12  and  C_13
DOCKED: REMARK    7  A    between atoms: N_12  and  C_15
DOCKED: REMARK    8  A    between atoms: C_13  and  C_14
DOCKED: REMARK    9  A    between atoms: C_15  and  C_16
DOCKED: REMARK   10  A    between atoms: N_21  and  C_22
DOCKED: REMARK   11  A    between atoms: C_25  and  C_26
DOCKED: REMARK   12  A    between atoms: N_27  and  O_28
DOCKED: REMARK                            x       y       z     vdW  Elec       q    Type
DOCKED: REMARK                         _______ _______ _______ _____ _____    ______ ____
DOCKED: USER                              x       y       z     vdW  Elec       q    Type
DOCKED: USER                           _______ _______ _______ _____ _____    ______ ____
DOCKED: ROOT
DOCKED: ATOM      1  C   UNL     1      28.756 -15.890  -0.443 -0.25 -0.00    +0.000 C 
DOCKED: ENDROOT
DOCKED: BRANCH   1   2
DOCKED: ATOM      2  C   UNL     1      29.590 -15.760  -1.684 -0.14 -0.00    +0.000 A 
DOCKED: ATOM      3  C   UNL     1      30.909 -15.288  -1.601 -0.05 -0.00    +0.000 A 
DOCKED: ATOM      4  C   UNL     1      31.678 -15.129  -2.758 -0.02 -0.00    +0.000 A 
DOCKED: ATOM      5  C   UNL     1      31.133 -15.426  -4.015 -0.06 -0.00    +0.000 A 
DOCKED: ATOM      6  C   UNL     1      31.897 -15.268  -5.181 -0.05 -0.00    +0.000 A 
DOCKED: ATOM      7  C   UNL     1      31.343 -15.562  -6.438 -0.16 -0.00    +0.000 A 
DOCKED: ATOM      8  C   UNL     1      30.019 -16.019  -6.521 -0.31 -0.00    +0.000 A 
DOCKED: ATOM      9  C   UNL     1      29.250 -16.177  -5.365 -0.30 -0.00    +0.000 A 
DOCKED: ATOM     10  C   UNL     1      29.797 -15.885  -4.107 -0.19 -0.00    +0.000 A 
DOCKED: ATOM     11  C   UNL     1      29.034 -16.044  -2.941 -0.20 -0.00    +0.000 A 
DOCKED: BRANCH   7  12
DOCKED: ATOM     12  C   UNL     1      32.165 -15.413  -7.691 -0.17 -0.00    +0.000 C 
DOCKED: BRANCH  12  13
DOCKED: ATOM     13  N   UNL     1      32.637 -16.738  -8.150 -0.14 -0.00    +0.000 N 
DOCKED: ATOM     14  H   UNL     1      33.627 -16.658  -8.382 +0.00 -0.00    +0.000 HD
DOCKED: BRANCH  13  15
DOCKED: ATOM     15  C   UNL     1      31.965 -17.146  -9.407 -0.19 -0.00    +0.000 C 
DOCKED: ATOM     16  C   UNL     1      32.959 -17.682 -10.437 -0.19 -0.00    +0.000 C 
DOCKED: ENDBRANCH  13  15
DOCKED: BRANCH  13  17
DOCKED: ATOM     17  C   UNL     1      32.578 -17.755  -7.071 -0.12 -0.00    +0.000 C 
DOCKED: ATOM     18  C   UNL     1      31.637 -18.932  -7.362 -0.27 -0.00    +0.000 C 
DOCKED: ENDBRANCH  13  17
DOCKED: ENDBRANCH  12  13
DOCKED: ENDBRANCH   7  12
DOCKED: ENDBRANCH   1   2
DOCKED: BRANCH   1  19
DOCKED: ATOM     19  O   UNL     1      27.395 -15.616  -0.762 -0.31 -0.00    +0.000 OA
DOCKED: BRANCH  19  21
DOCKED: ATOM     20  O   UNL     1      26.535 -17.580   0.088 -0.62 -0.00    +0.000 OA
DOCKED: ATOM     21  C   UNL     1      26.389 -16.581  -0.668 -0.51 -0.00    +0.000 C 
DOCKED: ATOM     22  N   UNL     1      25.211 -16.439  -1.473 -0.53 -0.00    +0.000 N 
DOCKED: ATOM     23  H   UNL     1      25.207 -15.736  -2.162 -0.02 -0.00    +0.000 HD
DOCKED: BRANCH  22  24
DOCKED: ATOM     24  C   UNL     1      24.035 -17.255  -1.340 -0.62 -0.00    +0.000 A 
DOCKED: ATOM     25  C   UNL     1      22.920 -16.749  -0.659 -0.37 -0.00    +0.000 A 
DOCKED: ATOM     26  C   UNL     1      21.772 -17.529  -0.495 -0.59 -0.00    +0.000 A 
DOCKED: ATOM     27  C   UNL     1      21.718 -18.838  -1.005 -0.74 -0.00    +0.000 A 
DOCKED: ATOM     28  C   UNL     1      22.852 -19.358  -1.657 -0.45 -0.00    +0.000 A 
DOCKED: ATOM     29  C   UNL     1      23.999 -18.575  -1.820 -0.42 -0.00    +0.000 A 
DOCKED: BRANCH  27  30
DOCKED: ATOM     30  C   UNL     1      20.495 -19.656  -0.821 -0.88 -0.00    +0.000 C 
DOCKED: ATOM     31  N   UNL     1      20.258 -20.385   0.390 -0.70 -0.00    +0.000 N 
DOCKED: ATOM     32  O   UNL     1      19.648 -19.726  -1.753 -1.72 -0.00    +0.000 OA
DOCKED: ATOM     33  H   UNL     1      20.950 -20.408   1.090 -0.54 -0.00    +0.000 HD
DOCKED: BRANCH  31  34
DOCKED: ATOM     34  O   UNL     1      19.089 -21.041   0.574 -0.76 -0.00    +0.000 OA
DOCKED: ATOM     35  H   UNL     1      18.582 -21.039  -0.254 -0.25 -0.00    +0.000 HD
DOCKED: ENDBRANCH  31  34
DOCKED: ENDBRANCH  27  30
DOCKED: ENDBRANCH  22  24
DOCKED: ENDBRANCH  19  21
DOCKED: ENDBRANCH   1  19
DOCKED: TORSDOF 10
DOCKED: TER
DOCKED: ENDMDL
________________________________________________________________________________


	BEGINNING GENETIC ALGORITHM DOCKING 9 of 100
Run: 9 Seed: 45671370 998125357 [ Run 9 of 100 GA/GALS ]
Beginning LAMARCKIAN GENETIC ALGORITHM (LGA), with a maximum of 2500000 energy evaluations.

Final-Value: -15.810


	FINAL GENETIC ALGORITHM DOCKED STATE
	_______________________________________________


Detailed state:  trans 24.710 -17.243 -2.096 quatxyzw 0.193157 0.136663 0.969634 0.061839 center 1.857 0.216 -0.019 ntor 10 130.2695 173.4290 -5.0553 -73.8737 89.9351 -96.0738 -24.8414 -14.2794 159.7252 -35.6522
State:	 24.710 -17.243  -2.096   0.194  0.137  0.971 172.909    130.27  173.43   -5.06  -73.87   89.94  -96.07  -24.84  -14.28  159.73  -35.65

DOCKED: MODEL        9
DOCKED: USER    Run = 9
DOCKED: USER    DPF = ligand_dock.biased.dpf
DOCKED: USER  
DOCKED: USER    Estimated Free Energy of Binding    =  -11.05 kcal/mol  [=(1)+(2)+(3)-(4)]
DOCKED: USER    Estimated Inhibition Constant, Ki   =    7.96 nM (nanomolar)  [Temperature = 298.15 K]
DOCKED: USER    
DOCKED: USER    (1) Final Intermolecular Energy     =  -14.03 kcal/mol
DOCKED: USER        vdW + Hbond + desolv Energy     =  -14.03 kcal/mol
DOCKED: USER        Electrostatic Energy            =   +0.00 kcal/mol
DOCKED: USER    (2) Final Total Internal Energy     =   -1.78 kcal/mol
DOCKED: USER    (3) Torsional Free Energy           =   +2.98 kcal/mol
DOCKED: USER    (4) Unbound System's Energy  [=(2)] =   -1.78 kcal/mol
DOCKED: USER    
DOCKED: USER    
DOCKED: USER    NEWDPF move ligand.pdbqt
DOCKED: USER    NEWDPF about 1.857000 0.216000 -0.019000
DOCKED: USER    NEWDPF tran0 24.710056 -17.242674 -2.095768
DOCKED: USER    NEWDPF quaternion0 0.193157 0.136663 0.969634 0.061839
DOCKED: USER    NEWDPF axisangle0 0.193528 0.136925 0.971493 172.909280
DOCKED: USER    NEWDPF quat0 0.193528 0.136925 0.971493 172.909280
DOCKED: USER    NEWDPF dihe0 130.27 173.43 -5.06 -73.87 89.94 -96.07 -24.84 -14.28 159.73 -35.65 
DOCKED: USER  keepresnum = 1 
DOCKED: USER  
DOCKED: REMARK  Name = 
DOCKED: REMARK  12 active torsions:
DOCKED: REMARK  status: ('A' for Active; 'I' for Inactive)
DOCKED: REMARK    1  A    between atoms: C_2  and  O_3
DOCKED: REMARK    2  A    between atoms: O_3  and  C_4
DOCKED: REMARK    3  A    between atoms: C_4  and  C_5
DOCKED: REMARK    4  A    between atoms: C_10  and  C_11
DOCKED: REMARK    5  A    between atoms: C_11  and  N_12
DOCKED: REMARK    6  A    between atoms: N_12  and  C_13
DOCKED: REMARK    7  A    between atoms: N_12  and  C_15
DOCKED: REMARK    8  A    between atoms: C_13  and  C_14
DOCKED: REMARK    9  A    between atoms: C_15  and  C_16
DOCKED: REMARK   10  A    between atoms: N_21  and  C_22
DOCKED: REMARK   11  A    between atoms: C_25  and  C_26
DOCKED: REMARK   12  A    between atoms: N_27  and  O_28
DOCKED: REMARK                            x       y       z     vdW  Elec       q    Type
DOCKED: REMARK                         _______ _______ _______ _____ _____    ______ ____
DOCKED: USER                              x       y       z     vdW  Elec       q    Type
DOCKED: USER                           _______ _______ _______ _____ _____    ______ ____
DOCKED: ROOT
DOCKED: ATOM      1  C   UNL     1      25.281 -16.173  -0.977 -0.52 -0.00    +0.000 C 
DOCKED: ENDROOT
DOCKED: BRANCH   1   2
DOCKED: ATOM      2  C   UNL     1      26.363 -16.126  -2.017 -0.42 -0.00    +0.000 A 
DOCKED: ATOM      3  C   UNL     1      27.550 -16.851  -1.833 -0.31 -0.00    +0.000 A 
DOCKED: ATOM      4  C   UNL     1      28.576 -16.780  -2.781 -0.15 -0.00    +0.000 A 
DOCKED: ATOM      5  C   UNL     1      28.433 -15.973  -3.918 -0.23 -0.00    +0.000 A 
DOCKED: ATOM      6  C   UNL     1      29.458 -15.895  -4.873 -0.26 -0.00    +0.000 A 
DOCKED: ATOM      7  C   UNL     1      29.310 -15.081  -6.008 -0.31 -0.00    +0.000 A 
DOCKED: ATOM      8  C   UNL     1      28.129 -14.344  -6.182 -0.30 -0.00    +0.000 A 
DOCKED: ATOM      9  C   UNL     1      27.104 -14.414  -5.235 -0.32 -0.00    +0.000 A 
DOCKED: ATOM     10  C   UNL     1      27.244 -15.226  -4.100 -0.39 -0.00    +0.000 A 
DOCKED: ATOM     11  C   UNL     1      26.220 -15.303  -3.145 -0.44 -0.00    +0.000 A 
DOCKED: BRANCH   7  12
DOCKED: ATOM     12  C   UNL     1      30.398 -15.009  -7.047 -0.29 -0.00    +0.000 C 
DOCKED: BRANCH  12  13
DOCKED: ATOM     13  N   UNL     1      31.347 -16.129  -6.868 -0.21 -0.00    +0.000 N 
DOCKED: ATOM     14  H   UNL     1      31.479 -16.276  -5.867 +0.00 -0.00    +0.000 HD
DOCKED: BRANCH  13  15
DOCKED: ATOM     15  C   UNL     1      32.688 -15.793  -7.402 -0.11 -0.00    +0.000 C 
DOCKED: ATOM     16  C   UNL     1      32.656 -15.556  -8.912 -0.18 -0.00    +0.000 C 
DOCKED: ENDBRANCH  13  15
DOCKED: BRANCH  13  17
DOCKED: ATOM     17  C   UNL     1      30.796 -17.412  -7.371 -0.34 -0.00    +0.000 C 
DOCKED: ATOM     18  C   UNL     1      30.675 -18.510  -6.305 -0.37 -0.00    +0.000 C 
DOCKED: ENDBRANCH  13  17
DOCKED: ENDBRANCH  12  13
DOCKED: ENDBRANCH   7  12
DOCKED: ENDBRANCH   1   2
DOCKED: BRANCH   1  19
DOCKED: ATOM     19  O   UNL     1      24.171 -16.903  -1.488 -0.68 -0.00    +0.000 OA
DOCKED: BRANCH  19  21
DOCKED: ATOM     20  O   UNL     1      23.780 -18.084   0.454 -0.70 -0.00    +0.000 OA
DOCKED: ATOM     21  C   UNL     1      23.378 -17.728  -0.687 -0.79 -0.00    +0.000 C 
DOCKED: ATOM     22  N   UNL     1      22.122 -18.197  -1.198 -0.68 -0.00    +0.000 N 
DOCKED: ATOM     23  H   UNL     1      21.921 -18.028  -2.147 +0.11 -0.00    +0.000 HD
DOCKED: BRANCH  22  24
DOCKED: ATOM     24  C   UNL     1      21.139 -18.897  -0.417 -0.75 -0.00    +0.000 A 
DOCKED: ATOM     25  C   UNL     1      20.020 -19.448  -1.055 -0.78 -0.00    +0.000 A 
DOCKED: ATOM     26  C   UNL     1      19.038 -20.114  -0.316 -0.62 -0.00    +0.000 A 
DOCKED: ATOM     27  C   UNL     1      19.151 -20.236   1.079 -0.68 -0.00    +0.000 A 
DOCKED: ATOM     28  C   UNL     1      20.257 -19.650   1.722 -0.47 -0.00    +0.000 A 
DOCKED: ATOM     29  C   UNL     1      21.239 -18.985   0.982 -0.03 -0.00    +0.000 A 
DOCKED: BRANCH  27  30
DOCKED: ATOM     30  C   UNL     1      18.099 -20.942   1.851 -0.73 -0.00    +0.000 C 
DOCKED: ATOM     31  N   UNL     1      17.249 -20.242   2.767 -0.55 -0.00    +0.000 N 
DOCKED: ATOM     32  O   UNL     1      17.956 -22.187   1.710 -0.62 -0.00    +0.000 OA
DOCKED: ATOM     33  H   UNL     1      17.406 -19.288   2.951 -0.08 +0.00    +0.000 HD
DOCKED: BRANCH  31  34
DOCKED: ATOM     34  O   UNL     1      16.231 -20.889   3.383 -0.79 -0.00    +0.000 OA
DOCKED: ATOM     35  H   UNL     1      16.164 -21.793   3.035 -0.06 -0.00    +0.000 HD
DOCKED: ENDBRANCH  31  34
DOCKED: ENDBRANCH  27  30
DOCKED: ENDBRANCH  22  24
DOCKED: ENDBRANCH  19  21
DOCKED: ENDBRANCH   1  19
DOCKED: TORSDOF 10
DOCKED: TER
DOCKED: ENDMDL
________________________________________________________________________________


	BEGINNING GENETIC ALGORITHM DOCKING 10 of 100
Run: 10 Seed: 120662054 1917353650 [ Run 10 of 100 GA/GALS ]
Beginning LAMARCKIAN GENETIC ALGORITHM (LGA), with a maximum of 2500000 energy evaluations.

Final-Value: -16.332


	FINAL GENETIC ALGORITHM DOCKED STATE
	_______________________________________________


Detailed state:  trans 28.595 -15.521 -0.650 quatxyzw 0.682278 -0.457558 0.503723 -0.267208 center 1.857 0.216 -0.019 ntor 10 -21.3400 178.8964 8.8526 35.0654 159.2659 0.1476 5.3027 -142.1897 -52.7010 -105.4890
State:	 28.595 -15.521  -0.650   0.708 -0.475  0.523 -149.004    -21.34  178.90    8.85   35.07  159.27    0.15    5.30 -142.19  -52.70 -105.49

DOCKED: MODEL       10
DOCKED: USER    Run = 10
DOCKED: USER    DPF = ligand_dock.biased.dpf
DOCKED: USER  
DOCKED: USER    Estimated Free Energy of Binding    =  -11.04 kcal/mol  [=(1)+(2)+(3)-(4)]
DOCKED: USER    Estimated Inhibition Constant, Ki   =    8.11 nM (nanomolar)  [Temperature = 298.15 K]
DOCKED: USER    
DOCKED: USER    (1) Final Intermolecular Energy     =  -14.02 kcal/mol
DOCKED: USER        vdW + Hbond + desolv Energy     =  -14.02 kcal/mol
DOCKED: USER        Electrostatic Energy            =   +0.00 kcal/mol
DOCKED: USER    (2) Final Total Internal Energy     =   -2.31 kcal/mol
DOCKED: USER    (3) Torsional Free Energy           =   +2.98 kcal/mol
DOCKED: USER    (4) Unbound System's Energy  [=(2)] =   -2.31 kcal/mol
DOCKED: USER    
DOCKED: USER    
DOCKED: USER    NEWDPF move ligand.pdbqt
DOCKED: USER    NEWDPF about 1.857000 0.216000 -0.019000
DOCKED: USER    NEWDPF tran0 28.594501 -15.521461 -0.649713
DOCKED: USER    NEWDPF quaternion0 0.682278 -0.457558 0.503723 -0.267208
DOCKED: USER    NEWDPF axisangle0 0.708023 -0.474823 0.522730 -149.003605
DOCKED: USER    NEWDPF quat0 0.708023 -0.474823 0.522730 -149.003605
DOCKED: USER    NEWDPF dihe0 -21.34 178.90 8.85 35.07 159.27 0.15 5.30 -142.19 -52.70 -105.49 
DOCKED: USER  keepresnum = 1 
DOCKED: USER  
DOCKED: REMARK  Name = 
DOCKED: REMARK  12 active torsions:
DOCKED: REMARK  status: ('A' for Active; 'I' for Inactive)
DOCKED: REMARK    1  A    between atoms: C_2  and  O_3
DOCKED: REMARK    2  A    between atoms: O_3  and  C_4
DOCKED: REMARK    3  A    between atoms: C_4  and  C_5
DOCKED: REMARK    4  A    between atoms: C_10  and  C_11
DOCKED: REMARK    5  A    between atoms: C_11  and  N_12
DOCKED: REMARK    6  A    between atoms: N_12  and  C_13
DOCKED: REMARK    7  A    between atoms: N_12  and  C_15
DOCKED: REMARK    8  A    between atoms: C_13  and  C_14
DOCKED: REMARK    9  A    between atoms: C_15  and  C_16
DOCKED: REMARK   10  A    between atoms: N_21  and  C_22
DOCKED: REMARK   11  A    between atoms: C_25  and  C_26
DOCKED: REMARK   12  A    between atoms: N_27  and  O_28
DOCKED: REMARK                            x       y       z     vdW  Elec       q    Type
DOCKED: REMARK                         _______ _______ _______ _____ _____    ______ ____
DOCKED: USER                              x       y       z     vdW  Elec       q    Type
DOCKED: USER                           _______ _______ _______ _____ _____    ______ ____
DOCKED: ROOT
DOCKED: ATOM      1  C   UNL     1      29.834 -16.423  -1.261 -0.20 -0.00    +0.000 C 
DOCKED: ENDROOT
DOCKED: BRANCH   1   2
DOCKED: ATOM      2  C   UNL     1      29.596 -15.445  -2.375 -0.12 -0.00    +0.000 A 
DOCKED: ATOM      3  C   UNL     1      29.474 -14.075  -2.097 -0.06 -0.00    +0.000 A 
DOCKED: ATOM      4  C   UNL     1      29.215 -13.165  -3.127 -0.06 -0.00    +0.000 A 
DOCKED: ATOM      5  C   UNL     1      29.061 -13.615  -4.445 -0.11 -0.00    +0.000 A 
DOCKED: ATOM      6  C   UNL     1      28.800 -12.709  -5.484 -0.13 -0.00    +0.000 A 
DOCKED: ATOM      7  C   UNL     1      28.641 -13.166  -6.802 -0.25 -0.00    +0.000 A 
DOCKED: ATOM      8  C   UNL     1      28.748 -14.538  -7.076 -0.19 -0.00    +0.000 A 
DOCKED: ATOM      9  C   UNL     1      29.006 -15.448  -6.048 -0.33 -0.00    +0.000 A 
DOCKED: ATOM     10  C   UNL     1      29.166 -14.998  -4.730 -0.22 -0.00    +0.000 A 
DOCKED: ATOM     11  C   UNL     1      29.427 -15.904  -3.691 -0.20 -0.00    +0.000 A 
DOCKED: BRANCH   7  12
DOCKED: ATOM     12  C   UNL     1      28.381 -12.196  -7.925 -0.25 -0.00    +0.000 C 
DOCKED: BRANCH  12  13
DOCKED: ATOM     13  N   UNL     1      29.550 -12.138  -8.829 -0.19 -0.00    +0.000 N 
DOCKED: ATOM     14  H   UNL     1      29.601 -13.022  -9.337 -0.57 -0.00    +0.000 HD
DOCKED: BRANCH  13  15
DOCKED: ATOM     15  C   UNL     1      30.818 -12.043  -8.067 -0.11 -0.00    +0.000 C 
DOCKED: ATOM     16  C   UNL     1      31.954 -12.800  -8.754 -0.12 -0.00    +0.000 C 
DOCKED: ENDBRANCH  13  15
DOCKED: BRANCH  13  17
DOCKED: ATOM     17  C   UNL     1      29.392 -11.102  -9.880 -0.15 -0.00    +0.000 C 
DOCKED: ATOM     18  C   UNL     1      29.293 -11.660 -11.306 -0.23 -0.00    +0.000 C 
DOCKED: ENDBRANCH  13  17
DOCKED: ENDBRANCH  12  13
DOCKED: ENDBRANCH   7  12
DOCKED: ENDBRANCH   1   2
DOCKED: BRANCH   1  19
DOCKED: ATOM     19  O   UNL     1      29.086 -16.022  -0.118 -0.25 -0.00    +0.000 OA
DOCKED: BRANCH  19  21
DOCKED: ATOM     20  O   UNL     1      26.994 -15.312   0.546 -0.35 -0.00    +0.000 OA
DOCKED: ATOM     21  C   UNL     1      27.702 -16.185  -0.027 -0.34 -0.00    +0.000 C 
DOCKED: ATOM     22  N   UNL     1      27.105 -17.377  -0.556 -0.48 -0.00    +0.000 N 
DOCKED: ATOM     23  H   UNL     1      27.705 -18.100  -0.849 -0.11 -0.00    +0.000 HD
DOCKED: BRANCH  22  24
DOCKED: ATOM     24  C   UNL     1      25.688 -17.585  -0.688 -0.58 -0.00    +0.000 A 
DOCKED: ATOM     25  C   UNL     1      25.154 -18.855  -0.436 -0.21 -0.00    +0.000 A 
DOCKED: ATOM     26  C   UNL     1      23.783 -19.091  -0.578 -0.47 -0.00    +0.000 A 
DOCKED: ATOM     27  C   UNL     1      22.918 -18.060  -0.983 -0.72 -0.00    +0.000 A 
DOCKED: ATOM     28  C   UNL     1      23.462 -16.794  -1.271 -0.32 -0.00    +0.000 A 
DOCKED: ATOM     29  C   UNL     1      24.833 -16.560  -1.127 -0.53 -0.00    +0.000 A 
DOCKED: BRANCH  27  30
DOCKED: ATOM     30  C   UNL     1      21.467 -18.325  -1.133 -0.59 -0.00    +0.000 C 
DOCKED: ATOM     31  N   UNL     1      20.987 -19.517  -1.766 -0.70 -0.00    +0.000 N 
DOCKED: ATOM     32  O   UNL     1      20.634 -17.479  -0.708 -2.07 +0.00    +0.000 OA
DOCKED: ATOM     33  H   UNL     1      21.624 -20.143  -2.179 -0.55 -0.00    +0.000 HD
DOCKED: BRANCH  31  34
DOCKED: ATOM     34  O   UNL     1      19.660 -19.785  -1.801 -1.72 -0.00    +0.000 OA
DOCKED: ATOM     35  H   UNL     1      19.165 -19.013  -1.481 -0.53 -0.00    +0.000 HD
DOCKED: ENDBRANCH  31  34
DOCKED: ENDBRANCH  27  30
DOCKED: ENDBRANCH  22  24
DOCKED: ENDBRANCH  19  21
DOCKED: ENDBRANCH   1  19
DOCKED: TORSDOF 10
DOCKED: TER
DOCKED: ENDMDL
________________________________________________________________________________


	BEGINNING GENETIC ALGORITHM DOCKING 11 of 100
Run: 11 Seed: 1492385122 644597699 [ Run 11 of 100 GA/GALS ]
Beginning LAMARCKIAN GENETIC ALGORITHM (LGA), with a maximum of 2500000 energy evaluations.

Final-Value: -14.519


	FINAL GENETIC ALGORITHM DOCKED STATE
	_______________________________________________


Detailed state:  trans 28.781 -16.118 -1.367 quatxyzw 0.741546 -0.515325 0.411337 0.123901 center 1.857 0.216 -0.019 ntor 10 -15.8716 20.5103 -127.8108 21.7437 149.2857 -146.0211 -98.9210 23.5392 -7.2981 -126.2512
State:	 28.781 -16.118  -1.367   0.747 -0.519  0.415 165.765    -15.87   20.51 -127.81   21.74  149.29 -146.02  -98.92   23.54   -7.30 -126.25

DOCKED: MODEL       11
DOCKED: USER    Run = 11
DOCKED: USER    DPF = ligand_dock.biased.dpf
DOCKED: USER  
DOCKED: USER    Estimated Free Energy of Binding    =   -9.80 kcal/mol  [=(1)+(2)+(3)-(4)]
DOCKED: USER    Estimated Inhibition Constant, Ki   =   65.42 nM (nanomolar)  [Temperature = 298.15 K]
DOCKED: USER    
DOCKED: USER    (1) Final Intermolecular Energy     =  -12.78 kcal/mol
DOCKED: USER        vdW + Hbond + desolv Energy     =  -12.78 kcal/mol
DOCKED: USER        Electrostatic Energy            =   +0.00 kcal/mol
DOCKED: USER    (2) Final Total Internal Energy     =   -1.73 kcal/mol
DOCKED: USER    (3) Torsional Free Energy           =   +2.98 kcal/mol
DOCKED: USER    (4) Unbound System's Energy  [=(2)] =   -1.73 kcal/mol
DOCKED: USER    
DOCKED: USER    
DOCKED: USER    NEWDPF move ligand.pdbqt
DOCKED: USER    NEWDPF about 1.857000 0.216000 -0.019000
DOCKED: USER    NEWDPF tran0 28.781101 -16.118332 -1.367440
DOCKED: USER    NEWDPF quaternion0 0.741546 -0.515325 0.411337 0.123901
DOCKED: USER    NEWDPF axisangle0 0.747304 -0.519327 0.414531 165.765354
DOCKED: USER    NEWDPF quat0 0.747304 -0.519327 0.414531 165.765354
DOCKED: USER    NEWDPF dihe0 -15.87 20.51 -127.81 21.74 149.29 -146.02 -98.92 23.54 -7.30 -126.25 
DOCKED: USER  keepresnum = 1 
DOCKED: USER  
DOCKED: REMARK  Name = 
DOCKED: REMARK  12 active torsions:
DOCKED: REMARK  status: ('A' for Active; 'I' for Inactive)
DOCKED: REMARK    1  A    between atoms: C_2  and  O_3
DOCKED: REMARK    2  A    between atoms: O_3  and  C_4
DOCKED: REMARK    3  A    between atoms: C_4  and  C_5
DOCKED: REMARK    4  A    between atoms: C_10  and  C_11
DOCKED: REMARK    5  A    between atoms: C_11  and  N_12
DOCKED: REMARK    6  A    between atoms: N_12  and  C_13
DOCKED: REMARK    7  A    between atoms: N_12  and  C_15
DOCKED: REMARK    8  A    between atoms: C_13  and  C_14
DOCKED: REMARK    9  A    between atoms: C_15  and  C_16
DOCKED: REMARK   10  A    between atoms: N_21  and  C_22
DOCKED: REMARK   11  A    between atoms: C_25  and  C_26
DOCKED: REMARK   12  A    between atoms: N_27  and  O_28
DOCKED: REMARK                            x       y       z     vdW  Elec       q    Type
DOCKED: REMARK                         _______ _______ _______ _____ _____    ______ ____
DOCKED: USER                              x       y       z     vdW  Elec       q    Type
DOCKED: USER                           _______ _______ _______ _____ _____    ______ ____
DOCKED: ROOT
DOCKED: ATOM      1  C   UNL     1      30.305 -16.057  -1.998 -0.13 -0.00    +0.000 C 
DOCKED: ENDROOT
DOCKED: BRANCH   1   2
DOCKED: ATOM      2  C   UNL     1      29.808 -14.669  -2.278 -0.07 -0.00    +0.000 A 
DOCKED: ATOM      3  C   UNL     1      30.057 -13.632  -1.366 -0.03 -0.00    +0.000 A 
DOCKED: ATOM      4  C   UNL     1      29.564 -12.346  -1.604 -0.03 -0.00    +0.000 A 
DOCKED: ATOM      5  C   UNL     1      28.804 -12.082  -2.752 -0.05 -0.00    +0.000 A 
DOCKED: ATOM      6  C   UNL     1      28.305 -10.794  -2.998 -0.05 -0.00    +0.000 A 
DOCKED: ATOM      7  C   UNL     1      27.539 -10.538  -4.147 -0.09 -0.00    +0.000 A 
DOCKED: ATOM      8  C   UNL     1      27.277 -11.579  -5.051 -0.16 -0.00    +0.000 A 
DOCKED: ATOM      9  C   UNL     1      27.769 -12.865  -4.813 -0.18 -0.00    +0.000 A 
DOCKED: ATOM     10  C   UNL     1      28.534 -13.127  -3.668 -0.10 -0.00    +0.000 A 
DOCKED: ATOM     11  C   UNL     1      29.034 -14.415  -3.421 -0.12 -0.00    +0.000 A 
DOCKED: BRANCH   7  12
DOCKED: ATOM     12  C   UNL     1      27.017  -9.153  -4.428 -0.09 -0.00    +0.000 C 
DOCKED: BRANCH  12  13
DOCKED: ATOM     13  N   UNL     1      26.672  -8.473  -3.160 -0.10 -0.00    +0.000 N 
DOCKED: ATOM     14  H   UNL     1      27.505  -8.463  -2.570 +0.00 -0.00    +0.000 HD
DOCKED: BRANCH  13  15
DOCKED: ATOM     15  C   UNL     1      25.654  -9.235  -2.399 -0.17 -0.00    +0.000 C 
DOCKED: ATOM     16  C   UNL     1      25.794  -9.024  -0.891 -0.26 +0.00    +0.000 C 
DOCKED: ENDBRANCH  13  15
DOCKED: BRANCH  13  17
DOCKED: ATOM     17  C   UNL     1      26.334  -7.043  -3.368 -0.08 -0.00    +0.000 C 
DOCKED: ATOM     18  C   UNL     1      24.858  -6.786  -3.703 -0.16 -0.00    +0.000 C 
DOCKED: ENDBRANCH  13  17
DOCKED: ENDBRANCH  12  13
DOCKED: ENDBRANCH   7  12
DOCKED: ENDBRANCH   1   2
DOCKED: BRANCH   1  19
DOCKED: ATOM     19  O   UNL     1      29.382 -16.721  -1.141 -0.26 -0.00    +0.000 OA
DOCKED: BRANCH  19  21
DOCKED: ATOM     20  O   UNL     1      27.620 -16.729  -2.630 -0.35 -0.00    +0.000 OA
DOCKED: ATOM     21  C   UNL     1      28.021 -16.829  -1.438 -0.37 -0.00    +0.000 C 
DOCKED: ATOM     22  N   UNL     1      27.086 -17.011  -0.365 -0.45 -0.00    +0.000 N 
DOCKED: ATOM     23  H   UNL     1      27.422 -16.924   0.556 -0.17 -0.00    +0.000 HD
DOCKED: BRANCH  22  24
DOCKED: ATOM     24  C   UNL     1      25.692 -17.314  -0.547 -0.55 -0.00    +0.000 A 
DOCKED: ATOM     25  C   UNL     1      25.199 -18.558  -0.132 -0.47 -0.00    +0.000 A 
DOCKED: ATOM     26  C   UNL     1      23.854 -18.887  -0.317 -0.47 -0.00    +0.000 A 
DOCKED: ATOM     27  C   UNL     1      22.973 -17.978  -0.928 -0.71 -0.00    +0.000 A 
DOCKED: ATOM     28  C   UNL     1      23.477 -16.743  -1.377 -0.23 -0.00    +0.000 A 
DOCKED: ATOM     29  C   UNL     1      24.824 -16.416  -1.190 -0.51 -0.00    +0.000 A 
DOCKED: BRANCH  27  30
DOCKED: ATOM     30  C   UNL     1      21.548 -18.342  -1.121 -0.64 -0.00    +0.000 C 
DOCKED: ATOM     31  N   UNL     1      21.169 -19.555  -1.783 -0.63 -0.00    +0.000 N 
DOCKED: ATOM     32  O   UNL     1      20.646 -17.563  -0.708 -2.14 +0.00    +0.000 OA
DOCKED: ATOM     33  H   UNL     1      21.860 -20.129  -2.186 -0.56 -0.00    +0.000 HD
DOCKED: BRANCH  31  34
DOCKED: ATOM     34  O   UNL     1      19.866 -19.915  -1.856 -1.80 -0.00    +0.000 OA
DOCKED: ATOM     35  H   UNL     1      19.762 -20.824  -1.533 -0.61 -0.00    +0.000 HD
DOCKED: ENDBRANCH  31  34
DOCKED: ENDBRANCH  27  30
DOCKED: ENDBRANCH  22  24
DOCKED: ENDBRANCH  19  21
DOCKED: ENDBRANCH   1  19
DOCKED: TORSDOF 10
DOCKED: TER
DOCKED: ENDMDL
________________________________________________________________________________


	BEGINNING GENETIC ALGORITHM DOCKING 12 of 100
Run: 12 Seed: 1628768694 1746442114 [ Run 12 of 100 GA/GALS ]
Beginning LAMARCKIAN GENETIC ALGORITHM (LGA), with a maximum of 2500000 energy evaluations.

Final-Value: -15.536


	FINAL GENETIC ALGORITHM DOCKED STATE
	_______________________________________________


Detailed state:  trans 29.393 -14.678 -0.939 quatxyzw -0.120474 -0.734727 0.335456 0.577175 center 1.857 0.216 -0.019 ntor 10 165.4969 170.3966 6.2066 -70.2319 164.2616 -3.9517 -64.9668 179.4093 107.3258 99.2706
State:	 29.393 -14.678  -0.939  -0.148 -0.900  0.411 109.496    165.50  170.40    6.21  -70.23  164.26   -3.95  -64.97  179.41  107.33   99.27

DOCKED: MODEL       12
DOCKED: USER    Run = 12
DOCKED: USER    DPF = ligand_dock.biased.dpf
DOCKED: USER  
DOCKED: USER    Estimated Free Energy of Binding    =  -10.44 kcal/mol  [=(1)+(2)+(3)-(4)]
DOCKED: USER    Estimated Inhibition Constant, Ki   =   22.23 nM (nanomolar)  [Temperature = 298.15 K]
DOCKED: USER    
DOCKED: USER    (1) Final Intermolecular Energy     =  -13.42 kcal/mol
DOCKED: USER        vdW + Hbond + desolv Energy     =  -13.42 kcal/mol
DOCKED: USER        Electrostatic Energy            =   +0.00 kcal/mol
DOCKED: USER    (2) Final Total Internal Energy     =   -2.11 kcal/mol
DOCKED: USER    (3) Torsional Free Energy           =   +2.98 kcal/mol
DOCKED: USER    (4) Unbound System's Energy  [=(2)] =   -2.11 kcal/mol
DOCKED: USER    
DOCKED: USER    
DOCKED: USER    NEWDPF move ligand.pdbqt
DOCKED: USER    NEWDPF about 1.857000 0.216000 -0.019000
DOCKED: USER    NEWDPF tran0 29.393011 -14.677736 -0.939440
DOCKED: USER    NEWDPF quaternion0 -0.120474 -0.734727 0.335456 0.577175
DOCKED: USER    NEWDPF axisangle0 -0.147528 -0.899717 0.410786 109.495805
DOCKED: USER    NEWDPF quat0 -0.147528 -0.899717 0.410786 109.495805
DOCKED: USER    NEWDPF dihe0 165.50 170.40 6.21 -70.23 164.26 -3.95 -64.97 179.41 107.33 99.27 
DOCKED: USER  keepresnum = 1 
DOCKED: USER  
DOCKED: REMARK  Name = 
DOCKED: REMARK  12 active torsions:
DOCKED: REMARK  status: ('A' for Active; 'I' for Inactive)
DOCKED: REMARK    1  A    between atoms: C_2  and  O_3
DOCKED: REMARK    2  A    between atoms: O_3  and  C_4
DOCKED: REMARK    3  A    between atoms: C_4  and  C_5
DOCKED: REMARK    4  A    between atoms: C_10  and  C_11
DOCKED: REMARK    5  A    between atoms: C_11  and  N_12
DOCKED: REMARK    6  A    between atoms: N_12  and  C_13
DOCKED: REMARK    7  A    between atoms: N_12  and  C_15
DOCKED: REMARK    8  A    between atoms: C_13  and  C_14
DOCKED: REMARK    9  A    between atoms: C_15  and  C_16
DOCKED: REMARK   10  A    between atoms: N_21  and  C_22
DOCKED: REMARK   11  A    between atoms: C_25  and  C_26
DOCKED: REMARK   12  A    between atoms: N_27  and  O_28
DOCKED: REMARK                            x       y       z     vdW  Elec       q    Type
DOCKED: REMARK                         _______ _______ _______ _____ _____    ______ ____
DOCKED: USER                              x       y       z     vdW  Elec       q    Type
DOCKED: USER                           _______ _______ _______ _____ _____    ______ ____
DOCKED: ROOT
DOCKED: ATOM      1  C   UNL     1      30.229 -16.084  -0.725 -0.16 -0.00    +0.000 C 
DOCKED: ENDROOT
DOCKED: BRANCH   1   2
DOCKED: ATOM      2  C   UNL     1      30.194 -15.540   0.673 -0.03 -0.00    +0.000 A 
DOCKED: ATOM      3  C   UNL     1      31.210 -15.867   1.584 -0.02 -0.00    +0.000 A 
DOCKED: ATOM      4  C   UNL     1      31.162 -15.394   2.898 -0.15 -0.00    +0.000 A 
DOCKED: ATOM      5  C   UNL     1      30.089 -14.598   3.323 -0.19 -0.00    +0.000 A 
DOCKED: ATOM      6  C   UNL     1      30.032 -14.119   4.641 -0.31 -0.00    +0.000 A 
DOCKED: ATOM      7  C   UNL     1      28.953 -13.326   5.062 -0.35 -0.00    +0.000 A 
DOCKED: ATOM      8  C   UNL     1      27.929 -13.012   4.155 -0.37 -0.00    +0.000 A 
DOCKED: ATOM      9  C   UNL     1      27.976 -13.485   2.842 -0.29 -0.00    +0.000 A 
DOCKED: ATOM     10  C   UNL     1      29.052 -14.278   2.415 -0.16 -0.00    +0.000 A 
DOCKED: ATOM     11  C   UNL     1      29.109 -14.756   1.098 -0.11 -0.00    +0.000 A 
DOCKED: BRANCH   7  12
DOCKED: ATOM     12  C   UNL     1      28.896 -12.793   6.470 -0.42 -0.00    +0.000 C 
DOCKED: BRANCH  12  13
DOCKED: ATOM     13  N   UNL     1      29.163 -11.338   6.474 -0.27 +0.00    +0.000 N 
DOCKED: ATOM     14  H   UNL     1      29.849 -11.140   5.745 +0.01 -0.00    +0.000 HD
DOCKED: BRANCH  13  15
DOCKED: ATOM     15  C   UNL     1      29.794 -10.908   7.744 -0.26 -0.00    +0.000 C 
DOCKED: ATOM     16  C   UNL     1      29.397 -11.810   8.912 -0.36 -0.00    +0.000 C 
DOCKED: ENDBRANCH  13  15
DOCKED: BRANCH  13  17
DOCKED: ATOM     17  C   UNL     1      27.964 -10.550   6.093 -0.26 +0.00    +0.000 C 
DOCKED: ATOM     18  C   UNL     1      28.172  -9.628   4.884 -0.27 +0.00    +0.000 C 
DOCKED: ENDBRANCH  13  17
DOCKED: ENDBRANCH  12  13
DOCKED: ENDBRANCH   7  12
DOCKED: ENDBRANCH   1   2
DOCKED: BRANCH   1  19
DOCKED: ATOM     19  O   UNL     1      29.365 -15.310  -1.551 -0.13 -0.00    +0.000 OA
DOCKED: BRANCH  19  21
DOCKED: ATOM     20  O   UNL     1      27.255 -14.771  -2.310 -0.25 -0.00    +0.000 OA
DOCKED: ATOM     21  C   UNL     1      27.982 -15.502  -1.584 -0.26 -0.00    +0.000 C 
DOCKED: ATOM     22  N   UNL     1      27.399 -16.512  -0.748 -0.38 -0.00    +0.000 N 
DOCKED: ATOM     23  H   UNL     1      27.979 -16.948  -0.082 -0.10 -0.00    +0.000 HD
DOCKED: BRANCH  22  24
DOCKED: ATOM     24  C   UNL     1      26.025 -16.929  -0.818 -0.51 -0.00    +0.000 A 
DOCKED: ATOM     25  C   UNL     1      25.695 -18.260  -0.533 -0.59 -0.00    +0.000 A 
DOCKED: ATOM     26  C   UNL     1      24.371 -18.698  -0.616 -0.60 -0.00    +0.000 A 
DOCKED: ATOM     27  C   UNL     1      23.347 -17.812  -0.993 -0.70 -0.00    +0.000 A 
DOCKED: ATOM     28  C   UNL     1      23.685 -16.484  -1.315 +0.02 -0.00    +0.000 A 
DOCKED: ATOM     29  C   UNL     1      25.010 -16.048  -1.231 -0.42 -0.00    +0.000 A 
DOCKED: BRANCH  27  30
DOCKED: ATOM     30  C   UNL     1      21.946 -18.291  -1.080 -0.76 -0.00    +0.000 C 
DOCKED: ATOM     31  N   UNL     1      21.632 -19.595  -1.586 -0.51 -0.00    +0.000 N 
DOCKED: ATOM     32  O   UNL     1      21.006 -17.533  -0.716 -2.08 -0.00    +0.000 OA
DOCKED: ATOM     33  H   UNL     1      22.347 -20.163  -1.954 -0.47 -0.00    +0.000 HD
DOCKED: BRANCH  31  34
DOCKED: ATOM     34  O   UNL     1      20.356 -20.048  -1.561 -1.61 -0.00    +0.000 OA
DOCKED: ATOM     35  H   UNL     1      19.766 -19.337  -1.262 -0.10 -0.00    +0.000 HD
DOCKED: ENDBRANCH  31  34
DOCKED: ENDBRANCH  27  30
DOCKED: ENDBRANCH  22  24
DOCKED: ENDBRANCH  19  21
DOCKED: ENDBRANCH   1  19
DOCKED: TORSDOF 10
DOCKED: TER
DOCKED: ENDMDL
________________________________________________________________________________


	BEGINNING GENETIC ALGORITHM DOCKING 13 of 100
Run: 13 Seed: 762288120 1382317985 [ Run 13 of 100 GA/GALS ]
Beginning LAMARCKIAN GENETIC ALGORITHM (LGA), with a maximum of 2500000 energy evaluations.

Final-Value: -16.331


	FINAL GENETIC ALGORITHM DOCKED STATE
	_______________________________________________


Detailed state:  trans 27.162 -14.687 -1.834 quatxyzw -0.047610 0.626750 -0.454634 -0.631051 center 1.857 0.216 -0.019 ntor 10 -134.1783 16.7326 -2.9285 -42.9504 -31.2446 152.1167 -165.0955 -151.0802 -116.9116 84.2488
State:	 27.162 -14.687  -1.834  -0.061  0.808 -0.586 -101.745   -134.18   16.73   -2.93  -42.95  -31.24  152.12 -165.10 -151.08 -116.91   84.25

DOCKED: MODEL       13
DOCKED: USER    Run = 13
DOCKED: USER    DPF = ligand_dock.biased.dpf
DOCKED: USER  
DOCKED: USER    Estimated Free Energy of Binding    =  -11.15 kcal/mol  [=(1)+(2)+(3)-(4)]
DOCKED: USER    Estimated Inhibition Constant, Ki   =    6.69 nM (nanomolar)  [Temperature = 298.15 K]
DOCKED: USER    
DOCKED: USER    (1) Final Intermolecular Energy     =  -14.14 kcal/mol
DOCKED: USER        vdW + Hbond + desolv Energy     =  -14.14 kcal/mol
DOCKED: USER        Electrostatic Energy            =   +0.00 kcal/mol
DOCKED: USER    (2) Final Total Internal Energy     =   -2.20 kcal/mol
DOCKED: USER    (3) Torsional Free Energy           =   +2.98 kcal/mol
DOCKED: USER    (4) Unbound System's Energy  [=(2)] =   -2.20 kcal/mol
DOCKED: USER    
DOCKED: USER    
DOCKED: USER    NEWDPF move ligand.pdbqt
DOCKED: USER    NEWDPF about 1.857000 0.216000 -0.019000
DOCKED: USER    NEWDPF tran0 27.162407 -14.686694 -1.834365
DOCKED: USER    NEWDPF quaternion0 -0.047610 0.626750 -0.454634 -0.631051
DOCKED: USER    NEWDPF axisangle0 -0.061373 0.807937 -0.586064 -101.744584
DOCKED: USER    NEWDPF quat0 -0.061373 0.807937 -0.586064 -101.744584
DOCKED: USER    NEWDPF dihe0 -134.18 16.73 -2.93 -42.95 -31.24 152.12 -165.10 -151.08 -116.91 84.25 
DOCKED: USER  keepresnum = 1 
DOCKED: USER  
DOCKED: REMARK  Name = 
DOCKED: REMARK  12 active torsions:
DOCKED: REMARK  status: ('A' for Active; 'I' for Inactive)
DOCKED: REMARK    1  A    between atoms: C_2  and  O_3
DOCKED: REMARK    2  A    between atoms: O_3  and  C_4
DOCKED: REMARK    3  A    between atoms: C_4  and  C_5
DOCKED: REMARK    4  A    between atoms: C_10  and  C_11
DOCKED: REMARK    5  A    between atoms: C_11  and  N_12
DOCKED: REMARK    6  A    between atoms: N_12  and  C_13
DOCKED: REMARK    7  A    between atoms: N_12  and  C_15
DOCKED: REMARK    8  A    between atoms: C_13  and  C_14
DOCKED: REMARK    9  A    between atoms: C_15  and  C_16
DOCKED: REMARK   10  A    between atoms: N_21  and  C_22
DOCKED: REMARK   11  A    between atoms: C_25  and  C_26
DOCKED: REMARK   12  A    between atoms: N_27  and  O_28
DOCKED: REMARK                            x       y       z     vdW  Elec       q    Type
DOCKED: REMARK                         _______ _______ _______ _____ _____    ______ ____
DOCKED: USER                              x       y       z     vdW  Elec       q    Type
DOCKED: USER                           _______ _______ _______ _____ _____    ______ ____
DOCKED: ROOT
DOCKED: ATOM      1  C   UNL     1      28.115 -15.735  -0.989 -0.28 -0.00    +0.000 C 
DOCKED: ENDROOT
DOCKED: BRANCH   1   2
DOCKED: ATOM      2  C   UNL     1      27.902 -14.643   0.019 -0.22 -0.00    +0.000 A 
DOCKED: ATOM      3  C   UNL     1      27.434 -13.385  -0.391 -0.18 -0.00    +0.000 A 
DOCKED: ATOM      4  C   UNL     1      27.270 -12.354   0.538 -0.19 -0.00    +0.000 A 
DOCKED: ATOM      5  C   UNL     1      27.585 -12.563   1.888 -0.23 -0.00    +0.000 A 
DOCKED: ATOM      6  C   UNL     1      27.424 -11.533   2.828 -0.26 +0.00    +0.000 A 
DOCKED: ATOM      7  C   UNL     1      27.746 -11.746   4.178 -0.29 +0.00    +0.000 A 
DOCKED: ATOM      8  C   UNL     1      28.229 -13.000   4.584 -0.37 -0.00    +0.000 A 
DOCKED: ATOM      9  C   UNL     1      28.393 -14.031   3.656 -0.39 -0.00    +0.000 A 
DOCKED: ATOM     10  C   UNL     1      28.074 -13.824   2.306 -0.27 -0.00    +0.000 A 
DOCKED: ATOM     11  C   UNL     1      28.234 -14.853   1.367 -0.11 -0.00    +0.000 A 
DOCKED: BRANCH   7  12
DOCKED: ATOM     12  C   UNL     1      27.557 -10.651   5.194 -0.36 +0.00    +0.000 C 
DOCKED: BRANCH  12  13
DOCKED: ATOM     13  N   UNL     1      28.832  -9.935   5.413 -0.23 +0.00    +0.000 N 
DOCKED: ATOM     14  H   UNL     1      29.568 -10.439   4.917 +0.00 +0.00    +0.000 HD
DOCKED: BRANCH  13  15
DOCKED: ATOM     15  C   UNL     1      29.226  -9.957   6.841 -0.27 +0.00    +0.000 C 
DOCKED: ATOM     16  C   UNL     1      28.769 -11.238   7.539 -0.35 +0.00    +0.000 C 
DOCKED: ENDBRANCH  13  15
DOCKED: BRANCH  13  17
DOCKED: ATOM     17  C   UNL     1      28.823  -8.580   4.805 -0.18 +0.00    +0.000 C 
DOCKED: ATOM     18  C   UNL     1      28.171  -7.500   5.679 -0.21 +0.00    +0.000 C 
DOCKED: ENDBRANCH  13  17
DOCKED: ENDBRANCH  12  13
DOCKED: ENDBRANCH   7  12
DOCKED: ENDBRANCH   1   2
DOCKED: BRANCH   1  19
DOCKED: ATOM     19  O   UNL     1      27.253 -15.521  -2.101 -0.30 -0.00    +0.000 OA
DOCKED: BRANCH  19  21
DOCKED: ATOM     20  O   UNL     1      25.518 -16.372  -3.361 -0.60 -0.00    +0.000 OA
DOCKED: ATOM     21  C   UNL     1      26.008 -16.144  -2.221 -0.51 -0.00    +0.000 C 
DOCKED: ATOM     22  N   UNL     1      25.281 -16.482  -1.032 -0.51 -0.00    +0.000 N 
DOCKED: ATOM     23  H   UNL     1      25.624 -16.145  -0.173 -0.02 -0.00    +0.000 HD
DOCKED: BRANCH  22  24
DOCKED: ATOM     24  C   UNL     1      24.085 -17.279  -1.011 -0.64 -0.00    +0.000 A 
DOCKED: ATOM     25  C   UNL     1      24.048 -18.480  -1.732 -0.47 -0.00    +0.000 A 
DOCKED: ATOM     26  C   UNL     1      22.890 -19.264  -1.747 -0.43 -0.00    +0.000 A 
DOCKED: ATOM     27  C   UNL     1      21.742 -18.857  -1.047 -0.74 -0.00    +0.000 A 
DOCKED: ATOM     28  C   UNL     1      21.769 -17.633  -0.353 -0.58 -0.00    +0.000 A 
DOCKED: ATOM     29  C   UNL     1      22.928 -16.851  -0.338 -0.31 -0.00    +0.000 A 
DOCKED: BRANCH  27  30
DOCKED: ATOM     30  C   UNL     1      20.519 -19.697  -1.075 -0.86 -0.00    +0.000 C 
DOCKED: ATOM     31  N   UNL     1      19.881 -20.128   0.133 -0.74 -0.00    +0.000 N 
DOCKED: ATOM     32  O   UNL     1      20.036 -20.053  -2.184 -1.82 -0.00    +0.000 OA
DOCKED: ATOM     33  H   UNL     1      20.296 -19.931   1.004 -0.11 -0.00    +0.000 HD
DOCKED: BRANCH  31  34
DOCKED: ATOM     34  O   UNL     1      18.711 -20.808   0.082 -0.75 -0.00    +0.000 OA
DOCKED: ATOM     35  H   UNL     1      18.417 -20.878  -0.841 -0.35 -0.00    +0.000 HD
DOCKED: ENDBRANCH  31  34
DOCKED: ENDBRANCH  27  30
DOCKED: ENDBRANCH  22  24
DOCKED: ENDBRANCH  19  21
DOCKED: ENDBRANCH   1  19
DOCKED: TORSDOF 10
DOCKED: TER
DOCKED: ENDMDL
________________________________________________________________________________


	BEGINNING GENETIC ALGORITHM DOCKING 14 of 100
Run: 14 Seed: 2131099005 878480354 [ Run 14 of 100 GA/GALS ]
Beginning LAMARCKIAN GENETIC ALGORITHM (LGA), with a maximum of 2500000 energy evaluations.

Final-Value: -14.832


	FINAL GENETIC ALGORITHM DOCKED STATE
	_______________________________________________


Detailed state:  trans 27.799 -15.988 0.061 quatxyzw 0.727532 -0.597791 -0.302016 0.148762 center 1.857 0.216 -0.019 ntor 10 58.6862 172.5141 -27.5358 -169.1812 112.3728 -169.6579 -19.9205 138.5176 60.1323 -65.3652
State:	 27.799 -15.988   0.061   0.736 -0.605 -0.305 162.890     58.69  172.51  -27.54 -169.18  112.37 -169.66  -19.92  138.52   60.13  -65.37

DOCKED: MODEL       14
DOCKED: USER    Run = 14
DOCKED: USER    DPF = ligand_dock.biased.dpf
DOCKED: USER  
DOCKED: USER    Estimated Free Energy of Binding    =  -10.12 kcal/mol  [=(1)+(2)+(3)-(4)]
DOCKED: USER    Estimated Inhibition Constant, Ki   =   38.31 nM (nanomolar)  [Temperature = 298.15 K]
DOCKED: USER    
DOCKED: USER    (1) Final Intermolecular Energy     =  -13.10 kcal/mol
DOCKED: USER        vdW + Hbond + desolv Energy     =  -13.10 kcal/mol
DOCKED: USER        Electrostatic Energy            =   +0.00 kcal/mol
DOCKED: USER    (2) Final Total Internal Energy     =   -1.73 kcal/mol
DOCKED: USER    (3) Torsional Free Energy           =   +2.98 kcal/mol
DOCKED: USER    (4) Unbound System's Energy  [=(2)] =   -1.73 kcal/mol
DOCKED: USER    
DOCKED: USER    
DOCKED: USER    NEWDPF move ligand.pdbqt
DOCKED: USER    NEWDPF about 1.857000 0.216000 -0.019000
DOCKED: USER    NEWDPF tran0 27.799317 -15.988297 0.060895
DOCKED: USER    NEWDPF quaternion0 0.727532 -0.597791 -0.302016 0.148762
DOCKED: USER    NEWDPF axisangle0 0.735718 -0.604518 -0.305414 162.889644
DOCKED: USER    NEWDPF quat0 0.735718 -0.604518 -0.305414 162.889644
DOCKED: USER    NEWDPF dihe0 58.69 172.51 -27.54 -169.18 112.37 -169.66 -19.92 138.52 60.13 -65.37 
DOCKED: USER  keepresnum = 1 
DOCKED: USER  
DOCKED: REMARK  Name = 
DOCKED: REMARK  12 active torsions:
DOCKED: REMARK  status: ('A' for Active; 'I' for Inactive)
DOCKED: REMARK    1  A    between atoms: C_2  and  O_3
DOCKED: REMARK    2  A    between atoms: O_3  and  C_4
DOCKED: REMARK    3  A    between atoms: C_4  and  C_5
DOCKED: REMARK    4  A    between atoms: C_10  and  C_11
DOCKED: REMARK    5  A    between atoms: C_11  and  N_12
DOCKED: REMARK    6  A    between atoms: N_12  and  C_13
DOCKED: REMARK    7  A    between atoms: N_12  and  C_15
DOCKED: REMARK    8  A    between atoms: C_13  and  C_14
DOCKED: REMARK    9  A    between atoms: C_15  and  C_16
DOCKED: REMARK   10  A    between atoms: N_21  and  C_22
DOCKED: REMARK   11  A    between atoms: C_25  and  C_26
DOCKED: REMARK   12  A    between atoms: N_27  and  O_28
DOCKED: REMARK                            x       y       z     vdW  Elec       q    Type
DOCKED: REMARK                         _______ _______ _______ _____ _____    ______ ____
DOCKED: USER                              x       y       z     vdW  Elec       q    Type
DOCKED: USER                           _______ _______ _______ _____ _____    ______ ____
DOCKED: ROOT
DOCKED: ATOM      1  C   UNL     1      28.016 -14.837  -1.101 -0.21 -0.00    +0.000 C 
DOCKED: ENDROOT
DOCKED: BRANCH   1   2
DOCKED: ATOM      2  C   UNL     1      28.113 -14.019   0.153 -0.17 -0.00    +0.000 A 
DOCKED: ATOM      3  C   UNL     1      28.728 -12.758   0.128 -0.08 -0.00    +0.000 A 
DOCKED: ATOM      4  C   UNL     1      28.855 -12.008   1.301 -0.08 -0.00    +0.000 A 
DOCKED: ATOM      5  C   UNL     1      28.379 -12.516   2.518 -0.18 -0.00    +0.000 A 
DOCKED: ATOM      6  C   UNL     1      28.503 -11.771   3.701 -0.19 -0.00    +0.000 A 
DOCKED: ATOM      7  C   UNL     1      28.030 -12.287   4.918 -0.35 +0.00    +0.000 A 
DOCKED: ATOM      8  C   UNL     1      27.429 -13.555   4.945 -0.43 -0.00    +0.000 A 
DOCKED: ATOM      9  C   UNL     1      27.302 -14.304   3.773 -0.32 -0.00    +0.000 A 
DOCKED: ATOM     10  C   UNL     1      27.773 -13.795   2.554 -0.30 -0.00    +0.000 A 
DOCKED: ATOM     11  C   UNL     1      27.649 -14.539   1.372 -0.23 -0.00    +0.000 A 
DOCKED: BRANCH   7  12
DOCKED: ATOM     12  C   UNL     1      28.142 -11.483   6.187 -0.37 +0.00    +0.000 C 
DOCKED: BRANCH  12  13
DOCKED: ATOM     13  N   UNL     1      29.557 -11.148   6.453 -0.20 -0.00    +0.000 N 
DOCKED: ATOM     14  H   UNL     1      29.749 -11.338   7.436 -0.00 -0.00    +0.000 HD
DOCKED: BRANCH  13  15
DOCKED: ATOM     15  C   UNL     1      29.813  -9.699   6.270 -0.17 +0.00    +0.000 C 
DOCKED: ATOM     16  C   UNL     1      31.094  -9.442   5.477 -0.04 -0.00    +0.000 C 
DOCKED: ENDBRANCH  13  15
DOCKED: BRANCH  13  17
DOCKED: ATOM     17  C   UNL     1      30.489 -12.028   5.705 -0.16 -0.00    +0.000 C 
DOCKED: ATOM     18  C   UNL     1      31.453 -12.827   6.594 -0.20 -0.00    +0.000 C 
DOCKED: ENDBRANCH  13  17
DOCKED: ENDBRANCH  12  13
DOCKED: ENDBRANCH   7  12
DOCKED: ENDBRANCH   1   2
DOCKED: BRANCH   1  19
DOCKED: ATOM     19  O   UNL     1      28.016 -16.220  -0.761 -0.33 -0.00    +0.000 OA
DOCKED: BRANCH  19  21
DOCKED: ATOM     20  O   UNL     1      27.083 -18.215  -1.445 -0.10 -0.00    +0.000 OA
DOCKED: ATOM     21  C   UNL     1      26.917 -17.052  -0.986 -0.50 -0.00    +0.000 C 
DOCKED: ATOM     22  N   UNL     1      25.598 -16.550  -0.729 -0.48 -0.00    +0.000 N 
DOCKED: ATOM     23  H   UNL     1      25.504 -15.591  -0.526 -0.02 -0.00    +0.000 HD
DOCKED: BRANCH  22  24
DOCKED: ATOM     24  C   UNL     1      24.407 -17.353  -0.747 -0.63 -0.00    +0.000 A 
DOCKED: ATOM     25  C   UNL     1      23.154 -16.726  -0.744 -0.37 -0.00    +0.000 A 
DOCKED: ATOM     26  C   UNL     1      21.980 -17.483  -0.739 -0.63 -0.00    +0.000 A 
DOCKED: ATOM     27  C   UNL     1      22.034 -18.888  -0.730 -0.75 -0.00    +0.000 A 
DOCKED: ATOM     28  C   UNL     1      23.292 -19.516  -0.696 -0.43 -0.00    +0.000 A 
DOCKED: ATOM     29  C   UNL     1      24.466 -18.757  -0.702 -0.58 -0.00    +0.000 A 
DOCKED: BRANCH  27  30
DOCKED: ATOM     30  C   UNL     1      20.779 -19.679  -0.721 -0.84 -0.00    +0.000 C 
DOCKED: ATOM     31  N   UNL     1      20.153 -20.072   0.507 -0.71 -0.00    +0.000 N 
DOCKED: ATOM     32  O   UNL     1      20.256 -20.026  -1.814 -1.80 -0.00    +0.000 OA
DOCKED: ATOM     33  H   UNL     1      20.595 -19.882   1.365 -0.32 -0.00    +0.000 HD
DOCKED: BRANCH  31  34
DOCKED: ATOM     34  O   UNL     1      18.956 -20.705   0.490 -0.80 -0.00    +0.000 OA
DOCKED: ATOM     35  H   UNL     1      18.463 -20.446  -0.305 -0.14 -0.00    +0.000 HD
DOCKED: ENDBRANCH  31  34
DOCKED: ENDBRANCH  27  30
DOCKED: ENDBRANCH  22  24
DOCKED: ENDBRANCH  19  21
DOCKED: ENDBRANCH   1  19
DOCKED: TORSDOF 10
DOCKED: TER
DOCKED: ENDMDL
________________________________________________________________________________


	BEGINNING GENETIC ALGORITHM DOCKING 15 of 100
Run: 15 Seed: 1819752927 1223019596 [ Run 15 of 100 GA/GALS ]
Beginning LAMARCKIAN GENETIC ALGORITHM (LGA), with a maximum of 2500000 energy evaluations.

Final-Value: -16.166


	FINAL GENETIC ALGORITHM DOCKED STATE
	_______________________________________________


Detailed state:  trans 28.269 -15.298 -1.309 quatxyzw -0.884595 0.223530 -0.409176 -0.010068 center 1.857 0.216 -0.019 ntor 10 -165.2009 172.3277 -0.7084 -77.9956 180.0000 160.4630 28.1801 -87.3636 176.6101 -156.2078
State:	 28.269 -15.298  -1.309  -0.885  0.224 -0.409 -178.846   -165.20  172.33   -0.71  -78.00  180.00  160.46   28.18  -87.36  176.61 -156.21

DOCKED: MODEL       15
DOCKED: USER    Run = 15
DOCKED: USER    DPF = ligand_dock.biased.dpf
DOCKED: USER  
DOCKED: USER    Estimated Free Energy of Binding    =  -10.57 kcal/mol  [=(1)+(2)+(3)-(4)]
DOCKED: USER    Estimated Inhibition Constant, Ki   =   17.89 nM (nanomolar)  [Temperature = 298.15 K]
DOCKED: USER    
DOCKED: USER    (1) Final Intermolecular Energy     =  -13.55 kcal/mol
DOCKED: USER        vdW + Hbond + desolv Energy     =  -13.55 kcal/mol
DOCKED: USER        Electrostatic Energy            =   +0.00 kcal/mol
DOCKED: USER    (2) Final Total Internal Energy     =   -2.61 kcal/mol
DOCKED: USER    (3) Torsional Free Energy           =   +2.98 kcal/mol
DOCKED: USER    (4) Unbound System's Energy  [=(2)] =   -2.61 kcal/mol
DOCKED: USER    
DOCKED: USER    
DOCKED: USER    NEWDPF move ligand.pdbqt
DOCKED: USER    NEWDPF about 1.857000 0.216000 -0.019000
DOCKED: USER    NEWDPF tran0 28.268578 -15.298035 -1.308766
DOCKED: USER    NEWDPF quaternion0 -0.884595 0.223530 -0.409176 -0.010068
DOCKED: USER    NEWDPF axisangle0 -0.884640 0.223541 -0.409197 -178.846256
DOCKED: USER    NEWDPF quat0 -0.884640 0.223541 -0.409197 -178.846256
DOCKED: USER    NEWDPF dihe0 -165.20 172.33 -0.71 -78.00 180.00 160.46 28.18 -87.36 176.61 -156.21 
DOCKED: USER  keepresnum = 1 
DOCKED: USER  
DOCKED: REMARK  Name = 
DOCKED: REMARK  12 active torsions:
DOCKED: REMARK  status: ('A' for Active; 'I' for Inactive)
DOCKED: REMARK    1  A    between atoms: C_2  and  O_3
DOCKED: REMARK    2  A    between atoms: O_3  and  C_4
DOCKED: REMARK    3  A    between atoms: C_4  and  C_5
DOCKED: REMARK    4  A    between atoms: C_10  and  C_11
DOCKED: REMARK    5  A    between atoms: C_11  and  N_12
DOCKED: REMARK    6  A    between atoms: N_12  and  C_13
DOCKED: REMARK    7  A    between atoms: N_12  and  C_15
DOCKED: REMARK    8  A    between atoms: C_13  and  C_14
DOCKED: REMARK    9  A    between atoms: C_15  and  C_16
DOCKED: REMARK   10  A    between atoms: N_21  and  C_22
DOCKED: REMARK   11  A    between atoms: C_25  and  C_26
DOCKED: REMARK   12  A    between atoms: N_27  and  O_28
DOCKED: REMARK                            x       y       z     vdW  Elec       q    Type
DOCKED: REMARK                         _______ _______ _______ _____ _____    ______ ____
DOCKED: USER                              x       y       z     vdW  Elec       q    Type
DOCKED: USER                           _______ _______ _______ _____ _____    ______ ____
DOCKED: ROOT
DOCKED: ATOM      1  C   UNL     1      29.530 -14.895  -2.293 -0.11 -0.00    +0.000 C 
DOCKED: ENDROOT
DOCKED: BRANCH   1   2
DOCKED: ATOM      2  C   UNL     1      28.398 -14.145  -2.933 -0.13 -0.00    +0.000 A 
DOCKED: ATOM      3  C   UNL     1      27.536 -14.796  -3.829 -0.29 -0.00    +0.000 A 
DOCKED: ATOM      4  C   UNL     1      26.504 -14.091  -4.456 -0.39 -0.00    +0.000 A 
DOCKED: ATOM      5  C   UNL     1      26.329 -12.724  -4.206 -0.29 -0.00    +0.000 A 
DOCKED: ATOM      6  C   UNL     1      25.296 -12.009  -4.832 -0.28 -0.00    +0.000 A 
DOCKED: ATOM      7  C   UNL     1      25.129 -10.637  -4.581 -0.31 -0.00    +0.000 A 
DOCKED: ATOM      8  C   UNL     1      26.001  -9.984  -3.697 -0.18 -0.00    +0.000 A 
DOCKED: ATOM      9  C   UNL     1      27.033 -10.687  -3.070 -0.11 -0.00    +0.000 A 
DOCKED: ATOM     10  C   UNL     1      27.205 -12.057  -3.317 -0.14 -0.00    +0.000 A 
DOCKED: ATOM     11  C   UNL     1      28.237 -12.771  -2.691 -0.09 -0.00    +0.000 A 
DOCKED: BRANCH   7  12
DOCKED: ATOM     12  C   UNL     1      24.010  -9.869  -5.234 -0.33 -0.00    +0.000 C 
DOCKED: BRANCH  12  13
DOCKED: ATOM     13  N   UNL     1      24.449  -9.351  -6.548 -0.31 -0.00    +0.000 N 
DOCKED: ATOM     14  H   UNL     1      25.394  -8.981  -6.443 +0.00 -0.00    +0.000 HD
DOCKED: BRANCH  13  15
DOCKED: ATOM     15  C   UNL     1      23.617  -8.202  -6.981 -0.33 -0.00    +0.000 C 
DOCKED: ATOM     16  C   UNL     1      22.551  -7.848  -5.944 -0.46 -0.00    +0.000 C 
DOCKED: ENDBRANCH  13  15
DOCKED: BRANCH  13  17
DOCKED: ATOM     17  C   UNL     1      24.571 -10.429  -7.561 -0.38 -0.00    +0.000 C 
DOCKED: ATOM     18  C   UNL     1      25.975 -10.571  -8.166 -0.26 -0.00    +0.000 C 
DOCKED: ENDBRANCH  13  17
DOCKED: ENDBRANCH  12  13
DOCKED: ENDBRANCH   7  12
DOCKED: ENDBRANCH   1   2
DOCKED: BRANCH   1  19
DOCKED: ATOM     19  O   UNL     1      29.099 -15.414  -1.039 -0.16 -0.00    +0.000 OA
DOCKED: BRANCH  19  21
DOCKED: ATOM     20  O   UNL     1      27.036 -14.744  -0.255 -0.31 -0.00    +0.000 OA
DOCKED: ATOM     21  C   UNL     1      27.755 -15.657  -0.746 -0.31 -0.00    +0.000 C 
DOCKED: ATOM     22  N   UNL     1      27.219 -16.968  -0.971 -0.43 -0.00    +0.000 N 
DOCKED: ATOM     23  H   UNL     1      27.849 -17.688  -1.202 -0.05 -0.00    +0.000 HD
DOCKED: BRANCH  22  24
DOCKED: ATOM     24  C   UNL     1      25.822 -17.299  -0.881 -0.55 -0.00    +0.000 A 
DOCKED: ATOM     25  C   UNL     1      25.400 -18.253   0.054 -0.58 -0.00    +0.000 A 
DOCKED: ATOM     26  C   UNL     1      24.053 -18.610   0.147 -0.34 -0.00    +0.000 A 
DOCKED: ATOM     27  C   UNL     1      23.097 -18.024  -0.702 -0.73 -0.00    +0.000 A 
DOCKED: ATOM     28  C   UNL     1      23.528 -17.093  -1.665 -0.05 -0.00    +0.000 A 
DOCKED: ATOM     29  C   UNL     1      24.877 -16.737  -1.756 -0.56 -0.00    +0.000 A 
DOCKED: BRANCH  27  30
DOCKED: ATOM     30  C   UNL     1      21.671 -18.415  -0.595 -0.84 -0.00    +0.000 C 
DOCKED: ATOM     31  N   UNL     1      21.281 -19.669  -0.021 -0.67 -0.00    +0.000 N 
DOCKED: ATOM     32  O   UNL     1      20.779 -17.637  -1.030 -2.10 -0.00    +0.000 OA
DOCKED: ATOM     33  H   UNL     1      21.969 -20.322   0.243 -0.56 -0.00    +0.000 HD
DOCKED: BRANCH  31  34
DOCKED: ATOM     34  O   UNL     1      19.971 -19.960   0.159 -0.85 -0.00    +0.000 OA
DOCKED: ATOM     35  H   UNL     1      19.429 -19.212  -0.141 -0.05 -0.00    +0.000 HD
DOCKED: ENDBRANCH  31  34
DOCKED: ENDBRANCH  27  30
DOCKED: ENDBRANCH  22  24
DOCKED: ENDBRANCH  19  21
DOCKED: ENDBRANCH   1  19
DOCKED: TORSDOF 10
DOCKED: TER
DOCKED: ENDMDL
________________________________________________________________________________


	BEGINNING GENETIC ALGORITHM DOCKING 16 of 100
Run: 16 Seed: 1555063311 2101726551 [ Run 16 of 100 GA/GALS ]
Beginning LAMARCKIAN GENETIC ALGORITHM (LGA), with a maximum of 2500000 energy evaluations.

Final-Value: -15.581


	FINAL GENETIC ALGORITHM DOCKED STATE
	_______________________________________________


Detailed state:  trans 28.384 -16.168 -2.047 quatxyzw 0.292569 -0.140363 0.858155 -0.397833 center 1.857 0.216 -0.019 ntor 10 -103.2857 -179.9350 -19.3984 -161.3410 57.0193 -28.8602 -179.4483 110.4859 95.7776 -62.2941
State:	 28.384 -16.168  -2.047   0.319 -0.153  0.935 -133.114   -103.29 -179.93  -19.40 -161.34   57.02  -28.86 -179.45  110.49   95.78  -62.29

DOCKED: MODEL       16
DOCKED: USER    Run = 16
DOCKED: USER    DPF = ligand_dock.biased.dpf
DOCKED: USER  
DOCKED: USER    Estimated Free Energy of Binding    =  -10.72 kcal/mol  [=(1)+(2)+(3)-(4)]
DOCKED: USER    Estimated Inhibition Constant, Ki   =   13.97 nM (nanomolar)  [Temperature = 298.15 K]
DOCKED: USER    
DOCKED: USER    (1) Final Intermolecular Energy     =  -13.70 kcal/mol
DOCKED: USER        vdW + Hbond + desolv Energy     =  -13.70 kcal/mol
DOCKED: USER        Electrostatic Energy            =   +0.00 kcal/mol
DOCKED: USER    (2) Final Total Internal Energy     =   -1.88 kcal/mol
DOCKED: USER    (3) Torsional Free Energy           =   +2.98 kcal/mol
DOCKED: USER    (4) Unbound System's Energy  [=(2)] =   -1.88 kcal/mol
DOCKED: USER    
DOCKED: USER    
DOCKED: USER    NEWDPF move ligand.pdbqt
DOCKED: USER    NEWDPF about 1.857000 0.216000 -0.019000
DOCKED: USER    NEWDPF tran0 28.384331 -16.167890 -2.046680
DOCKED: USER    NEWDPF quaternion0 0.292569 -0.140363 0.858155 -0.397833
DOCKED: USER    NEWDPF axisangle0 0.318891 -0.152991 0.935362 -133.114433
DOCKED: USER    NEWDPF quat0 0.318891 -0.152991 0.935362 -133.114433
DOCKED: USER    NEWDPF dihe0 -103.29 -179.93 -19.40 -161.34 57.02 -28.86 -179.45 110.49 95.78 -62.29 
DOCKED: USER  keepresnum = 1 
DOCKED: USER  
DOCKED: REMARK  Name = 
DOCKED: REMARK  12 active torsions:
DOCKED: REMARK  status: ('A' for Active; 'I' for Inactive)
DOCKED: REMARK    1  A    between atoms: C_2  and  O_3
DOCKED: REMARK    2  A    between atoms: O_3  and  C_4
DOCKED: REMARK    3  A    between atoms: C_4  and  C_5
DOCKED: REMARK    4  A    between atoms: C_10  and  C_11
DOCKED: REMARK    5  A    between atoms: C_11  and  N_12
DOCKED: REMARK    6  A    between atoms: N_12  and  C_13
DOCKED: REMARK    7  A    between atoms: N_12  and  C_15
DOCKED: REMARK    8  A    between atoms: C_13  and  C_14
DOCKED: REMARK    9  A    between atoms: C_15  and  C_16
DOCKED: REMARK   10  A    between atoms: N_21  and  C_22
DOCKED: REMARK   11  A    between atoms: C_25  and  C_26
DOCKED: REMARK   12  A    between atoms: N_27  and  O_28
DOCKED: REMARK                            x       y       z     vdW  Elec       q    Type
DOCKED: REMARK                         _______ _______ _______ _____ _____    ______ ____
DOCKED: USER                              x       y       z     vdW  Elec       q    Type
DOCKED: USER                           _______ _______ _______ _____ _____    ______ ____
DOCKED: ROOT
DOCKED: ATOM      1  C   UNL     1      29.553 -16.556  -0.949 -0.23 -0.00    +0.000 C 
DOCKED: ENDROOT
DOCKED: BRANCH   1   2
DOCKED: ATOM      2  C   UNL     1      30.151 -17.081  -2.222 -0.18 -0.00    +0.000 A 
DOCKED: ATOM      3  C   UNL     1      31.222 -17.987  -2.178 -0.14 -0.00    +0.000 A 
DOCKED: ATOM      4  C   UNL     1      31.807 -18.449  -3.361 -0.12 -0.00    +0.000 A 
DOCKED: ATOM      5  C   UNL     1      31.337 -18.001  -4.603 -0.17 -0.00    +0.000 A 
DOCKED: ATOM      6  C   UNL     1      31.919 -18.459  -5.795 -0.14 -0.00    +0.000 A 
DOCKED: ATOM      7  C   UNL     1      31.447 -18.003  -7.036 -0.25 -0.00    +0.000 A 
DOCKED: ATOM      8  C   UNL     1      30.386 -17.085  -7.078 -0.26 -0.00    +0.000 A 
DOCKED: ATOM      9  C   UNL     1      29.802 -16.622  -5.897 -0.29 -0.00    +0.000 A 
DOCKED: ATOM     10  C   UNL     1      30.268 -17.074  -4.654 -0.24 -0.00    +0.000 A 
DOCKED: ATOM     11  C   UNL     1      29.687 -16.616  -3.462 -0.21 -0.00    +0.000 A 
DOCKED: BRANCH   7  12
DOCKED: ATOM     12  C   UNL     1      32.054 -18.506  -8.320 -0.24 -0.00    +0.000 C 
DOCKED: BRANCH  12  13
DOCKED: ATOM     13  N   UNL     1      31.456 -19.807  -8.689 -0.28 -0.00    +0.000 N 
DOCKED: ATOM     14  H   UNL     1      32.214 -20.476  -8.826 +0.00 -0.00    +0.000 HD
DOCKED: BRANCH  13  15
DOCKED: ATOM     15  C   UNL     1      30.752 -19.729  -9.991 -0.41 -0.00    +0.000 C 
DOCKED: ATOM     16  C   UNL     1      31.708 -19.397 -11.136 -0.30 -0.00    +0.000 C 
DOCKED: ENDBRANCH  13  15
DOCKED: BRANCH  13  17
DOCKED: ATOM     17  C   UNL     1      30.639 -20.378  -7.589 -0.40 -0.00    +0.000 C 
DOCKED: ATOM     18  C   UNL     1      31.212 -21.664  -6.978 -0.29 -0.00    +0.000 C 
DOCKED: ENDBRANCH  13  17
DOCKED: ENDBRANCH  12  13
DOCKED: ENDBRANCH   7  12
DOCKED: ENDBRANCH   1   2
DOCKED: BRANCH   1  19
DOCKED: ATOM     19  O   UNL     1      28.402 -15.778  -1.257 -0.24 -0.00    +0.000 OA
DOCKED: BRANCH  19  21
DOCKED: ATOM     20  O   UNL     1      26.549 -15.424   0.071 -0.37 -0.00    +0.000 OA
DOCKED: ATOM     21  C   UNL     1      27.121 -16.117  -0.814 -0.41 -0.00    +0.000 C 
DOCKED: ATOM     22  N   UNL     1      26.487 -17.287  -1.350 -0.48 -0.00    +0.000 N 
DOCKED: ATOM     23  H   UNL     1      27.027 -17.885  -1.915 -0.03 -0.00    +0.000 HD
DOCKED: BRANCH  22  24
DOCKED: ATOM     24  C   UNL     1      25.114 -17.644  -1.116 -0.61 -0.00    +0.000 A 
DOCKED: ATOM     25  C   UNL     1      24.156 -16.632  -0.965 -0.45 -0.00    +0.000 A 
DOCKED: ATOM     26  C   UNL     1      22.819 -16.951  -0.714 -0.51 -0.00    +0.000 A 
DOCKED: ATOM     27  C   UNL     1      22.412 -18.291  -0.602 -0.75 -0.00    +0.000 A 
DOCKED: ATOM     28  C   UNL     1      23.381 -19.305  -0.718 -0.60 -0.00    +0.000 A 
DOCKED: ATOM     29  C   UNL     1      24.718 -18.984  -0.969 -0.17 -0.00    +0.000 A 
DOCKED: BRANCH  27  30
DOCKED: ATOM     30  C   UNL     1      20.989 -18.614  -0.332 -0.69 -0.00    +0.000 C 
DOCKED: ATOM     31  N   UNL     1      20.619 -19.741   0.471 -0.70 -0.00    +0.000 N 
DOCKED: ATOM     32  O   UNL     1      20.083 -17.892  -0.830 -2.03 -0.00    +0.000 OA
DOCKED: ATOM     33  H   UNL     1      21.311 -20.362   0.794 -0.57 -0.00    +0.000 HD
DOCKED: BRANCH  31  34
DOCKED: ATOM     34  O   UNL     1      19.320 -19.957   0.787 -0.78 -0.00    +0.000 OA
DOCKED: ATOM     35  H   UNL     1      18.818 -19.134   0.672 -0.15 -0.00    +0.000 HD
DOCKED: ENDBRANCH  31  34
DOCKED: ENDBRANCH  27  30
DOCKED: ENDBRANCH  22  24
DOCKED: ENDBRANCH  19  21
DOCKED: ENDBRANCH   1  19
DOCKED: TORSDOF 10
DOCKED: TER
DOCKED: ENDMDL
________________________________________________________________________________


	BEGINNING GENETIC ALGORITHM DOCKING 17 of 100
Run: 17 Seed: 886645438 1522366326 [ Run 17 of 100 GA/GALS ]
Beginning LAMARCKIAN GENETIC ALGORITHM (LGA), with a maximum of 2500000 energy evaluations.

Final-Value: -14.444


	FINAL GENETIC ALGORITHM DOCKED STATE
	_______________________________________________


Detailed state:  trans 30.139 -17.806 -0.221 quatxyzw 0.499425 0.620453 0.528542 -0.293695 center 1.857 0.216 -0.019 ntor 10 -50.6092 109.9174 -0.5570 -158.1552 139.3036 178.4410 169.4638 54.4735 35.8489 136.1177
State:	 30.139 -17.806  -0.221   0.522  0.649  0.553 -145.841    -50.61  109.92   -0.56 -158.16  139.30  178.44  169.46   54.47   35.85  136.12

DOCKED: MODEL       17
DOCKED: USER    Run = 17
DOCKED: USER    DPF = ligand_dock.biased.dpf
DOCKED: USER  
DOCKED: USER    Estimated Free Energy of Binding    =   -9.78 kcal/mol  [=(1)+(2)+(3)-(4)]
DOCKED: USER    Estimated Inhibition Constant, Ki   =   68.07 nM (nanomolar)  [Temperature = 298.15 K]
DOCKED: USER    
DOCKED: USER    (1) Final Intermolecular Energy     =  -12.76 kcal/mol
DOCKED: USER        vdW + Hbond + desolv Energy     =  -12.76 kcal/mol
DOCKED: USER        Electrostatic Energy            =   +0.00 kcal/mol
DOCKED: USER    (2) Final Total Internal Energy     =   -1.68 kcal/mol
DOCKED: USER    (3) Torsional Free Energy           =   +2.98 kcal/mol
DOCKED: USER    (4) Unbound System's Energy  [=(2)] =   -1.68 kcal/mol
DOCKED: USER    
DOCKED: USER    
DOCKED: USER    NEWDPF move ligand.pdbqt
DOCKED: USER    NEWDPF about 1.857000 0.216000 -0.019000
DOCKED: USER    NEWDPF tran0 30.138806 -17.806011 -0.220797
DOCKED: USER    NEWDPF quaternion0 0.499425 0.620453 0.528542 -0.293695
DOCKED: USER    NEWDPF axisangle0 0.522466 0.649078 0.552926 -145.841431
DOCKED: USER    NEWDPF quat0 0.522466 0.649078 0.552926 -145.841431
DOCKED: USER    NEWDPF dihe0 -50.61 109.92 -0.56 -158.16 139.30 178.44 169.46 54.47 35.85 136.12 
DOCKED: USER  keepresnum = 1 
DOCKED: USER  
DOCKED: REMARK  Name = 
DOCKED: REMARK  12 active torsions:
DOCKED: REMARK  status: ('A' for Active; 'I' for Inactive)
DOCKED: REMARK    1  A    between atoms: C_2  and  O_3
DOCKED: REMARK    2  A    between atoms: O_3  and  C_4
DOCKED: REMARK    3  A    between atoms: C_4  and  C_5
DOCKED: REMARK    4  A    between atoms: C_10  and  C_11
DOCKED: REMARK    5  A    between atoms: C_11  and  N_12
DOCKED: REMARK    6  A    between atoms: N_12  and  C_13
DOCKED: REMARK    7  A    between atoms: N_12  and  C_15
DOCKED: REMARK    8  A    between atoms: C_13  and  C_14
DOCKED: REMARK    9  A    between atoms: C_15  and  C_16
DOCKED: REMARK   10  A    between atoms: N_21  and  C_22
DOCKED: REMARK   11  A    between atoms: C_25  and  C_26
DOCKED: REMARK   12  A    between atoms: N_27  and  O_28
DOCKED: REMARK                            x       y       z     vdW  Elec       q    Type
DOCKED: REMARK                         _______ _______ _______ _____ _____    ______ ____
DOCKED: USER                              x       y       z     vdW  Elec       q    Type
DOCKED: USER                           _______ _______ _______ _____ _____    ______ ____
DOCKED: ROOT
DOCKED: ATOM      1  C   UNL     1      31.334 -17.369  -1.272 -0.14 -0.00    +0.000 C 
DOCKED: ENDROOT
DOCKED: BRANCH   1   2
DOCKED: ATOM      2  C   UNL     1      31.294 -18.857  -1.464 -0.16 -0.00    +0.000 A 
DOCKED: ATOM      3  C   UNL     1      31.346 -19.404  -2.755 -0.11 -0.00    +0.000 A 
DOCKED: ATOM      4  C   UNL     1      31.271 -20.787  -2.942 -0.04 -0.00    +0.000 A 
DOCKED: ATOM      5  C   UNL     1      31.131 -21.642  -1.840 +0.00 -0.00    +0.000 A 
DOCKED: ATOM      6  C   UNL     1      31.054 -23.032  -2.017 -0.14 -0.00    +0.000 A 
DOCKED: ATOM      7  C   UNL     1      30.908 -23.882  -0.910 -0.19 -0.00    +0.000 A 
DOCKED: ATOM      8  C   UNL     1      30.841 -23.334   0.380 -0.25 -0.00    +0.000 A 
DOCKED: ATOM      9  C   UNL     1      30.914 -21.951   0.567 -0.25 -0.00    +0.000 A 
DOCKED: ATOM     10  C   UNL     1      31.061 -21.096  -0.535 -0.14 -0.00    +0.000 A 
DOCKED: ATOM     11  C   UNL     1      31.137 -19.707  -0.357 -0.16 -0.00    +0.000 A 
DOCKED: BRANCH   7  12
DOCKED: ATOM     12  C   UNL     1      30.845 -25.376  -1.093 -0.24 -0.00    +0.000 C 
DOCKED: BRANCH  12  13
DOCKED: ATOM     13  N   UNL     1      29.571 -25.756  -1.740 -0.32 -0.00    +0.000 N 
DOCKED: ATOM     14  H   UNL     1      29.092 -26.420  -1.131 -0.34 -0.00    +0.000 HD
DOCKED: BRANCH  13  15
DOCKED: ATOM     15  C   UNL     1      29.805 -26.479  -3.012 -0.26 -0.00    +0.000 C 
DOCKED: ATOM     16  C   UNL     1      29.298 -27.920  -2.951 -0.30 -0.00    +0.000 C 
DOCKED: ENDBRANCH  13  15
DOCKED: BRANCH  13  17
DOCKED: ATOM     17  C   UNL     1      28.640 -24.606  -1.855 -0.37 -0.00    +0.000 C 
DOCKED: ATOM     18  C   UNL     1      27.331 -24.924  -2.593 -0.50 -0.00    +0.000 C 
DOCKED: ENDBRANCH  13  17
DOCKED: ENDBRANCH  12  13
DOCKED: ENDBRANCH   7  12
DOCKED: ENDBRANCH   1   2
DOCKED: BRANCH   1  19
DOCKED: ATOM     19  O   UNL     1      30.219 -16.969  -0.482 -0.22 -0.00    +0.000 OA
DOCKED: BRANCH  19  21
DOCKED: ATOM     20  O   UNL     1      28.725 -18.711  -0.713 +0.06 -0.00    +0.000 OA
DOCKED: ATOM     21  C   UNL     1      28.930 -17.466  -0.689 -0.21 -0.00    +0.000 C 
DOCKED: ATOM     22  N   UNL     1      27.855 -16.544  -0.916 -0.34 -0.00    +0.000 N 
DOCKED: ATOM     23  H   UNL     1      28.085 -15.596  -1.048 +0.00 -0.00    +0.000 HD
DOCKED: BRANCH  22  24
DOCKED: ATOM     24  C   UNL     1      26.467 -16.912  -0.963 -0.47 -0.00    +0.000 A 
DOCKED: ATOM     25  C   UNL     1      26.049 -18.098  -0.346 -0.58 -0.00    +0.000 A 
DOCKED: ATOM     26  C   UNL     1      24.709 -18.492  -0.396 -0.60 -0.00    +0.000 A 
DOCKED: ATOM     27  C   UNL     1      23.758 -17.709  -1.072 -0.68 -0.00    +0.000 A 
DOCKED: ATOM     28  C   UNL     1      24.185 -16.536  -1.723 -0.31 -0.00    +0.000 A 
DOCKED: ATOM     29  C   UNL     1      25.527 -16.144  -1.671 -0.49 -0.00    +0.000 A 
DOCKED: BRANCH  27  30
DOCKED: ATOM     30  C   UNL     1      22.340 -18.140  -1.120 -0.72 -0.00    +0.000 C 
DOCKED: ATOM     31  N   UNL     1      21.951 -19.357  -1.769 -0.60 -0.00    +0.000 N 
DOCKED: ATOM     32  O   UNL     1      21.452 -17.417  -0.592 -1.61 -0.00    +0.000 OA
DOCKED: ATOM     33  H   UNL     1      22.620 -19.887  -2.259 -0.48 -0.00    +0.000 HD
DOCKED: BRANCH  31  34
DOCKED: ATOM     34  O   UNL     1      20.666 -19.781  -1.711 -1.55 -0.00    +0.000 OA
DOCKED: ATOM     35  H   UNL     1      20.141 -19.154  -1.187 -0.05 -0.00    +0.000 HD
DOCKED: ENDBRANCH  31  34
DOCKED: ENDBRANCH  27  30
DOCKED: ENDBRANCH  22  24
DOCKED: ENDBRANCH  19  21
DOCKED: ENDBRANCH   1  19
DOCKED: TORSDOF 10
DOCKED: TER
DOCKED: ENDMDL
________________________________________________________________________________


	BEGINNING GENETIC ALGORITHM DOCKING 18 of 100
Run: 18 Seed: 1475808039 151053140 [ Run 18 of 100 GA/GALS ]
Beginning LAMARCKIAN GENETIC ALGORITHM (LGA), with a maximum of 2500000 energy evaluations.

Final-Value: -15.222


	FINAL GENETIC ALGORITHM DOCKED STATE
	_______________________________________________


Detailed state:  trans 28.908 -15.034 -1.828 quatxyzw 0.551682 -0.576494 -0.191679 0.571455 center 1.857 0.216 -0.019 ntor 10 -87.6165 -8.0376 -154.9970 -98.8810 177.4351 137.7004 133.3842 84.9114 -175.1958 -138.1801
State:	 28.908 -15.034  -1.828   0.672 -0.702 -0.234 110.297    -87.62   -8.04 -155.00  -98.88  177.44  137.70  133.38   84.91 -175.20 -138.18

DOCKED: MODEL       18
DOCKED: USER    Run = 18
DOCKED: USER    DPF = ligand_dock.biased.dpf
DOCKED: USER  
DOCKED: USER    Estimated Free Energy of Binding    =  -10.42 kcal/mol  [=(1)+(2)+(3)-(4)]
DOCKED: USER    Estimated Inhibition Constant, Ki   =   22.93 nM (nanomolar)  [Temperature = 298.15 K]
DOCKED: USER    
DOCKED: USER    (1) Final Intermolecular Energy     =  -13.41 kcal/mol
DOCKED: USER        vdW + Hbond + desolv Energy     =  -13.41 kcal/mol
DOCKED: USER        Electrostatic Energy            =   +0.00 kcal/mol
DOCKED: USER    (2) Final Total Internal Energy     =   -1.82 kcal/mol
DOCKED: USER    (3) Torsional Free Energy           =   +2.98 kcal/mol
DOCKED: USER    (4) Unbound System's Energy  [=(2)] =   -1.82 kcal/mol
DOCKED: USER    
DOCKED: USER    
DOCKED: USER    NEWDPF move ligand.pdbqt
DOCKED: USER    NEWDPF about 1.857000 0.216000 -0.019000
DOCKED: USER    NEWDPF tran0 28.907656 -15.033953 -1.827589
DOCKED: USER    NEWDPF quaternion0 0.551682 -0.576494 -0.191679 0.571455
DOCKED: USER    NEWDPF axisangle0 0.672264 -0.702499 -0.233574 110.296566
DOCKED: USER    NEWDPF quat0 0.672264 -0.702499 -0.233574 110.296566
DOCKED: USER    NEWDPF dihe0 -87.62 -8.04 -155.00 -98.88 177.44 137.70 133.38 84.91 -175.20 -138.18 
DOCKED: USER  keepresnum = 1 
DOCKED: USER  
DOCKED: REMARK  Name = 
DOCKED: REMARK  12 active torsions:
DOCKED: REMARK  status: ('A' for Active; 'I' for Inactive)
DOCKED: REMARK    1  A    between atoms: C_2  and  O_3
DOCKED: REMARK    2  A    between atoms: O_3  and  C_4
DOCKED: REMARK    3  A    between atoms: C_4  and  C_5
DOCKED: REMARK    4  A    between atoms: C_10  and  C_11
DOCKED: REMARK    5  A    between atoms: C_11  and  N_12
DOCKED: REMARK    6  A    between atoms: N_12  and  C_13
DOCKED: REMARK    7  A    between atoms: N_12  and  C_15
DOCKED: REMARK    8  A    between atoms: C_13  and  C_14
DOCKED: REMARK    9  A    between atoms: C_15  and  C_16
DOCKED: REMARK   10  A    between atoms: N_21  and  C_22
DOCKED: REMARK   11  A    between atoms: C_25  and  C_26
DOCKED: REMARK   12  A    between atoms: N_27  and  O_28
DOCKED: REMARK                            x       y       z     vdW  Elec       q    Type
DOCKED: REMARK                         _______ _______ _______ _____ _____    ______ ____
DOCKED: USER                              x       y       z     vdW  Elec       q    Type
DOCKED: USER                           _______ _______ _______ _____ _____    ______ ____
DOCKED: ROOT
DOCKED: ATOM      1  C   UNL     1      30.099 -13.892  -1.835 -0.04 -0.00    +0.000 C 
DOCKED: ENDROOT
DOCKED: BRANCH   1   2
DOCKED: ATOM      2  C   UNL     1      29.591 -13.787  -0.426 -0.06 -0.00    +0.000 A 
DOCKED: ATOM      3  C   UNL     1      28.365 -13.157  -0.163 -0.10 -0.00    +0.000 A 
DOCKED: ATOM      4  C   UNL     1      27.906 -13.023   1.151 -0.18 -0.00    +0.000 A 
DOCKED: ATOM      5  C   UNL     1      28.673 -13.506   2.220 -0.20 -0.00    +0.000 A 
DOCKED: ATOM      6  C   UNL     1      28.220 -13.375   3.542 -0.32 -0.00    +0.000 A 
DOCKED: ATOM      7  C   UNL     1      28.995 -13.856   4.609 -0.38 -0.00    +0.000 A 
DOCKED: ATOM      8  C   UNL     1      30.228 -14.473   4.345 -0.30 -0.00    +0.000 A 
DOCKED: ATOM      9  C   UNL     1      30.688 -14.606   3.033 -0.20 -0.00    +0.000 A 
DOCKED: ATOM     10  C   UNL     1      29.918 -14.128   1.963 -0.14 -0.00    +0.000 A 
DOCKED: ATOM     11  C   UNL     1      30.371 -14.259   0.642 -0.09 -0.00    +0.000 A 
DOCKED: BRANCH   7  12
DOCKED: ATOM     12  C   UNL     1      28.505 -13.737   6.028 -0.38 -0.00    +0.000 C 
DOCKED: BRANCH  12  13
DOCKED: ATOM     13  N   UNL     1      29.331 -12.759   6.770 -0.34 -0.00    +0.000 N 
DOCKED: ATOM     14  H   UNL     1      30.284 -13.121   6.817 -0.01 -0.00    +0.000 HD
DOCKED: BRANCH  13  15
DOCKED: ATOM     15  C   UNL     1      28.883 -12.632   8.177 -0.44 -0.00    +0.000 C 
DOCKED: ATOM     16  C   UNL     1      29.383 -13.789   9.041 -0.46 -0.00    +0.000 C 
DOCKED: ENDBRANCH  13  15
DOCKED: BRANCH  13  17
DOCKED: ATOM     17  C   UNL     1      29.448 -11.467   6.050 -0.24 -0.00    +0.000 C 
DOCKED: ATOM     18  C   UNL     1      28.107 -10.778   5.766 -0.38 +0.00    +0.000 C 
DOCKED: ENDBRANCH  13  17
DOCKED: ENDBRANCH  12  13
DOCKED: ENDBRANCH   7  12
DOCKED: ENDBRANCH   1   2
DOCKED: BRANCH   1  19
DOCKED: ATOM     19  O   UNL     1      29.524 -15.037  -2.456 -0.12 -0.00    +0.000 OA
DOCKED: BRANCH  19  21
DOCKED: ATOM     20  O   UNL     1      27.297 -14.854  -3.025 -0.28 -0.00    +0.000 OA
DOCKED: ATOM     21  C   UNL     1      28.181 -15.386  -2.299 -0.24 -0.00    +0.000 C 
DOCKED: ATOM     22  N   UNL     1      27.819 -16.322  -1.275 -0.31 -0.00    +0.000 N 
DOCKED: ATOM     23  H   UNL     1      28.514 -16.589  -0.631 -0.02 -0.00    +0.000 HD
DOCKED: BRANCH  22  24
DOCKED: ATOM     24  C   UNL     1      26.510 -16.897  -1.127 -0.46 -0.00    +0.000 A 
DOCKED: ATOM     25  C   UNL     1      25.429 -16.333  -1.818 -0.51 -0.00    +0.000 A 
DOCKED: ATOM     26  C   UNL     1      24.142 -16.857  -1.675 -0.46 -0.00    +0.000 A 
DOCKED: ATOM     27  C   UNL     1      23.907 -17.956  -0.830 -0.70 -0.00    +0.000 A 
DOCKED: ATOM     28  C   UNL     1      24.987 -18.499  -0.109 -0.49 -0.00    +0.000 A 
DOCKED: ATOM     29  C   UNL     1      26.274 -17.973  -0.254 -0.56 -0.00    +0.000 A 
DOCKED: BRANCH  27  30
DOCKED: ATOM     30  C   UNL     1      22.535 -18.500  -0.685 -0.84 -0.00    +0.000 C 
DOCKED: ATOM     31  N   UNL     1      21.379 -17.686  -0.921 -0.68 -0.00    +0.000 N 
DOCKED: ATOM     32  O   UNL     1      22.377 -19.701  -0.333 -0.74 -0.00    +0.000 OA
DOCKED: ATOM     33  H   UNL     1      21.487 -16.727  -1.112 -0.07 -0.00    +0.000 HD
DOCKED: BRANCH  31  34
DOCKED: ATOM     34  O   UNL     1      20.141 -18.232  -0.882 -2.04 -0.00    +0.000 OA
DOCKED: ATOM     35  H   UNL     1      19.535 -17.699  -1.422 -0.62 -0.00    +0.000 HD
DOCKED: ENDBRANCH  31  34
DOCKED: ENDBRANCH  27  30
DOCKED: ENDBRANCH  22  24
DOCKED: ENDBRANCH  19  21
DOCKED: ENDBRANCH   1  19
DOCKED: TORSDOF 10
DOCKED: TER
DOCKED: ENDMDL
________________________________________________________________________________


	BEGINNING GENETIC ALGORITHM DOCKING 19 of 100
Run: 19 Seed: 771597254 2141701881 [ Run 19 of 100 GA/GALS ]
Beginning LAMARCKIAN GENETIC ALGORITHM (LGA), with a maximum of 2500000 energy evaluations.

Final-Value: -17.087


	FINAL GENETIC ALGORITHM DOCKED STATE
	_______________________________________________


Detailed state:  trans 27.632 -16.121 0.357 quatxyzw 0.723631 -0.500113 -0.399722 0.257813 center 1.857 0.216 -0.019 ntor 10 180.0000 -179.7864 11.9392 -86.9172 -81.3623 159.9084 93.4216 -128.9420 151.2095 -96.5623
State:	 27.632 -16.121   0.357   0.749 -0.518 -0.414 150.119    180.00 -179.79   11.94  -86.92  -81.36  159.91   93.42 -128.94  151.21  -96.56

DOCKED: MODEL       19
DOCKED: USER    Run = 19
DOCKED: USER    DPF = ligand_dock.biased.dpf
DOCKED: USER  
DOCKED: USER    Estimated Free Energy of Binding    =  -11.92 kcal/mol  [=(1)+(2)+(3)-(4)]
DOCKED: USER    Estimated Inhibition Constant, Ki   =    1.84 nM (nanomolar)  [Temperature = 298.15 K]
DOCKED: USER    
DOCKED: USER    (1) Final Intermolecular Energy     =  -14.90 kcal/mol
DOCKED: USER        vdW + Hbond + desolv Energy     =  -14.90 kcal/mol
DOCKED: USER        Electrostatic Energy            =   +0.00 kcal/mol
DOCKED: USER    (2) Final Total Internal Energy     =   -2.19 kcal/mol
DOCKED: USER    (3) Torsional Free Energy           =   +2.98 kcal/mol
DOCKED: USER    (4) Unbound System's Energy  [=(2)] =   -2.19 kcal/mol
DOCKED: USER    
DOCKED: USER    
DOCKED: USER    NEWDPF move ligand.pdbqt
DOCKED: USER    NEWDPF about 1.857000 0.216000 -0.019000
DOCKED: USER    NEWDPF tran0 27.632120 -16.121157 0.357102
DOCKED: USER    NEWDPF quaternion0 0.723631 -0.500113 -0.399722 0.257813
DOCKED: USER    NEWDPF axisangle0 0.748949 -0.517611 -0.413708 150.119331
DOCKED: USER    NEWDPF quat0 0.748949 -0.517611 -0.413708 150.119331
DOCKED: USER    NEWDPF dihe0 180.00 -179.79 11.94 -86.92 -81.36 159.91 93.42 -128.94 151.21 -96.56 
DOCKED: USER  keepresnum = 1 
DOCKED: USER  
DOCKED: REMARK  Name = 
DOCKED: REMARK  12 active torsions:
DOCKED: REMARK  status: ('A' for Active; 'I' for Inactive)
DOCKED: REMARK    1  A    between atoms: C_2  and  O_3
DOCKED: REMARK    2  A    between atoms: O_3  and  C_4
DOCKED: REMARK    3  A    between atoms: C_4  and  C_5
DOCKED: REMARK    4  A    between atoms: C_10  and  C_11
DOCKED: REMARK    5  A    between atoms: C_11  and  N_12
DOCKED: REMARK    6  A    between atoms: N_12  and  C_13
DOCKED: REMARK    7  A    between atoms: N_12  and  C_15
DOCKED: REMARK    8  A    between atoms: C_13  and  C_14
DOCKED: REMARK    9  A    between atoms: C_15  and  C_16
DOCKED: REMARK   10  A    between atoms: N_21  and  C_22
DOCKED: REMARK   11  A    between atoms: C_25  and  C_26
DOCKED: REMARK   12  A    between atoms: N_27  and  O_28
DOCKED: REMARK                            x       y       z     vdW  Elec       q    Type
DOCKED: REMARK                         _______ _______ _______ _____ _____    ______ ____
DOCKED: USER                              x       y       z     vdW  Elec       q    Type
DOCKED: USER                           _______ _______ _______ _____ _____    ______ ____
DOCKED: ROOT
DOCKED: ATOM      1  C   UNL     1      27.728 -14.635  -0.353 -0.25 -0.00    +0.000 C 
DOCKED: ENDROOT
DOCKED: BRANCH   1   2
DOCKED: ATOM      2  C   UNL     1      27.744 -14.273   1.104 -0.25 -0.00    +0.000 A 
DOCKED: ATOM      3  C   UNL     1      26.627 -13.658   1.690 -0.05 -0.00    +0.000 A 
DOCKED: ATOM      4  C   UNL     1      26.652 -13.284   3.037 -0.08 -0.00    +0.000 A 
DOCKED: ATOM      5  C   UNL     1      27.798 -13.509   3.812 -0.41 -0.00    +0.000 A 
DOCKED: ATOM      6  C   UNL     1      27.832 -13.137   5.165 -0.44 -0.00    +0.000 A 
DOCKED: ATOM      7  C   UNL     1      28.985 -13.360   5.934 -0.38 -0.00    +0.000 A 
DOCKED: ATOM      8  C   UNL     1      30.107 -13.961   5.342 -0.28 -0.00    +0.000 A 
DOCKED: ATOM      9  C   UNL     1      30.083 -14.334   3.996 -0.29 -0.00    +0.000 A 
DOCKED: ATOM     10  C   UNL     1      28.934 -14.114   3.222 -0.29 -0.00    +0.000 A 
DOCKED: ATOM     11  C   UNL     1      28.901 -14.486   1.870 -0.13 -0.00    +0.000 A 
DOCKED: BRANCH   7  12
DOCKED: ATOM     12  C   UNL     1      29.020 -12.980   7.391 -0.42 -0.00    +0.000 C 
DOCKED: BRANCH  12  13
DOCKED: ATOM     13  N   UNL     1      29.472 -11.580   7.541 -0.29 -0.00    +0.000 N 
DOCKED: ATOM     14  H   UNL     1      30.344 -11.471   7.022 +0.01 -0.00    +0.000 HD
DOCKED: BRANCH  13  15
DOCKED: ATOM     15  C   UNL     1      29.807 -11.269   8.951 -0.28 -0.00    +0.000 C 
DOCKED: ATOM     16  C   UNL     1      29.288 -12.340   9.910 -0.37 -0.00    +0.000 C 
DOCKED: ENDBRANCH  13  15
DOCKED: BRANCH  13  17
DOCKED: ATOM     17  C   UNL     1      28.531 -10.620   6.913 -0.31 +0.00    +0.000 C 
DOCKED: ATOM     18  C   UNL     1      29.100  -9.885   5.691 -0.23 +0.00    +0.000 C 
DOCKED: ENDBRANCH  13  17
DOCKED: ENDBRANCH  12  13
DOCKED: ENDBRANCH   7  12
DOCKED: ENDBRANCH   1   2
DOCKED: BRANCH   1  19
DOCKED: ATOM     19  O   UNL     1      27.869 -16.045  -0.488 -0.33 -0.00    +0.000 OA
DOCKED: BRANCH  19  21
DOCKED: ATOM     20  O   UNL     1      26.857 -17.931   0.373 -0.58 -0.00    +0.000 OA
DOCKED: ATOM     21  C   UNL     1      26.789 -16.925  -0.385 -0.51 -0.00    +0.000 C 
DOCKED: ATOM     22  N   UNL     1      25.621 -16.689  -1.184 -0.51 -0.00    +0.000 N 
DOCKED: ATOM     23  H   UNL     1      25.671 -15.990  -1.875 -0.01 -0.00    +0.000 HD
DOCKED: BRANCH  22  24
DOCKED: ATOM     24  C   UNL     1      24.383 -17.407  -1.042 -0.64 -0.00    +0.000 A 
DOCKED: ATOM     25  C   UNL     1      24.390 -18.807  -1.100 -0.49 -0.00    +0.000 A 
DOCKED: ATOM     26  C   UNL     1      23.198 -19.528  -0.987 -0.49 -0.00    +0.000 A 
DOCKED: ATOM     27  C   UNL     1      21.971 -18.862  -0.821 -0.75 -0.00    +0.000 A 
DOCKED: ATOM     28  C   UNL     1      21.962 -17.455  -0.799 -0.56 -0.00    +0.000 A 
DOCKED: ATOM     29  C   UNL     1      23.156 -16.735  -0.912 -0.35 -0.00    +0.000 A 
DOCKED: BRANCH  27  30
DOCKED: ATOM     30  C   UNL     1      20.714 -19.641  -0.707 -0.86 -0.00    +0.000 C 
DOCKED: ATOM     31  N   UNL     1      20.368 -20.328   0.503 -0.67 -0.00    +0.000 N 
DOCKED: ATOM     32  O   UNL     1      19.936 -19.713  -1.696 -1.80 -0.00    +0.000 OA
DOCKED: ATOM     33  H   UNL     1      21.006 -20.351   1.252 -0.56 -0.00    +0.000 HD
DOCKED: BRANCH  31  34
DOCKED: ATOM     34  O   UNL     1      19.169 -20.946   0.617 -0.77 -0.00    +0.000 OA
DOCKED: ATOM     35  H   UNL     1      18.745 -20.994  -0.255 -0.28 -0.00    +0.000 HD
DOCKED: ENDBRANCH  31  34
DOCKED: ENDBRANCH  27  30
DOCKED: ENDBRANCH  22  24
DOCKED: ENDBRANCH  19  21
DOCKED: ENDBRANCH   1  19
DOCKED: TORSDOF 10
DOCKED: TER
DOCKED: ENDMDL
________________________________________________________________________________


	BEGINNING GENETIC ALGORITHM DOCKING 20 of 100
Run: 20 Seed: 2075344080 714195748 [ Run 20 of 100 GA/GALS ]
Beginning LAMARCKIAN GENETIC ALGORITHM (LGA), with a maximum of 2500000 energy evaluations.

Final-Value: -14.849


	FINAL GENETIC ALGORITHM DOCKED STATE
	_______________________________________________


Detailed state:  trans 30.532 -17.099 -1.114 quatxyzw -0.628823 -0.370363 -0.664638 -0.160217 center 1.857 0.216 -0.019 ntor 10 -159.6347 43.6118 -162.2476 -55.6205 -1.9427 5.6545 173.3465 105.4200 28.8931 139.2971
State:	 30.532 -17.099  -1.114  -0.637 -0.375 -0.673 -161.561   -159.63   43.61 -162.25  -55.62   -1.94    5.65  173.35  105.42   28.89  139.30

DOCKED: MODEL       20
DOCKED: USER    Run = 20
DOCKED: USER    DPF = ligand_dock.biased.dpf
DOCKED: USER  
DOCKED: USER    Estimated Free Energy of Binding    =  -10.07 kcal/mol  [=(1)+(2)+(3)-(4)]
DOCKED: USER    Estimated Inhibition Constant, Ki   =   41.35 nM (nanomolar)  [Temperature = 298.15 K]
DOCKED: USER    
DOCKED: USER    (1) Final Intermolecular Energy     =  -13.06 kcal/mol
DOCKED: USER        vdW + Hbond + desolv Energy     =  -13.06 kcal/mol
DOCKED: USER        Electrostatic Energy            =   +0.00 kcal/mol
DOCKED: USER    (2) Final Total Internal Energy     =   -1.79 kcal/mol
DOCKED: USER    (3) Torsional Free Energy           =   +2.98 kcal/mol
DOCKED: USER    (4) Unbound System's Energy  [=(2)] =   -1.79 kcal/mol
DOCKED: USER    
DOCKED: USER    
DOCKED: USER    NEWDPF move ligand.pdbqt
DOCKED: USER    NEWDPF about 1.857000 0.216000 -0.019000
DOCKED: USER    NEWDPF tran0 30.531539 -17.099484 -1.114277
DOCKED: USER    NEWDPF quaternion0 -0.628823 -0.370363 -0.664638 -0.160217
DOCKED: USER    NEWDPF axisangle0 -0.637053 -0.375210 -0.673336 -161.561056
DOCKED: USER    NEWDPF quat0 -0.637053 -0.375210 -0.673336 -161.561056
DOCKED: USER    NEWDPF dihe0 -159.63 43.61 -162.25 -55.62 -1.94 5.65 173.35 105.42 28.89 139.30 
DOCKED: USER  keepresnum = 1 
DOCKED: USER  
DOCKED: REMARK  Name = 
DOCKED: REMARK  12 active torsions:
DOCKED: REMARK  status: ('A' for Active; 'I' for Inactive)
DOCKED: REMARK    1  A    between atoms: C_2  and  O_3
DOCKED: REMARK    2  A    between atoms: O_3  and  C_4
DOCKED: REMARK    3  A    between atoms: C_4  and  C_5
DOCKED: REMARK    4  A    between atoms: C_10  and  C_11
DOCKED: REMARK    5  A    between atoms: C_11  and  N_12
DOCKED: REMARK    6  A    between atoms: N_12  and  C_13
DOCKED: REMARK    7  A    between atoms: N_12  and  C_15
DOCKED: REMARK    8  A    between atoms: C_13  and  C_14
DOCKED: REMARK    9  A    between atoms: C_15  and  C_16
DOCKED: REMARK   10  A    between atoms: N_21  and  C_22
DOCKED: REMARK   11  A    between atoms: C_25  and  C_26
DOCKED: REMARK   12  A    between atoms: N_27  and  O_28
DOCKED: REMARK                            x       y       z     vdW  Elec       q    Type
DOCKED: REMARK                         _______ _______ _______ _____ _____    ______ ____
DOCKED: USER                              x       y       z     vdW  Elec       q    Type
DOCKED: USER                           _______ _______ _______ _____ _____    ______ ____
DOCKED: ROOT
DOCKED: ATOM      1  C   UNL     1      31.194 -15.654  -1.553 -0.06 -0.00    +0.000 C 
DOCKED: ENDROOT
DOCKED: BRANCH   1   2
DOCKED: ATOM      2  C   UNL     1      30.966 -16.298  -2.890 -0.09 -0.00    +0.000 A 
DOCKED: ATOM      3  C   UNL     1      30.291 -15.601  -3.903 -0.12 -0.00    +0.000 A 
DOCKED: ATOM      4  C   UNL     1      30.043 -16.210  -5.137 -0.25 -0.00    +0.000 A 
DOCKED: ATOM      5  C   UNL     1      30.456 -17.529  -5.369 -0.28 -0.00    +0.000 A 
DOCKED: ATOM      6  C   UNL     1      30.211 -18.149  -6.604 -0.20 -0.00    +0.000 A 
DOCKED: ATOM      7  C   UNL     1      30.622 -19.472  -6.828 -0.39 -0.00    +0.000 A 
DOCKED: ATOM      8  C   UNL     1      31.284 -20.173  -5.809 -0.27 -0.00    +0.000 A 
DOCKED: ATOM      9  C   UNL     1      31.531 -19.566  -4.575 -0.18 -0.00    +0.000 A 
DOCKED: ATOM     10  C   UNL     1      31.123 -18.244  -4.345 -0.19 -0.00    +0.000 A 
DOCKED: ATOM     11  C   UNL     1      31.368 -17.624  -3.111 -0.12 -0.00    +0.000 A 
DOCKED: BRANCH   7  12
DOCKED: ATOM     12  C   UNL     1      30.379 -20.136  -8.159 -0.31 -0.00    +0.000 C 
DOCKED: BRANCH  12  13
DOCKED: ATOM     13  N   UNL     1      31.668 -20.478  -8.798 -0.23 -0.00    +0.000 N 
DOCKED: ATOM     14  H   UNL     1      32.395 -19.900  -8.377 +0.00 -0.00    +0.000 HD
DOCKED: BRANCH  13  15
DOCKED: ATOM     15  C   UNL     1      31.666 -20.129 -10.239 -0.28 -0.00    +0.000 C 
DOCKED: ATOM     16  C   UNL     1      30.403 -19.365 -10.638 -0.40 -0.00    +0.000 C 
DOCKED: ENDBRANCH  13  15
DOCKED: BRANCH  13  17
DOCKED: ATOM     17  C   UNL     1      32.079 -21.875  -8.512 -0.19 -0.00    +0.000 C 
DOCKED: ATOM     18  C   UNL     1      32.017 -22.813  -9.726 -0.18 -0.00    +0.000 C 
DOCKED: ENDBRANCH  13  17
DOCKED: ENDBRANCH  12  13
DOCKED: ENDBRANCH   7  12
DOCKED: ENDBRANCH   1   2
DOCKED: BRANCH   1  19
DOCKED: ATOM     19  O   UNL     1      30.555 -16.428  -0.544 -0.17 -0.00    +0.000 OA
DOCKED: BRANCH  19  21
DOCKED: ATOM     20  O   UNL     1      29.183 -18.242  -0.935 -0.30 -0.00    +0.000 OA
DOCKED: ATOM     21  C   UNL     1      29.294 -17.003  -0.721 -0.26 -0.00    +0.000 C 
DOCKED: ATOM     22  N   UNL     1      28.134 -16.159  -0.698 -0.29 -0.00    +0.000 N 
DOCKED: ATOM     23  H   UNL     1      28.276 -15.185  -0.688 +0.00 -0.00    +0.000 HD
DOCKED: BRANCH  22  24
DOCKED: ATOM     24  C   UNL     1      26.780 -16.642  -0.686 -0.43 -0.00    +0.000 A 
DOCKED: ATOM     25  C   UNL     1      26.508 -17.914  -0.167 -0.53 -0.00    +0.000 A 
DOCKED: ATOM     26  C   UNL     1      25.204 -18.417  -0.164 -0.54 -0.00    +0.000 A 
DOCKED: ATOM     27  C   UNL     1      24.144 -17.659  -0.690 -0.67 -0.00    +0.000 A 
DOCKED: ATOM     28  C   UNL     1      24.424 -16.396  -1.244 -0.43 -0.00    +0.000 A 
DOCKED: ATOM     29  C   UNL     1      25.729 -15.895  -1.245 -0.44 -0.00    +0.000 A 
DOCKED: BRANCH  27  30
DOCKED: ATOM     30  C   UNL     1      22.765 -18.206  -0.684 -0.84 -0.00    +0.000 C 
DOCKED: ATOM     31  N   UNL     1      21.620 -17.346  -0.707 -0.71 -0.00    +0.000 N 
DOCKED: ATOM     32  O   UNL     1      22.593 -19.455  -0.644 -0.81 -0.00    +0.000 OA
DOCKED: ATOM     33  H   UNL     1      21.738 -16.371  -0.651 -0.06 -0.00    +0.000 HD
DOCKED: BRANCH  31  34
DOCKED: ATOM     34  O   UNL     1      20.375 -17.870  -0.803 -2.24 -0.00    +0.000 OA
DOCKED: ATOM     35  H   UNL     1      19.753 -17.179  -1.083 -0.61 -0.00    +0.000 HD
DOCKED: ENDBRANCH  31  34
DOCKED: ENDBRANCH  27  30
DOCKED: ENDBRANCH  22  24
DOCKED: ENDBRANCH  19  21
DOCKED: ENDBRANCH   1  19
DOCKED: TORSDOF 10
DOCKED: TER
DOCKED: ENDMDL
________________________________________________________________________________


	BEGINNING GENETIC ALGORITHM DOCKING 21 of 100
Run: 21 Seed: 245077731 654922079 [ Run 21 of 100 GA/GALS ]
Beginning LAMARCKIAN GENETIC ALGORITHM (LGA), with a maximum of 2500000 energy evaluations.

Final-Value: -15.438


	FINAL GENETIC ALGORITHM DOCKED STATE
	_______________________________________________


Detailed state:  trans 27.479 -16.226 -0.947 quatxyzw -0.523312 0.252212 -0.778028 0.239178 center 1.857 0.216 -0.019 ntor 10 -116.1532 -166.4180 -13.8884 179.8946 148.7239 -18.8632 -115.8714 70.9729 -109.7388 -87.4241
State:	 27.479 -16.226  -0.947  -0.539  0.260 -0.801 152.324   -116.15 -166.42  -13.89  179.89  148.72  -18.86 -115.87   70.97 -109.74  -87.42

DOCKED: MODEL       21
DOCKED: USER    Run = 21
DOCKED: USER    DPF = ligand_dock.biased.dpf
DOCKED: USER  
DOCKED: USER    Estimated Free Energy of Binding    =  -10.38 kcal/mol  [=(1)+(2)+(3)-(4)]
DOCKED: USER    Estimated Inhibition Constant, Ki   =   24.66 nM (nanomolar)  [Temperature = 298.15 K]
DOCKED: USER    
DOCKED: USER    (1) Final Intermolecular Energy     =  -13.36 kcal/mol
DOCKED: USER        vdW + Hbond + desolv Energy     =  -13.36 kcal/mol
DOCKED: USER        Electrostatic Energy            =   +0.00 kcal/mol
DOCKED: USER    (2) Final Total Internal Energy     =   -2.08 kcal/mol
DOCKED: USER    (3) Torsional Free Energy           =   +2.98 kcal/mol
DOCKED: USER    (4) Unbound System's Energy  [=(2)] =   -2.08 kcal/mol
DOCKED: USER    
DOCKED: USER    
DOCKED: USER    NEWDPF move ligand.pdbqt
DOCKED: USER    NEWDPF about 1.857000 0.216000 -0.019000
DOCKED: USER    NEWDPF tran0 27.478946 -16.226317 -0.947139
DOCKED: USER    NEWDPF quaternion0 -0.523312 0.252212 -0.778028 0.239178
DOCKED: USER    NEWDPF axisangle0 -0.538955 0.259751 -0.801285 152.323931
DOCKED: USER    NEWDPF quat0 -0.538955 0.259751 -0.801285 152.323931
DOCKED: USER    NEWDPF dihe0 -116.15 -166.42 -13.89 179.89 148.72 -18.86 -115.87 70.97 -109.74 -87.42 
DOCKED: USER  keepresnum = 1 
DOCKED: USER  
DOCKED: REMARK  Name = 
DOCKED: REMARK  12 active torsions:
DOCKED: REMARK  status: ('A' for Active; 'I' for Inactive)
DOCKED: REMARK    1  A    between atoms: C_2  and  O_3
DOCKED: REMARK    2  A    between atoms: O_3  and  C_4
DOCKED: REMARK    3  A    between atoms: C_4  and  C_5
DOCKED: REMARK    4  A    between atoms: C_10  and  C_11
DOCKED: REMARK    5  A    between atoms: C_11  and  N_12
DOCKED: REMARK    6  A    between atoms: N_12  and  C_13
DOCKED: REMARK    7  A    between atoms: N_12  and  C_15
DOCKED: REMARK    8  A    between atoms: C_13  and  C_14
DOCKED: REMARK    9  A    between atoms: C_15  and  C_16
DOCKED: REMARK   10  A    between atoms: N_21  and  C_22
DOCKED: REMARK   11  A    between atoms: C_25  and  C_26
DOCKED: REMARK   12  A    between atoms: N_27  and  O_28
DOCKED: REMARK                            x       y       z     vdW  Elec       q    Type
DOCKED: REMARK                         _______ _______ _______ _____ _____    ______ ____
DOCKED: USER                              x       y       z     vdW  Elec       q    Type
DOCKED: USER                           _______ _______ _______ _____ _____    ______ ____
DOCKED: ROOT
DOCKED: ATOM      1  C   UNL     1      28.993 -16.717  -0.512 -0.25 -0.00    +0.000 C 
DOCKED: ENDROOT
DOCKED: BRANCH   1   2
DOCKED: ATOM      2  C   UNL     1      29.174 -16.450  -1.978 -0.21 -0.00    +0.000 A 
DOCKED: ATOM      3  C   UNL     1      28.059 -16.194  -2.792 -0.24 -0.00    +0.000 A 
DOCKED: ATOM      4  C   UNL     1      28.219 -15.982  -4.164 -0.19 -0.00    +0.000 A 
DOCKED: ATOM      5  C   UNL     1      29.493 -16.037  -4.744 -0.26 -0.00    +0.000 A 
DOCKED: ATOM      6  C   UNL     1      29.663 -15.827  -6.121 -0.32 -0.00    +0.000 A 
DOCKED: ATOM      7  C   UNL     1      30.942 -15.888  -6.697 -0.24 -0.00    +0.000 A 
DOCKED: ATOM      8  C   UNL     1      32.054 -16.159  -5.885 -0.08 -0.00    +0.000 A 
DOCKED: ATOM      9  C   UNL     1      31.895 -16.372  -4.513 -0.06 -0.00    +0.000 A 
DOCKED: ATOM     10  C   UNL     1      30.620 -16.312  -3.932 -0.14 -0.00    +0.000 A 
DOCKED: ATOM     11  C   UNL     1      30.451 -16.522  -2.556 -0.13 -0.00    +0.000 A 
DOCKED: BRANCH   7  12
DOCKED: ATOM     12  C   UNL     1      31.132 -15.643  -8.171 -0.14 -0.00    +0.000 C 
DOCKED: BRANCH  12  13
DOCKED: ATOM     13  N   UNL     1      31.433 -14.216  -8.415 -0.15 -0.00    +0.000 N 
DOCKED: ATOM     14  H   UNL     1      31.001 -13.947  -9.299 -0.38 -0.00    +0.000 HD
DOCKED: BRANCH  13  15
DOCKED: ATOM     15  C   UNL     1      32.887 -13.994  -8.598 -0.11 -0.00    +0.000 C 
DOCKED: ATOM     16  C   UNL     1      33.486 -14.958  -9.623 -0.13 -0.00    +0.000 C 
DOCKED: ENDBRANCH  13  15
DOCKED: BRANCH  13  17
DOCKED: ATOM     17  C   UNL     1      30.807 -13.332  -7.400 -0.16 -0.00    +0.000 C 
DOCKED: ATOM     18  C   UNL     1      29.504 -12.664  -7.862 -0.22 -0.00    +0.000 C 
DOCKED: ENDBRANCH  13  17
DOCKED: ENDBRANCH  12  13
DOCKED: ENDBRANCH   7  12
DOCKED: ENDBRANCH   1   2
DOCKED: BRANCH   1  19
DOCKED: ATOM     19  O   UNL     1      27.720 -16.230  -0.100 -0.38 -0.00    +0.000 OA
DOCKED: BRANCH  19  21
DOCKED: ATOM     20  O   UNL     1      26.465 -17.958   0.770 -0.55 -0.00    +0.000 OA
DOCKED: ATOM     21  C   UNL     1      26.577 -17.032  -0.079 -0.48 -0.00    +0.000 C 
DOCKED: ATOM     22  N   UNL     1      25.555 -16.815  -1.062 -0.53 -0.00    +0.000 N 
DOCKED: ATOM     23  H   UNL     1      25.753 -16.194  -1.800 -0.01 -0.00    +0.000 HD
DOCKED: BRANCH  22  24
DOCKED: ATOM     24  C   UNL     1      24.262 -17.444  -1.041 -0.65 -0.00    +0.000 A 
DOCKED: ATOM     25  C   UNL     1      23.173 -16.757  -0.490 -0.29 -0.00    +0.000 A 
DOCKED: ATOM     26  C   UNL     1      21.910 -17.353  -0.437 -0.57 -0.00    +0.000 A 
DOCKED: ATOM     27  C   UNL     1      21.712 -18.655  -0.928 -0.74 -0.00    +0.000 A 
DOCKED: ATOM     28  C   UNL     1      22.815 -19.357  -1.448 -0.55 -0.00    +0.000 A 
DOCKED: ATOM     29  C   UNL     1      24.078 -18.759  -1.501 -0.42 -0.00    +0.000 A 
DOCKED: BRANCH  27  30
DOCKED: ATOM     30  C   UNL     1      20.368 -19.277  -0.862 -0.90 -0.00    +0.000 C 
DOCKED: ATOM     31  N   UNL     1      19.644 -19.362   0.372 -0.71 -0.00    +0.000 N 
DOCKED: ATOM     32  O   UNL     1      19.852 -19.755  -1.908 -1.86 -0.00    +0.000 OA
DOCKED: ATOM     33  H   UNL     1      20.070 -19.071   1.211 -0.20 -0.00    +0.000 HD
DOCKED: BRANCH  31  34
DOCKED: ATOM     34  O   UNL     1      18.378 -19.841   0.389 -0.75 -0.00    +0.000 OA
DOCKED: ATOM     35  H   UNL     1      18.031 -19.874  -0.517 -0.35 -0.00    +0.000 HD
DOCKED: ENDBRANCH  31  34
DOCKED: ENDBRANCH  27  30
DOCKED: ENDBRANCH  22  24
DOCKED: ENDBRANCH  19  21
DOCKED: ENDBRANCH   1  19
DOCKED: TORSDOF 10
DOCKED: TER
DOCKED: ENDMDL
________________________________________________________________________________


	BEGINNING GENETIC ALGORITHM DOCKING 22 of 100
Run: 22 Seed: 2095647323 250722503 [ Run 22 of 100 GA/GALS ]
Beginning LAMARCKIAN GENETIC ALGORITHM (LGA), with a maximum of 2500000 energy evaluations.

Final-Value: -16.823


	FINAL GENETIC ALGORITHM DOCKED STATE
	_______________________________________________


Detailed state:  trans 27.110 -15.472 -1.273 quatxyzw 0.749973 -0.526962 0.394749 -0.063439 center 1.857 0.216 -0.019 ntor 10 -168.0758 -139.6131 8.7239 -33.1305 -50.2548 136.5280 90.4948 90.5322 14.3802 -73.5300
State:	 27.110 -15.472  -1.273   0.751 -0.528  0.396 -172.726   -168.08 -139.61    8.72  -33.13  -50.25  136.53   90.49   90.53   14.38  -73.53

DOCKED: MODEL       22
DOCKED: USER    Run = 22
DOCKED: USER    DPF = ligand_dock.biased.dpf
DOCKED: USER  
DOCKED: USER    Estimated Free Energy of Binding    =  -11.58 kcal/mol  [=(1)+(2)+(3)-(4)]
DOCKED: USER    Estimated Inhibition Constant, Ki   =    3.25 nM (nanomolar)  [Temperature = 298.15 K]
DOCKED: USER    
DOCKED: USER    (1) Final Intermolecular Energy     =  -14.56 kcal/mol
DOCKED: USER        vdW + Hbond + desolv Energy     =  -14.56 kcal/mol
DOCKED: USER        Electrostatic Energy            =   +0.00 kcal/mol
DOCKED: USER    (2) Final Total Internal Energy     =   -2.26 kcal/mol
DOCKED: USER    (3) Torsional Free Energy           =   +2.98 kcal/mol
DOCKED: USER    (4) Unbound System's Energy  [=(2)] =   -2.26 kcal/mol
DOCKED: USER    
DOCKED: USER    
DOCKED: USER    NEWDPF move ligand.pdbqt
DOCKED: USER    NEWDPF about 1.857000 0.216000 -0.019000
DOCKED: USER    NEWDPF tran0 27.110320 -15.471834 -1.272709
DOCKED: USER    NEWDPF quaternion0 0.749973 -0.526962 0.394749 -0.063439
DOCKED: USER    NEWDPF axisangle0 0.751487 -0.528026 0.395545 -172.725568
DOCKED: USER    NEWDPF quat0 0.751487 -0.528026 0.395545 -172.725568
DOCKED: USER    NEWDPF dihe0 -168.08 -139.61 8.72 -33.13 -50.25 136.53 90.49 90.53 14.38 -73.53 
DOCKED: USER  keepresnum = 1 
DOCKED: USER  
DOCKED: REMARK  Name = 
DOCKED: REMARK  12 active torsions:
DOCKED: REMARK  status: ('A' for Active; 'I' for Inactive)
DOCKED: REMARK    1  A    between atoms: C_2  and  O_3
DOCKED: REMARK    2  A    between atoms: O_3  and  C_4
DOCKED: REMARK    3  A    between atoms: C_4  and  C_5
DOCKED: REMARK    4  A    between atoms: C_10  and  C_11
DOCKED: REMARK    5  A    between atoms: C_11  and  N_12
DOCKED: REMARK    6  A    between atoms: N_12  and  C_13
DOCKED: REMARK    7  A    between atoms: N_12  and  C_15
DOCKED: REMARK    8  A    between atoms: C_13  and  C_14
DOCKED: REMARK    9  A    between atoms: C_15  and  C_16
DOCKED: REMARK   10  A    between atoms: N_21  and  C_22
DOCKED: REMARK   11  A    between atoms: C_25  and  C_26
DOCKED: REMARK   12  A    between atoms: N_27  and  O_28
DOCKED: REMARK                            x       y       z     vdW  Elec       q    Type
DOCKED: REMARK                         _______ _______ _______ _____ _____    ______ ____
DOCKED: USER                              x       y       z     vdW  Elec       q    Type
DOCKED: USER                           _______ _______ _______ _____ _____    ______ ____
DOCKED: ROOT
DOCKED: ATOM      1  C   UNL     1      28.430 -15.840  -2.192 -0.25 -0.00    +0.000 C 
DOCKED: ENDROOT
DOCKED: BRANCH   1   2
DOCKED: ATOM      2  C   UNL     1      28.060 -14.487  -2.726 -0.16 -0.00    +0.000 A 
DOCKED: ATOM      3  C   UNL     1      28.928 -13.398  -2.552 -0.07 -0.00    +0.000 A 
DOCKED: ATOM      4  C   UNL     1      28.572 -12.128  -3.014 -0.06 -0.00    +0.000 A 
DOCKED: ATOM      5  C   UNL     1      27.336 -11.926  -3.644 -0.14 -0.00    +0.000 A 
DOCKED: ATOM      6  C   UNL     1      26.969 -10.654  -4.110 -0.13 -0.00    +0.000 A 
DOCKED: ATOM      7  C   UNL     1      25.728 -10.458  -4.736 -0.26 -0.00    +0.000 A 
DOCKED: ATOM      8  C   UNL     1      24.854 -11.544  -4.895 -0.34 -0.00    +0.000 A 
DOCKED: ATOM      9  C   UNL     1      25.209 -12.814  -4.434 -0.26 -0.00    +0.000 A 
DOCKED: ATOM     10  C   UNL     1      26.448 -13.017  -3.808 -0.28 -0.00    +0.000 A 
DOCKED: ATOM     11  C   UNL     1      26.814 -14.288  -3.342 -0.31 -0.00    +0.000 A 
DOCKED: BRANCH   7  12
DOCKED: ATOM     12  C   UNL     1      25.338  -9.099  -5.256 -0.24 -0.00    +0.000 C 
DOCKED: BRANCH  12  13
DOCKED: ATOM     13  N   UNL     1      24.221  -8.551  -4.456 -0.31 -0.00    +0.000 N 
DOCKED: ATOM     14  H   UNL     1      24.004  -9.218  -3.716 -0.53 -0.00    +0.000 HD
DOCKED: BRANCH  13  15
DOCKED: ATOM     15  C   UNL     1      22.983  -8.436  -5.264 -0.36 -0.00    +0.000 C 
DOCKED: ATOM     16  C   UNL     1      23.206  -8.872  -6.712 -0.44 -0.00    +0.000 C 
DOCKED: ENDBRANCH  13  15
DOCKED: BRANCH  13  17
DOCKED: ATOM     17  C   UNL     1      24.602  -7.304  -3.747 -0.16 -0.00    +0.000 C 
DOCKED: ATOM     18  C   UNL     1      25.542  -7.519  -2.553 -0.18 -0.00    +0.000 C 
DOCKED: ENDBRANCH  13  17
DOCKED: ENDBRANCH  12  13
DOCKED: ENDBRANCH   7  12
DOCKED: ENDBRANCH   1   2
DOCKED: BRANCH   1  19
DOCKED: ATOM     19  O   UNL     1      27.666 -16.107  -1.021 -0.33 -0.00    +0.000 OA
DOCKED: BRANCH  19  21
DOCKED: ATOM     20  O   UNL     1      26.814 -18.231  -0.734 -0.61 -0.00    +0.000 OA
DOCKED: ATOM     21  C   UNL     1      26.606 -17.016  -1.002 -0.53 -0.00    +0.000 C 
DOCKED: ATOM     22  N   UNL     1      25.288 -16.556  -1.333 -0.53 -0.00    +0.000 N 
DOCKED: ATOM     23  H   UNL     1      25.197 -15.643  -1.689 -0.02 -0.00    +0.000 HD
DOCKED: BRANCH  22  24
DOCKED: ATOM     24  C   UNL     1      24.093 -17.340  -1.178 -0.64 -0.00    +0.000 A 
DOCKED: ATOM     25  C   UNL     1      23.996 -18.580  -1.823 -0.42 -0.00    +0.000 A 
DOCKED: ATOM     26  C   UNL     1      22.837 -19.353  -1.708 -0.42 -0.00    +0.000 A 
DOCKED: ATOM     27  C   UNL     1      21.746 -18.896  -0.950 -0.75 -0.00    +0.000 A 
DOCKED: ATOM     28  C   UNL     1      21.831 -17.634  -0.332 -0.60 -0.00    +0.000 A 
DOCKED: ATOM     29  C   UNL     1      22.991 -16.863  -0.448 -0.36 -0.00    +0.000 A 
DOCKED: BRANCH  27  30
DOCKED: ATOM     30  C   UNL     1      20.521 -19.725  -0.839 -0.87 -0.00    +0.000 C 
DOCKED: ATOM     31  N   UNL     1      20.191 -20.413   0.374 -0.70 -0.00    +0.000 N 
DOCKED: ATOM     32  O   UNL     1      19.757 -19.840  -1.836 -1.76 -0.00    +0.000 OA
DOCKED: ATOM     33  H   UNL     1      20.821 -20.402   1.130 -0.50 -0.00    +0.000 HD
DOCKED: BRANCH  31  34
DOCKED: ATOM     34  O   UNL     1      19.018 -21.080   0.483 -0.76 -0.00    +0.000 OA
DOCKED: ATOM     35  H   UNL     1      18.580 -21.110  -0.383 -0.28 -0.00    +0.000 HD
DOCKED: ENDBRANCH  31  34
DOCKED: ENDBRANCH  27  30
DOCKED: ENDBRANCH  22  24
DOCKED: ENDBRANCH  19  21
DOCKED: ENDBRANCH   1  19
DOCKED: TORSDOF 10
DOCKED: TER
DOCKED: ENDMDL
________________________________________________________________________________


	BEGINNING GENETIC ALGORITHM DOCKING 23 of 100
Run: 23 Seed: 2099743207 1281485139 [ Run 23 of 100 GA/GALS ]
Beginning LAMARCKIAN GENETIC ALGORITHM (LGA), with a maximum of 2500000 energy evaluations.

Final-Value: -16.484


	FINAL GENETIC ALGORITHM DOCKED STATE
	_______________________________________________


Detailed state:  trans 28.662 -15.717 0.352 quatxyzw 0.640148 -0.685031 -0.063609 0.341903 center 1.857 0.216 -0.019 ntor 10 81.0501 179.9835 -1.4834 16.0216 -179.7316 173.6884 -48.0462 -7.4785 77.3767 -108.7710
State:	 28.662 -15.717   0.352   0.681 -0.729 -0.068 140.014     81.05  179.98   -1.48   16.02 -179.73  173.69  -48.05   -7.48   77.38 -108.77

DOCKED: MODEL       23
DOCKED: USER    Run = 23
DOCKED: USER    DPF = ligand_dock.biased.dpf
DOCKED: USER  
DOCKED: USER    Estimated Free Energy of Binding    =  -11.74 kcal/mol  [=(1)+(2)+(3)-(4)]
DOCKED: USER    Estimated Inhibition Constant, Ki   =    2.47 nM (nanomolar)  [Temperature = 298.15 K]
DOCKED: USER    
DOCKED: USER    (1) Final Intermolecular Energy     =  -14.72 kcal/mol
DOCKED: USER        vdW + Hbond + desolv Energy     =  -14.72 kcal/mol
DOCKED: USER        Electrostatic Energy            =   +0.00 kcal/mol
DOCKED: USER    (2) Final Total Internal Energy     =   -1.76 kcal/mol
DOCKED: USER    (3) Torsional Free Energy           =   +2.98 kcal/mol
DOCKED: USER    (4) Unbound System's Energy  [=(2)] =   -1.76 kcal/mol
DOCKED: USER    
DOCKED: USER    
DOCKED: USER    NEWDPF move ligand.pdbqt
DOCKED: USER    NEWDPF about 1.857000 0.216000 -0.019000
DOCKED: USER    NEWDPF tran0 28.661541 -15.717310 0.352429
DOCKED: USER    NEWDPF quaternion0 0.640148 -0.685031 -0.063609 0.341903
DOCKED: USER    NEWDPF axisangle0 0.681200 -0.728962 -0.067688 140.014343
DOCKED: USER    NEWDPF quat0 0.681200 -0.728962 -0.067688 140.014343
DOCKED: USER    NEWDPF dihe0 81.05 179.98 -1.48 16.02 -179.73 173.69 -48.05 -7.48 77.38 -108.77 
DOCKED: USER  keepresnum = 1 
DOCKED: USER  
DOCKED: REMARK  Name = 
DOCKED: REMARK  12 active torsions:
DOCKED: REMARK  status: ('A' for Active; 'I' for Inactive)
DOCKED: REMARK    1  A    between atoms: C_2  and  O_3
DOCKED: REMARK    2  A    between atoms: O_3  and  C_4
DOCKED: REMARK    3  A    between atoms: C_4  and  C_5
DOCKED: REMARK    4  A    between atoms: C_10  and  C_11
DOCKED: REMARK    5  A    between atoms: C_11  and  N_12
DOCKED: REMARK    6  A    between atoms: N_12  and  C_13
DOCKED: REMARK    7  A    between atoms: N_12  and  C_15
DOCKED: REMARK    8  A    between atoms: C_13  and  C_14
DOCKED: REMARK    9  A    between atoms: C_15  and  C_16
DOCKED: REMARK   10  A    between atoms: N_21  and  C_22
DOCKED: REMARK   11  A    between atoms: C_25  and  C_26
DOCKED: REMARK   12  A    between atoms: N_27  and  O_28
DOCKED: REMARK                            x       y       z     vdW  Elec       q    Type
DOCKED: REMARK                         _______ _______ _______ _____ _____    ______ ____
DOCKED: USER                              x       y       z     vdW  Elec       q    Type
DOCKED: USER                           _______ _______ _______ _____ _____    ______ ____
DOCKED: ROOT
DOCKED: ATOM      1  C   UNL     1      29.837 -14.907  -0.474 -0.12 -0.00    +0.000 C 
DOCKED: ENDROOT
DOCKED: BRANCH   1   2
DOCKED: ATOM      2  C   UNL     1      29.660 -14.031   0.732 -0.11 -0.00    +0.000 A 
DOCKED: ATOM      3  C   UNL     1      30.465 -12.894   0.902 -0.04 -0.00    +0.000 A 
DOCKED: ATOM      4  C   UNL     1      30.330 -12.096   2.042 -0.04 -0.00    +0.000 A 
DOCKED: ATOM      5  C   UNL     1      29.398 -12.433   3.033 -0.11 -0.00    +0.000 A 
DOCKED: ATOM      6  C   UNL     1      29.256 -11.638   4.182 -0.14 -0.00    +0.000 A 
DOCKED: ATOM      7  C   UNL     1      28.324 -11.983   5.173 -0.33 +0.00    +0.000 A 
DOCKED: ATOM      8  C   UNL     1      27.531 -13.130   5.009 -0.36 -0.00    +0.000 A 
DOCKED: ATOM      9  C   UNL     1      27.666 -13.928   3.871 -0.46 -0.00    +0.000 A 
DOCKED: ATOM     10  C   UNL     1      28.595 -13.588   2.876 -0.25 -0.00    +0.000 A 
DOCKED: ATOM     11  C   UNL     1      28.736 -14.382   1.729 -0.17 -0.00    +0.000 A 
DOCKED: BRANCH   7  12
DOCKED: ATOM     12  C   UNL     1      28.154 -11.123   6.398 -0.33 +0.00    +0.000 C 
DOCKED: BRANCH  12  13
DOCKED: ATOM     13  N   UNL     1      29.291 -11.324   7.322 -0.30 -0.00    +0.000 N 
DOCKED: ATOM     14  H   UNL     1      30.154 -11.206   6.792 +0.00 -0.00    +0.000 HD
DOCKED: BRANCH  13  15
DOCKED: ATOM     15  C   UNL     1      29.327 -12.712   7.841 -0.40 -0.00    +0.000 C 
DOCKED: ATOM     16  C   UNL     1      29.032 -12.768   9.340 -0.44 -0.00    +0.000 C 
DOCKED: ENDBRANCH  13  15
DOCKED: BRANCH  13  17
DOCKED: ATOM     17  C   UNL     1      29.345 -10.279   8.375 -0.26 -0.00    +0.000 C 
DOCKED: ATOM     18  C   UNL     1      30.562  -9.349   8.280 -0.16 -0.00    +0.000 C 
DOCKED: ENDBRANCH  13  17
DOCKED: ENDBRANCH  12  13
DOCKED: ENDBRANCH   7  12
DOCKED: ENDBRANCH   1   2
DOCKED: BRANCH   1  19
DOCKED: ATOM     19  O   UNL     1      29.121 -16.122  -0.280 -0.25 -0.00    +0.000 OA
DOCKED: BRANCH  19  21
DOCKED: ATOM     20  O   UNL     1      27.040 -15.129  -0.345 -0.33 -0.00    +0.000 OA
DOCKED: ATOM     21  C   UNL     1      27.726 -16.187  -0.305 -0.35 -0.00    +0.000 C 
DOCKED: ATOM     22  N   UNL     1      27.087 -17.470  -0.242 -0.49 -0.00    +0.000 N 
DOCKED: ATOM     23  H   UNL     1      27.651 -18.254  -0.051 -0.40 -0.00    +0.000 HD
DOCKED: BRANCH  22  24
DOCKED: ATOM     24  C   UNL     1      25.679 -17.686  -0.439 -0.59 -0.00    +0.000 A 
DOCKED: ATOM     25  C   UNL     1      25.210 -18.983  -0.683 -0.16 -0.00    +0.000 A 
DOCKED: ATOM     26  C   UNL     1      23.850 -19.217  -0.900 -0.50 -0.00    +0.000 A 
DOCKED: ATOM     27  C   UNL     1      22.929 -18.155  -0.885 -0.73 -0.00    +0.000 A 
DOCKED: ATOM     28  C   UNL     1      23.407 -16.848  -0.676 -0.47 -0.00    +0.000 A 
DOCKED: ATOM     29  C   UNL     1      24.768 -16.616  -0.458 -0.22 -0.00    +0.000 A 
DOCKED: BRANCH  27  30
DOCKED: ATOM     30  C   UNL     1      21.489 -18.419  -1.121 -0.67 -0.00    +0.000 C 
DOCKED: ATOM     31  N   UNL     1      21.047 -19.593  -1.812 -0.66 -0.00    +0.000 N 
DOCKED: ATOM     32  O   UNL     1      20.631 -17.586  -0.717 -2.15 +0.00    +0.000 OA
DOCKED: ATOM     33  H   UNL     1      21.708 -20.206  -2.207 -0.56 -0.00    +0.000 HD
DOCKED: BRANCH  31  34
DOCKED: ATOM     34  O   UNL     1      19.725 -19.862  -1.926 -1.72 -0.00    +0.000 OA
DOCKED: ATOM     35  H   UNL     1      19.214 -19.177  -1.465 -0.46 -0.00    +0.000 HD
DOCKED: ENDBRANCH  31  34
DOCKED: ENDBRANCH  27  30
DOCKED: ENDBRANCH  22  24
DOCKED: ENDBRANCH  19  21
DOCKED: ENDBRANCH   1  19
DOCKED: TORSDOF 10
DOCKED: TER
DOCKED: ENDMDL
________________________________________________________________________________


	BEGINNING GENETIC ALGORITHM DOCKING 24 of 100
Run: 24 Seed: 1158007173 1783954234 [ Run 24 of 100 GA/GALS ]
Beginning LAMARCKIAN GENETIC ALGORITHM (LGA), with a maximum of 2500000 energy evaluations.

Final-Value: -15.984


	FINAL GENETIC ALGORITHM DOCKED STATE
	_______________________________________________


Detailed state:  trans 27.113 -15.533 -2.135 quatxyzw 0.653281 -0.475055 0.549339 -0.213949 center 1.857 0.216 -0.019 ntor 10 73.2663 -177.4004 6.7086 -35.0705 -52.3122 -176.4941 65.1345 89.5233 -104.7094 -62.2605
State:	 27.113 -15.533  -2.135   0.669 -0.486  0.562 -155.292     73.27 -177.40    6.71  -35.07  -52.31 -176.49   65.13   89.52 -104.71  -62.26

DOCKED: MODEL       24
DOCKED: USER    Run = 24
DOCKED: USER    DPF = ligand_dock.biased.dpf
DOCKED: USER  
DOCKED: USER    Estimated Free Energy of Binding    =  -10.93 kcal/mol  [=(1)+(2)+(3)-(4)]
DOCKED: USER    Estimated Inhibition Constant, Ki   =    9.81 nM (nanomolar)  [Temperature = 298.15 K]
DOCKED: USER    
DOCKED: USER    (1) Final Intermolecular Energy     =  -13.91 kcal/mol
DOCKED: USER        vdW + Hbond + desolv Energy     =  -13.91 kcal/mol
DOCKED: USER        Electrostatic Energy            =   +0.00 kcal/mol
DOCKED: USER    (2) Final Total Internal Energy     =   -2.08 kcal/mol
DOCKED: USER    (3) Torsional Free Energy           =   +2.98 kcal/mol
DOCKED: USER    (4) Unbound System's Energy  [=(2)] =   -2.08 kcal/mol
DOCKED: USER    
DOCKED: USER    
DOCKED: USER    NEWDPF move ligand.pdbqt
DOCKED: USER    NEWDPF about 1.857000 0.216000 -0.019000
DOCKED: USER    NEWDPF tran0 27.113343 -15.532908 -2.135310
DOCKED: USER    NEWDPF quaternion0 0.653281 -0.475055 0.549339 -0.213949
DOCKED: USER    NEWDPF axisangle0 0.668766 -0.486315 0.562360 -155.292309
DOCKED: USER    NEWDPF quat0 0.668766 -0.486315 0.562360 -155.292309
DOCKED: USER    NEWDPF dihe0 73.27 -177.40 6.71 -35.07 -52.31 -176.49 65.13 89.52 -104.71 -62.26 
DOCKED: USER  keepresnum = 1 
DOCKED: USER  
DOCKED: REMARK  Name = 
DOCKED: REMARK  12 active torsions:
DOCKED: REMARK  status: ('A' for Active; 'I' for Inactive)
DOCKED: REMARK    1  A    between atoms: C_2  and  O_3
DOCKED: REMARK    2  A    between atoms: O_3  and  C_4
DOCKED: REMARK    3  A    between atoms: C_4  and  C_5
DOCKED: REMARK    4  A    between atoms: C_10  and  C_11
DOCKED: REMARK    5  A    between atoms: C_11  and  N_12
DOCKED: REMARK    6  A    between atoms: N_12  and  C_13
DOCKED: REMARK    7  A    between atoms: N_12  and  C_15
DOCKED: REMARK    8  A    between atoms: C_13  and  C_14
DOCKED: REMARK    9  A    between atoms: C_15  and  C_16
DOCKED: REMARK   10  A    between atoms: N_21  and  C_22
DOCKED: REMARK   11  A    between atoms: C_25  and  C_26
DOCKED: REMARK   12  A    between atoms: N_27  and  O_28
DOCKED: REMARK                            x       y       z     vdW  Elec       q    Type
DOCKED: REMARK                         _______ _______ _______ _____ _____    ______ ____
DOCKED: USER                              x       y       z     vdW  Elec       q    Type
DOCKED: USER                           _______ _______ _______ _____ _____    ______ ____
DOCKED: ROOT
DOCKED: ATOM      1  C   UNL     1      28.456 -16.381  -2.582 -0.29 -0.00    +0.000 C 
DOCKED: ENDROOT
DOCKED: BRANCH   1   2
DOCKED: ATOM      2  C   UNL     1      28.357 -15.371  -3.688 -0.24 -0.00    +0.000 A 
DOCKED: ATOM      3  C   UNL     1      27.269 -14.487  -3.742 -0.29 -0.00    +0.000 A 
DOCKED: ATOM      4  C   UNL     1      27.153 -13.571  -4.791 -0.29 -0.00    +0.000 A 
DOCKED: ATOM      5  C   UNL     1      28.117 -13.535  -5.807 -0.25 -0.00    +0.000 A 
DOCKED: ATOM      6  C   UNL     1      28.008 -12.618  -6.865 -0.16 -0.00    +0.000 A 
DOCKED: ATOM      7  C   UNL     1      28.975 -12.591  -7.883 -0.23 -0.00    +0.000 A 
DOCKED: ATOM      8  C   UNL     1      30.054 -13.486  -7.836 -0.15 -0.00    +0.000 A 
DOCKED: ATOM      9  C   UNL     1      30.171 -14.403  -6.789 -0.23 -0.00    +0.000 A 
DOCKED: ATOM     10  C   UNL     1      29.209 -14.435  -5.769 -0.25 -0.00    +0.000 A 
DOCKED: ATOM     11  C   UNL     1      29.318 -15.351  -4.712 -0.23 -0.00    +0.000 A 
DOCKED: BRANCH   7  12
DOCKED: ATOM     12  C   UNL     1      28.874 -11.596  -9.010 -0.21 -0.00    +0.000 C 
DOCKED: BRANCH  12  13
DOCKED: ATOM     13  N   UNL     1      27.669 -11.870  -9.823 -0.31 -0.00    +0.000 N 
DOCKED: ATOM     14  H   UNL     1      27.190 -12.675  -9.419 -0.05 -0.00    +0.000 HD
DOCKED: BRANCH  13  15
DOCKED: ATOM     15  C   UNL     1      28.029 -12.272 -11.203 -0.38 -0.00    +0.000 C 
DOCKED: ATOM     16  C   UNL     1      27.439 -11.321 -12.245 -0.31 +0.00    +0.000 C 
DOCKED: ENDBRANCH  13  15
DOCKED: BRANCH  13  17
DOCKED: ATOM     17  C   UNL     1      26.683 -10.763  -9.749 -0.28 -0.00    +0.000 C 
DOCKED: ATOM     18  C   UNL     1      25.396 -11.113  -8.989 -0.31 -0.00    +0.000 C 
DOCKED: ENDBRANCH  13  17
DOCKED: ENDBRANCH  12  13
DOCKED: ENDBRANCH   7  12
DOCKED: ENDBRANCH   1   2
DOCKED: BRANCH   1  19
DOCKED: ATOM     19  O   UNL     1      27.535 -16.039  -1.551 -0.32 -0.00    +0.000 OA
DOCKED: BRANCH  19  21
DOCKED: ATOM     20  O   UNL     1      26.648 -17.756  -0.292 -0.63 -0.00    +0.000 OA
DOCKED: ATOM     21  C   UNL     1      26.479 -16.874  -1.177 -0.52 -0.00    +0.000 C 
DOCKED: ATOM     22  N   UNL     1      25.216 -16.739  -1.844 -0.55 -0.00    +0.000 N 
DOCKED: ATOM     23  H   UNL     1      25.173 -16.152  -2.633 -0.03 -0.00    +0.000 HD
DOCKED: BRANCH  22  24
DOCKED: ATOM     24  C   UNL     1      24.009 -17.404  -1.435 -0.63 -0.00    +0.000 A 
DOCKED: ATOM     25  C   UNL     1      23.786 -18.730  -1.830 -0.40 -0.00    +0.000 A 
DOCKED: ATOM     26  C   UNL     1      22.611 -19.393  -1.466 -0.43 -0.00    +0.000 A 
DOCKED: ATOM     27  C   UNL     1      21.628 -18.740  -0.703 -0.77 -0.00    +0.000 A 
DOCKED: ATOM     28  C   UNL     1      21.837 -17.397  -0.337 -0.53 -0.00    +0.000 A 
DOCKED: ATOM     29  C   UNL     1      23.014 -16.736  -0.702 -0.39 -0.00    +0.000 A 
DOCKED: BRANCH  27  30
DOCKED: ATOM     30  C   UNL     1      20.385 -19.454  -0.326 -0.88 -0.00    +0.000 C 
DOCKED: ATOM     31  N   UNL     1      20.173 -19.933   1.008 -0.69 -0.00    +0.000 N 
DOCKED: ATOM     32  O   UNL     1      19.498 -19.660  -1.199 -1.40 -0.00    +0.000 OA
DOCKED: ATOM     33  H   UNL     1      20.892 -19.857   1.676 -0.49 -0.00    +0.000 HD
DOCKED: BRANCH  31  34
DOCKED: ATOM     34  O   UNL     1      18.989 -20.492   1.352 -0.76 -0.00    +0.000 OA
DOCKED: ATOM     35  H   UNL     1      18.433 -20.588   0.562 -0.03 -0.00    +0.000 HD
DOCKED: ENDBRANCH  31  34
DOCKED: ENDBRANCH  27  30
DOCKED: ENDBRANCH  22  24
DOCKED: ENDBRANCH  19  21
DOCKED: ENDBRANCH   1  19
DOCKED: TORSDOF 10
DOCKED: TER
DOCKED: ENDMDL
________________________________________________________________________________


	BEGINNING GENETIC ALGORITHM DOCKING 25 of 100
Run: 25 Seed: 454437173 979018213 [ Run 25 of 100 GA/GALS ]
Beginning LAMARCKIAN GENETIC ALGORITHM (LGA), with a maximum of 2500000 energy evaluations.

Final-Value: -16.857


	FINAL GENETIC ALGORITHM DOCKED STATE
	_______________________________________________


Detailed state:  trans 26.808 -15.220 -1.213 quatxyzw -0.622761 0.558217 0.398365 -0.376654 center 1.857 0.216 -0.019 ntor 10 178.0897 179.1264 78.1796 -74.4067 112.9060 158.5856 73.2691 72.5356 162.6577 -98.9829
State:	 26.808 -15.220  -1.213  -0.672  0.603  0.430 -135.747    178.09  179.13   78.18  -74.41  112.91  158.59   73.27   72.54  162.66  -98.98

DOCKED: MODEL       25
DOCKED: USER    Run = 25
DOCKED: USER    DPF = ligand_dock.biased.dpf
DOCKED: USER  
DOCKED: USER    Estimated Free Energy of Binding    =  -12.02 kcal/mol  [=(1)+(2)+(3)-(4)]
DOCKED: USER    Estimated Inhibition Constant, Ki   =    1.56 nM (nanomolar)  [Temperature = 298.15 K]
DOCKED: USER    
DOCKED: USER    (1) Final Intermolecular Energy     =  -15.00 kcal/mol
DOCKED: USER        vdW + Hbond + desolv Energy     =  -15.00 kcal/mol
DOCKED: USER        Electrostatic Energy            =   +0.00 kcal/mol
DOCKED: USER    (2) Final Total Internal Energy     =   -1.86 kcal/mol
DOCKED: USER    (3) Torsional Free Energy           =   +2.98 kcal/mol
DOCKED: USER    (4) Unbound System's Energy  [=(2)] =   -1.86 kcal/mol
DOCKED: USER    
DOCKED: USER    
DOCKED: USER    NEWDPF move ligand.pdbqt
DOCKED: USER    NEWDPF about 1.857000 0.216000 -0.019000
DOCKED: USER    NEWDPF tran0 26.807836 -15.219533 -1.213376
DOCKED: USER    NEWDPF quaternion0 -0.622761 0.558217 0.398365 -0.376654
DOCKED: USER    NEWDPF axisangle0 -0.672271 0.602596 0.430035 -135.746861
DOCKED: USER    NEWDPF quat0 -0.672271 0.602596 0.430035 -135.746861
DOCKED: USER    NEWDPF dihe0 178.09 179.13 78.18 -74.41 112.91 158.59 73.27 72.54 162.66 -98.98 
DOCKED: USER  keepresnum = 1 
DOCKED: USER  
DOCKED: REMARK  Name = 
DOCKED: REMARK  12 active torsions:
DOCKED: REMARK  status: ('A' for Active; 'I' for Inactive)
DOCKED: REMARK    1  A    between atoms: C_2  and  O_3
DOCKED: REMARK    2  A    between atoms: O_3  and  C_4
DOCKED: REMARK    3  A    between atoms: C_4  and  C_5
DOCKED: REMARK    4  A    between atoms: C_10  and  C_11
DOCKED: REMARK    5  A    between atoms: C_11  and  N_12
DOCKED: REMARK    6  A    between atoms: N_12  and  C_13
DOCKED: REMARK    7  A    between atoms: N_12  and  C_15
DOCKED: REMARK    8  A    between atoms: C_13  and  C_14
DOCKED: REMARK    9  A    between atoms: C_15  and  C_16
DOCKED: REMARK   10  A    between atoms: N_21  and  C_22
DOCKED: REMARK   11  A    between atoms: C_25  and  C_26
DOCKED: REMARK   12  A    between atoms: N_27  and  O_28
DOCKED: REMARK                            x       y       z     vdW  Elec       q    Type
DOCKED: REMARK                         _______ _______ _______ _____ _____    ______ ____
DOCKED: USER                              x       y       z     vdW  Elec       q    Type
DOCKED: USER                           _______ _______ _______ _____ _____    ______ ____
DOCKED: ROOT
DOCKED: ATOM      1  C   UNL     1      27.334 -13.719  -1.654 -0.21 -0.00    +0.000 C 
DOCKED: ENDROOT
DOCKED: BRANCH   1   2
DOCKED: ATOM      2  C   UNL     1      27.399 -13.632  -0.156 -0.20 -0.00    +0.000 A 
DOCKED: ATOM      3  C   UNL     1      26.347 -13.046   0.563 -0.29 -0.00    +0.000 A 
DOCKED: ATOM      4  C   UNL     1      26.419 -12.929   1.954 -0.25 -0.00    +0.000 A 
DOCKED: ATOM      5  C   UNL     1      27.551 -13.385   2.643 -0.30 -0.00    +0.000 A 
DOCKED: ATOM      6  C   UNL     1      27.633 -13.270   4.039 -0.40 -0.00    +0.000 A 
DOCKED: ATOM      7  C   UNL     1      28.772 -13.724   4.723 -0.40 -0.00    +0.000 A 
DOCKED: ATOM      8  C   UNL     1      29.831 -14.296   4.001 -0.30 -0.00    +0.000 A 
DOCKED: ATOM      9  C   UNL     1      29.759 -14.413   2.611 -0.14 -0.00    +0.000 A 
DOCKED: ATOM     10  C   UNL     1      28.624 -13.962   1.922 -0.21 -0.00    +0.000 A 
DOCKED: ATOM     11  C   UNL     1      28.542 -14.076   0.526 -0.16 -0.00    +0.000 A 
DOCKED: BRANCH   7  12
DOCKED: ATOM     12  C   UNL     1      28.857 -13.622   6.224 -0.40 -0.00    +0.000 C 
DOCKED: BRANCH  12  13
DOCKED: ATOM     13  N   UNL     1      29.459 -12.328   6.612 -0.29 -0.00    +0.000 N 
DOCKED: ATOM     14  H   UNL     1      30.212 -12.119   5.956 +0.01 -0.00    +0.000 HD
DOCKED: BRANCH  13  15
DOCKED: ATOM     15  C   UNL     1      30.102 -12.409   7.945 -0.30 -0.00    +0.000 C 
DOCKED: ATOM     16  C   UNL     1      29.655 -13.650   8.718 -0.42 -0.00    +0.000 C 
DOCKED: ENDBRANCH  13  15
DOCKED: BRANCH  13  17
DOCKED: ATOM     17  C   UNL     1      28.503 -11.202   6.465 -0.38 +0.00    +0.000 C 
DOCKED: ATOM     18  C   UNL     1      28.890 -10.181   5.387 -0.25 +0.00    +0.000 C 
DOCKED: ENDBRANCH  13  17
DOCKED: ENDBRANCH  12  13
DOCKED: ENDBRANCH   7  12
DOCKED: ENDBRANCH   1   2
DOCKED: BRANCH   1  19
DOCKED: ATOM     19  O   UNL     1      27.086 -15.068  -2.035 -0.28 -0.00    +0.000 OA
DOCKED: BRANCH  19  21
DOCKED: ATOM     20  O   UNL     1      24.954 -15.287  -2.887 -0.59 -0.00    +0.000 OA
DOCKED: ATOM     21  C   UNL     1      25.808 -15.631  -2.025 -0.50 -0.00    +0.000 C 
DOCKED: ATOM     22  N   UNL     1      25.470 -16.573  -0.997 -0.51 -0.00    +0.000 N 
DOCKED: ATOM     23  H   UNL     1      26.107 -16.692  -0.256 -0.02 -0.00    +0.000 HD
DOCKED: BRANCH  22  24
DOCKED: ATOM     24  C   UNL     1      24.263 -17.354  -0.977 -0.64 -0.00    +0.000 A 
DOCKED: ATOM     25  C   UNL     1      23.049 -16.735  -0.649 -0.37 -0.00    +0.000 A 
DOCKED: ATOM     26  C   UNL     1      21.865 -17.475  -0.600 -0.62 -0.00    +0.000 A 
DOCKED: ATOM     27  C   UNL     1      21.871 -18.854  -0.873 -0.75 -0.00    +0.000 A 
DOCKED: ATOM     28  C   UNL     1      23.096 -19.481  -1.167 -0.50 -0.00    +0.000 A 
DOCKED: ATOM     29  C   UNL     1      24.280 -18.738  -1.216 -0.49 -0.00    +0.000 A 
DOCKED: BRANCH  27  30
DOCKED: ATOM     30  C   UNL     1      20.606 -19.627  -0.814 -0.87 -0.00    +0.000 C 
DOCKED: ATOM     31  N   UNL     1      20.164 -20.244   0.401 -0.71 -0.00    +0.000 N 
DOCKED: ATOM     32  O   UNL     1      19.910 -19.759  -1.858 -1.88 -0.00    +0.000 OA
DOCKED: ATOM     33  H   UNL     1      20.739 -20.222   1.199 -0.45 -0.00    +0.000 HD
DOCKED: BRANCH  31  34
DOCKED: ATOM     34  O   UNL     1      18.958 -20.858   0.455 -0.80 -0.00    +0.000 OA
DOCKED: ATOM     35  H   UNL     1      19.019 -21.731   0.035 -0.15 -0.00    +0.000 HD
DOCKED: ENDBRANCH  31  34
DOCKED: ENDBRANCH  27  30
DOCKED: ENDBRANCH  22  24
DOCKED: ENDBRANCH  19  21
DOCKED: ENDBRANCH   1  19
DOCKED: TORSDOF 10
DOCKED: TER
DOCKED: ENDMDL
________________________________________________________________________________


	BEGINNING GENETIC ALGORITHM DOCKING 26 of 100
Run: 26 Seed: 460392015 415587985 [ Run 26 of 100 GA/GALS ]
Beginning LAMARCKIAN GENETIC ALGORITHM (LGA), with a maximum of 2500000 energy evaluations.

Final-Value: -16.231


	FINAL GENETIC ALGORITHM DOCKED STATE
	_______________________________________________


Detailed state:  trans 28.374 -15.434 -0.756 quatxyzw 0.758127 -0.307128 0.518620 -0.248897 center 1.857 0.216 -0.019 ntor 10 -154.3251 177.6114 16.9851 -76.1491 164.0410 -22.6630 30.3488 -166.4456 154.2200 -116.4181
State:	 28.374 -15.434  -0.756   0.783 -0.317  0.535 -151.175   -154.33  177.61   16.99  -76.15  164.04  -22.66   30.35 -166.45  154.22 -116.42

DOCKED: MODEL       26
DOCKED: USER    Run = 26
DOCKED: USER    DPF = ligand_dock.biased.dpf
DOCKED: USER  
DOCKED: USER    Estimated Free Energy of Binding    =  -10.74 kcal/mol  [=(1)+(2)+(3)-(4)]
DOCKED: USER    Estimated Inhibition Constant, Ki   =   13.48 nM (nanomolar)  [Temperature = 298.15 K]
DOCKED: USER    
DOCKED: USER    (1) Final Intermolecular Energy     =  -13.72 kcal/mol
DOCKED: USER        vdW + Hbond + desolv Energy     =  -13.72 kcal/mol
DOCKED: USER        Electrostatic Energy            =   +0.00 kcal/mol
DOCKED: USER    (2) Final Total Internal Energy     =   -2.51 kcal/mol
DOCKED: USER    (3) Torsional Free Energy           =   +2.98 kcal/mol
DOCKED: USER    (4) Unbound System's Energy  [=(2)] =   -2.51 kcal/mol
DOCKED: USER    
DOCKED: USER    
DOCKED: USER    NEWDPF move ligand.pdbqt
DOCKED: USER    NEWDPF about 1.857000 0.216000 -0.019000
DOCKED: USER    NEWDPF tran0 28.374002 -15.433702 -0.755748
DOCKED: USER    NEWDPF quaternion0 0.758127 -0.307128 0.518620 -0.248897
DOCKED: USER    NEWDPF axisangle0 0.782761 -0.317107 0.535471 -151.175487
DOCKED: USER    NEWDPF quat0 0.782761 -0.317107 0.535471 -151.175487
DOCKED: USER    NEWDPF dihe0 -154.33 177.61 16.99 -76.15 164.04 -22.66 30.35 -166.45 154.22 -116.42 
DOCKED: USER  keepresnum = 1 
DOCKED: USER  
DOCKED: REMARK  Name = 
DOCKED: REMARK  12 active torsions:
DOCKED: REMARK  status: ('A' for Active; 'I' for Inactive)
DOCKED: REMARK    1  A    between atoms: C_2  and  O_3
DOCKED: REMARK    2  A    between atoms: O_3  and  C_4
DOCKED: REMARK    3  A    between atoms: C_4  and  C_5
DOCKED: REMARK    4  A    between atoms: C_10  and  C_11
DOCKED: REMARK    5  A    between atoms: C_11  and  N_12
DOCKED: REMARK    6  A    between atoms: N_12  and  C_13
DOCKED: REMARK    7  A    between atoms: N_12  and  C_15
DOCKED: REMARK    8  A    between atoms: C_13  and  C_14
DOCKED: REMARK    9  A    between atoms: C_15  and  C_16
DOCKED: REMARK   10  A    between atoms: N_21  and  C_22
DOCKED: REMARK   11  A    between atoms: C_25  and  C_26
DOCKED: REMARK   12  A    between atoms: N_27  and  O_28
DOCKED: REMARK                            x       y       z     vdW  Elec       q    Type
DOCKED: REMARK                         _______ _______ _______ _____ _____    ______ ____
DOCKED: USER                              x       y       z     vdW  Elec       q    Type
DOCKED: USER                           _______ _______ _______ _____ _____    ______ ____
DOCKED: ROOT
DOCKED: ATOM      1  C   UNL     1      29.758 -16.001  -1.452 -0.17 -0.00    +0.000 C 
DOCKED: ENDROOT
DOCKED: BRANCH   1   2
DOCKED: ATOM      2  C   UNL     1      29.122 -15.271  -2.599 -0.14 -0.00    +0.000 A 
DOCKED: ATOM      3  C   UNL     1      28.515 -15.987  -3.642 -0.24 -0.00    +0.000 A 
DOCKED: ATOM      4  C   UNL     1      27.955 -15.313  -4.731 -0.35 -0.00    +0.000 A 
DOCKED: ATOM      5  C   UNL     1      28.006 -13.914  -4.798 -0.24 -0.00    +0.000 A 
DOCKED: ATOM      6  C   UNL     1      27.448 -13.229  -5.888 -0.10 -0.00    +0.000 A 
DOCKED: ATOM      7  C   UNL     1      27.507 -11.828  -5.952 -0.16 -0.00    +0.000 A 
DOCKED: ATOM      8  C   UNL     1      28.128 -11.113  -4.916 -0.08 -0.00    +0.000 A 
DOCKED: ATOM      9  C   UNL     1      28.689 -11.786  -3.828 -0.06 -0.00    +0.000 A 
DOCKED: ATOM     10  C   UNL     1      28.633 -13.186  -3.758 -0.10 -0.00    +0.000 A 
DOCKED: ATOM     11  C   UNL     1      29.191 -13.870  -2.669 -0.07 -0.00    +0.000 A 
DOCKED: BRANCH   7  12
DOCKED: ATOM     12  C   UNL     1      26.891 -11.086  -7.110 -0.20 -0.00    +0.000 C 
DOCKED: BRANCH  12  13
DOCKED: ATOM     13  N   UNL     1      25.474 -10.779  -6.821 -0.27 -0.00    +0.000 N 
DOCKED: ATOM     14  H   UNL     1      25.059 -11.595  -6.370 -0.00 -0.00    +0.000 HD
DOCKED: BRANCH  13  15
DOCKED: ATOM     15  C   UNL     1      24.700 -10.577  -8.069 -0.31 -0.00    +0.000 C 
DOCKED: ATOM     16  C   UNL     1      25.483 -11.020  -9.304 -0.36 -0.00    +0.000 C 
DOCKED: ENDBRANCH  13  15
DOCKED: BRANCH  13  17
DOCKED: ATOM     17  C   UNL     1      25.331  -9.682  -5.832 -0.27 -0.00    +0.000 C 
DOCKED: ATOM     18  C   UNL     1      24.675 -10.105  -4.510 -0.34 -0.00    +0.000 C 
DOCKED: ENDBRANCH  13  17
DOCKED: ENDBRANCH  12  13
DOCKED: ENDBRANCH   7  12
DOCKED: ENDBRANCH   1   2
DOCKED: BRANCH   1  19
DOCKED: ATOM     19  O   UNL     1      29.046 -15.704  -0.255 -0.23 -0.00    +0.000 OA
DOCKED: BRANCH  19  21
DOCKED: ATOM     20  O   UNL     1      27.053 -15.585   0.899 -0.21 -0.00    +0.000 OA
DOCKED: ATOM     21  C   UNL     1      27.710 -16.066  -0.063 -0.34 -0.00    +0.000 C 
DOCKED: ATOM     22  N   UNL     1      27.114 -17.022  -0.951 -0.44 -0.00    +0.000 N 
DOCKED: ATOM     23  H   UNL     1      27.703 -17.490  -1.585 -0.03 -0.00    +0.000 HD
DOCKED: BRANCH  22  24
DOCKED: ATOM     24  C   UNL     1      25.712 -17.342  -0.974 -0.56 -0.00    +0.000 A 
DOCKED: ATOM     25  C   UNL     1      25.299 -18.644  -0.665 -0.49 -0.00    +0.000 A 
DOCKED: ATOM     26  C   UNL     1      23.945 -18.988  -0.702 -0.62 -0.00    +0.000 A 
DOCKED: ATOM     27  C   UNL     1      22.974 -18.035  -1.057 -0.71 -0.00    +0.000 A 
DOCKED: ATOM     28  C   UNL     1      23.394 -16.737  -1.402 -0.14 -0.00    +0.000 A 
DOCKED: ATOM     29  C   UNL     1      24.749 -16.395  -1.364 -0.51 -0.00    +0.000 A 
DOCKED: BRANCH  27  30
DOCKED: ATOM     30  C   UNL     1      21.541 -18.415  -1.096 -0.72 -0.00    +0.000 C 
DOCKED: ATOM     31  N   UNL     1      21.120 -19.696  -1.582 -0.68 -0.00    +0.000 N 
DOCKED: ATOM     32  O   UNL     1      20.669 -17.591  -0.706 -2.15 +0.00    +0.000 OA
DOCKED: ATOM     33  H   UNL     1      21.781 -20.314  -1.969 -0.48 -0.00    +0.000 HD
DOCKED: BRANCH  31  34
DOCKED: ATOM     34  O   UNL     1      19.817 -20.058  -1.513 -1.58 -0.00    +0.000 OA
DOCKED: ATOM     35  H   UNL     1      19.269 -19.270  -1.367 -0.37 -0.00    +0.000 HD
DOCKED: ENDBRANCH  31  34
DOCKED: ENDBRANCH  27  30
DOCKED: ENDBRANCH  22  24
DOCKED: ENDBRANCH  19  21
DOCKED: ENDBRANCH   1  19
DOCKED: TORSDOF 10
DOCKED: TER
DOCKED: ENDMDL
________________________________________________________________________________


	BEGINNING GENETIC ALGORITHM DOCKING 27 of 100
Run: 27 Seed: 1203020790 2006809014 [ Run 27 of 100 GA/GALS ]
Beginning LAMARCKIAN GENETIC ALGORITHM (LGA), with a maximum of 2500000 energy evaluations.

Final-Value: -16.091


	FINAL GENETIC ALGORITHM DOCKED STATE
	_______________________________________________


Detailed state:  trans 29.297 -16.549 -1.887 quatxyzw -0.300168 0.208974 -0.767753 0.526103 center 1.857 0.216 -0.019 ntor 10 -146.4079 -167.9692 -93.6996 -61.5752 -91.2192 113.9153 -166.0051 -169.6156 87.8619 -86.9636
State:	 29.297 -16.549  -1.887  -0.353  0.246 -0.903 116.515   -146.41 -167.97  -93.70  -61.58  -91.22  113.92 -166.01 -169.62   87.86  -86.96

DOCKED: MODEL       27
DOCKED: USER    Run = 27
DOCKED: USER    DPF = ligand_dock.biased.dpf
DOCKED: USER  
DOCKED: USER    Estimated Free Energy of Binding    =  -11.33 kcal/mol  [=(1)+(2)+(3)-(4)]
DOCKED: USER    Estimated Inhibition Constant, Ki   =    4.94 nM (nanomolar)  [Temperature = 298.15 K]
DOCKED: USER    
DOCKED: USER    (1) Final Intermolecular Energy     =  -14.31 kcal/mol
DOCKED: USER        vdW + Hbond + desolv Energy     =  -14.31 kcal/mol
DOCKED: USER        Electrostatic Energy            =   +0.00 kcal/mol
DOCKED: USER    (2) Final Total Internal Energy     =   -1.78 kcal/mol
DOCKED: USER    (3) Torsional Free Energy           =   +2.98 kcal/mol
DOCKED: USER    (4) Unbound System's Energy  [=(2)] =   -1.78 kcal/mol
DOCKED: USER    
DOCKED: USER    
DOCKED: USER    NEWDPF move ligand.pdbqt
DOCKED: USER    NEWDPF about 1.857000 0.216000 -0.019000
DOCKED: USER    NEWDPF tran0 29.297000 -16.549321 -1.887332
DOCKED: USER    NEWDPF quaternion0 -0.300168 0.208974 -0.767753 0.526103
DOCKED: USER    NEWDPF axisangle0 -0.352965 0.245730 -0.902792 116.514905
DOCKED: USER    NEWDPF quat0 -0.352965 0.245730 -0.902792 116.514905
DOCKED: USER    NEWDPF dihe0 -146.41 -167.97 -93.70 -61.58 -91.22 113.92 -166.01 -169.62 87.86 -86.96 
DOCKED: USER  keepresnum = 1 
DOCKED: USER  
DOCKED: REMARK  Name = 
DOCKED: REMARK  12 active torsions:
DOCKED: REMARK  status: ('A' for Active; 'I' for Inactive)
DOCKED: REMARK    1  A    between atoms: C_2  and  O_3
DOCKED: REMARK    2  A    between atoms: O_3  and  C_4
DOCKED: REMARK    3  A    between atoms: C_4  and  C_5
DOCKED: REMARK    4  A    between atoms: C_10  and  C_11
DOCKED: REMARK    5  A    between atoms: C_11  and  N_12
DOCKED: REMARK    6  A    between atoms: N_12  and  C_13
DOCKED: REMARK    7  A    between atoms: N_12  and  C_15
DOCKED: REMARK    8  A    between atoms: C_13  and  C_14
DOCKED: REMARK    9  A    between atoms: C_15  and  C_16
DOCKED: REMARK   10  A    between atoms: N_21  and  C_22
DOCKED: REMARK   11  A    between atoms: C_25  and  C_26
DOCKED: REMARK   12  A    between atoms: N_27  and  O_28
DOCKED: REMARK                            x       y       z     vdW  Elec       q    Type
DOCKED: REMARK                         _______ _______ _______ _____ _____    ______ ____
DOCKED: USER                              x       y       z     vdW  Elec       q    Type
DOCKED: USER                           _______ _______ _______ _____ _____    ______ ____
DOCKED: ROOT
DOCKED: ATOM      1  C   UNL     1      30.312 -17.382  -0.888 -0.22 -0.00    +0.000 C 
DOCKED: ENDROOT
DOCKED: BRANCH   1   2
DOCKED: ATOM      2  C   UNL     1      30.661 -17.967  -2.225 -0.15 -0.00    +0.000 A 
DOCKED: ATOM      3  C   UNL     1      31.516 -19.077  -2.309 -0.14 -0.00    +0.000 A 
DOCKED: ATOM      4  C   UNL     1      31.874 -19.602  -3.554 -0.13 -0.00    +0.000 A 
DOCKED: ATOM      5  C   UNL     1      31.393 -19.016  -4.733 -0.19 -0.00    +0.000 A 
DOCKED: ATOM      6  C   UNL     1      31.748 -19.536  -5.987 -0.18 -0.00    +0.000 A 
DOCKED: ATOM      7  C   UNL     1      31.267 -18.941  -7.164 -0.29 -0.00    +0.000 A 
DOCKED: ATOM      8  C   UNL     1      30.424 -17.822  -7.080 -0.25 -0.00    +0.000 A 
DOCKED: ATOM      9  C   UNL     1      30.066 -17.296  -5.836 -0.31 -0.00    +0.000 A 
DOCKED: ATOM     10  C   UNL     1      30.544 -17.886  -4.656 -0.25 -0.00    +0.000 A 
DOCKED: ATOM     11  C   UNL     1      30.188 -17.366  -3.403 -0.18 -0.00    +0.000 A 
DOCKED: BRANCH   7  12
DOCKED: ATOM     12  C   UNL     1      31.628 -19.507  -8.513 -0.29 -0.00    +0.000 C 
DOCKED: BRANCH  12  13
DOCKED: ATOM     13  N   UNL     1      32.019 -18.417  -9.433 -0.25 -0.00    +0.000 N 
DOCKED: ATOM     14  H   UNL     1      31.555 -17.562  -9.127 -0.02 -0.00    +0.000 HD
DOCKED: BRANCH  13  15
DOCKED: ATOM     15  C   UNL     1      31.527 -18.668 -10.808 -0.25 -0.00    +0.000 C 
DOCKED: ATOM     16  C   UNL     1      30.376 -19.674 -10.826 -0.44 -0.00    +0.000 C 
DOCKED: ENDBRANCH  13  15
DOCKED: BRANCH  13  17
DOCKED: ATOM     17  C   UNL     1      33.470 -18.112  -9.353 -0.10 -0.00    +0.000 C 
DOCKED: ATOM     18  C   UNL     1      33.809 -16.867  -8.522 -0.07 -0.00    +0.000 C 
DOCKED: ENDBRANCH  13  17
DOCKED: ENDBRANCH  12  13
DOCKED: ENDBRANCH   7  12
DOCKED: ENDBRANCH   1   2
DOCKED: BRANCH   1  19
DOCKED: ATOM     19  O   UNL     1      29.468 -16.251  -1.077 -0.21 -0.00    +0.000 OA
DOCKED: BRANCH  19  21
DOCKED: ATOM     20  O   UNL     1      27.369 -15.350  -1.400 -0.27 -0.00    +0.000 OA
DOCKED: ATOM     21  C   UNL     1      28.074 -16.338  -1.055 -0.34 -0.00    +0.000 C 
DOCKED: ATOM     22  N   UNL     1      27.459 -17.550  -0.595 -0.45 -0.00    +0.000 N 
DOCKED: ATOM     23  H   UNL     1      28.039 -18.232  -0.186 -0.49 -0.00    +0.000 HD
DOCKED: BRANCH  22  24
DOCKED: ATOM     24  C   UNL     1      26.053 -17.832  -0.691 -0.56 -0.00    +0.000 A 
DOCKED: ATOM     25  C   UNL     1      25.383 -17.587  -1.897 -0.36 -0.00    +0.000 A 
DOCKED: ATOM     26  C   UNL     1      24.012 -17.831  -2.011 -0.35 -0.00    +0.000 A 
DOCKED: ATOM     27  C   UNL     1      23.279 -18.322  -0.917 -0.73 -0.00    +0.000 A 
DOCKED: ATOM     28  C   UNL     1      23.946 -18.534   0.304 -0.26 -0.00    +0.000 A 
DOCKED: ATOM     29  C   UNL     1      25.318 -18.289   0.416 -0.35 -0.00    +0.000 A 
DOCKED: BRANCH  27  30
DOCKED: ATOM     30  C   UNL     1      21.824 -18.574  -1.051 -0.81 -0.00    +0.000 C 
DOCKED: ATOM     31  N   UNL     1      21.320 -19.599  -1.917 -0.42 -0.00    +0.000 N 
DOCKED: ATOM     32  O   UNL     1      21.008 -17.863  -0.403 -1.98 -0.00    +0.000 OA
DOCKED: ATOM     33  H   UNL     1      21.940 -20.102  -2.493 -0.61 -0.00    +0.000 HD
DOCKED: BRANCH  31  34
DOCKED: ATOM     34  O   UNL     1      19.995 -19.877  -1.945 -1.84 -0.00    +0.000 OA
DOCKED: ATOM     35  H   UNL     1      19.803 -20.603  -1.330 -0.56 -0.00    +0.000 HD
DOCKED: ENDBRANCH  31  34
DOCKED: ENDBRANCH  27  30
DOCKED: ENDBRANCH  22  24
DOCKED: ENDBRANCH  19  21
DOCKED: ENDBRANCH   1  19
DOCKED: TORSDOF 10
DOCKED: TER
DOCKED: ENDMDL
________________________________________________________________________________


	BEGINNING GENETIC ALGORITHM DOCKING 28 of 100
Run: 28 Seed: 2125479375 1196647490 [ Run 28 of 100 GA/GALS ]
Beginning LAMARCKIAN GENETIC ALGORITHM (LGA), with a maximum of 2500000 energy evaluations.

Final-Value: -16.015


	FINAL GENETIC ALGORITHM DOCKED STATE
	_______________________________________________


Detailed state:  trans 29.567 -17.018 -1.567 quatxyzw -0.447204 0.138062 -0.732280 0.494686 center 1.857 0.216 -0.019 ntor 10 177.4254 -10.9727 5.3012 -90.2170 150.9770 149.4543 -115.1014 -60.2387 124.6568 -127.3330
State:	 29.567 -17.018  -1.567  -0.515  0.159 -0.843 120.702    177.43  -10.97    5.30  -90.22  150.98  149.45 -115.10  -60.24  124.66 -127.33

DOCKED: MODEL       28
DOCKED: USER    Run = 28
DOCKED: USER    DPF = ligand_dock.biased.dpf
DOCKED: USER  
DOCKED: USER    Estimated Free Energy of Binding    =  -11.05 kcal/mol  [=(1)+(2)+(3)-(4)]
DOCKED: USER    Estimated Inhibition Constant, Ki   =    7.98 nM (nanomolar)  [Temperature = 298.15 K]
DOCKED: USER    
DOCKED: USER    (1) Final Intermolecular Energy     =  -14.03 kcal/mol
DOCKED: USER        vdW + Hbond + desolv Energy     =  -14.03 kcal/mol
DOCKED: USER        Electrostatic Energy            =   +0.00 kcal/mol
DOCKED: USER    (2) Final Total Internal Energy     =   -1.98 kcal/mol
DOCKED: USER    (3) Torsional Free Energy           =   +2.98 kcal/mol
DOCKED: USER    (4) Unbound System's Energy  [=(2)] =   -1.98 kcal/mol
DOCKED: USER    
DOCKED: USER    
DOCKED: USER    NEWDPF move ligand.pdbqt
DOCKED: USER    NEWDPF about 1.857000 0.216000 -0.019000
DOCKED: USER    NEWDPF tran0 29.566891 -17.018182 -1.567077
DOCKED: USER    NEWDPF quaternion0 -0.447204 0.138062 -0.732280 0.494686
DOCKED: USER    NEWDPF axisangle0 -0.514576 0.158862 -0.842600 120.701969
DOCKED: USER    NEWDPF quat0 -0.514576 0.158862 -0.842600 120.701969
DOCKED: USER    NEWDPF dihe0 177.43 -10.97 5.30 -90.22 150.98 149.45 -115.10 -60.24 124.66 -127.33 
DOCKED: USER  keepresnum = 1 
DOCKED: USER  
DOCKED: REMARK  Name = 
DOCKED: REMARK  12 active torsions:
DOCKED: REMARK  status: ('A' for Active; 'I' for Inactive)
DOCKED: REMARK    1  A    between atoms: C_2  and  O_3
DOCKED: REMARK    2  A    between atoms: O_3  and  C_4
DOCKED: REMARK    3  A    between atoms: C_4  and  C_5
DOCKED: REMARK    4  A    between atoms: C_10  and  C_11
DOCKED: REMARK    5  A    between atoms: C_11  and  N_12
DOCKED: REMARK    6  A    between atoms: N_12  and  C_13
DOCKED: REMARK    7  A    between atoms: N_12  and  C_15
DOCKED: REMARK    8  A    between atoms: C_13  and  C_14
DOCKED: REMARK    9  A    between atoms: C_15  and  C_16
DOCKED: REMARK   10  A    between atoms: N_21  and  C_22
DOCKED: REMARK   11  A    between atoms: C_25  and  C_26
DOCKED: REMARK   12  A    between atoms: N_27  and  O_28
DOCKED: REMARK                            x       y       z     vdW  Elec       q    Type
DOCKED: REMARK                         _______ _______ _______ _____ _____    ______ ____
DOCKED: USER                              x       y       z     vdW  Elec       q    Type
DOCKED: USER                           _______ _______ _______ _____ _____    ______ ____
DOCKED: ROOT
DOCKED: ATOM      1  C   UNL     1      30.919 -17.776  -1.002 -0.19 -0.00    +0.000 C 
DOCKED: ENDROOT
DOCKED: BRANCH   1   2
DOCKED: ATOM      2  C   UNL     1      30.896 -18.231  -2.433 -0.14 -0.00    +0.000 A 
DOCKED: ATOM      3  C   UNL     1      31.127 -19.578  -2.749 -0.03 -0.00    +0.000 A 
DOCKED: ATOM      4  C   UNL     1      31.144 -19.999  -4.082 -0.16 -0.00    +0.000 A 
DOCKED: ATOM      5  C   UNL     1      30.943 -19.076  -5.117 -0.26 -0.00    +0.000 A 
DOCKED: ATOM      6  C   UNL     1      30.959 -19.489  -6.458 -0.33 -0.00    +0.000 A 
DOCKED: ATOM      7  C   UNL     1      30.761 -18.558  -7.491 -0.34 -0.00    +0.000 A 
DOCKED: ATOM      8  C   UNL     1      30.545 -17.209  -7.173 -0.26 -0.00    +0.000 A 
DOCKED: ATOM      9  C   UNL     1      30.529 -16.787  -5.842 -0.27 -0.00    +0.000 A 
DOCKED: ATOM     10  C   UNL     1      30.726 -17.712  -4.806 -0.23 -0.00    +0.000 A 
DOCKED: ATOM     11  C   UNL     1      30.709 -17.298  -3.466 -0.17 -0.00    +0.000 A 
DOCKED: BRANCH   7  12
DOCKED: ATOM     12  C   UNL     1      30.758 -19.000  -8.931 -0.39 -0.00    +0.000 C 
DOCKED: BRANCH  12  13
DOCKED: ATOM     13  N   UNL     1      32.074 -18.730  -9.549 -0.23 -0.00    +0.000 N 
DOCKED: ATOM     14  H   UNL     1      32.287 -17.740  -9.421 -0.01 -0.00    +0.000 HD
DOCKED: BRANCH  13  15
DOCKED: ATOM     15  C   UNL     1      32.037 -18.943 -11.015 -0.26 -0.00    +0.000 C 
DOCKED: ATOM     16  C   UNL     1      30.810 -19.750 -11.442 -0.38 -0.00    +0.000 C 
DOCKED: ENDBRANCH  13  15
DOCKED: BRANCH  13  17
DOCKED: ATOM     17  C   UNL     1      33.173 -19.449  -8.857 -0.09 -0.00    +0.000 C 
DOCKED: ATOM     18  C   UNL     1      32.975 -20.968  -8.766 -0.09 -0.00    +0.000 C 
DOCKED: ENDBRANCH  13  17
DOCKED: ENDBRANCH  12  13
DOCKED: ENDBRANCH   7  12
DOCKED: ENDBRANCH   1   2
DOCKED: BRANCH   1  19
DOCKED: ATOM     19  O   UNL     1      29.949 -16.750  -0.820 -0.23 -0.00    +0.000 OA
DOCKED: BRANCH  19  21
DOCKED: ATOM     20  O   UNL     1      28.307 -17.112  -2.400 -0.33 -0.00    +0.000 OA
DOCKED: ATOM     21  C   UNL     1      28.611 -16.903  -1.194 -0.32 -0.00    +0.000 C 
DOCKED: ATOM     22  N   UNL     1      27.590 -16.776  -0.194 -0.38 -0.00    +0.000 N 
DOCKED: ATOM     23  H   UNL     1      27.858 -16.456   0.698 -0.37 -0.00    +0.000 HD
DOCKED: BRANCH  22  24
DOCKED: ATOM     24  C   UNL     1      26.203 -17.085  -0.408 -0.50 -0.00    +0.000 A 
DOCKED: ATOM     25  C   UNL     1      25.708 -18.335  -0.014 -0.56 -0.00    +0.000 A 
DOCKED: ATOM     26  C   UNL     1      24.369 -18.671  -0.231 -0.44 -0.00    +0.000 A 
DOCKED: ATOM     27  C   UNL     1      23.496 -17.763  -0.855 -0.70 -0.00    +0.000 A 
DOCKED: ATOM     28  C   UNL     1      24.003 -16.522  -1.283 -0.31 -0.00    +0.000 A 
DOCKED: ATOM     29  C   UNL     1      25.343 -16.188  -1.064 -0.47 -0.00    +0.000 A 
DOCKED: BRANCH  27  30
DOCKED: ATOM     30  C   UNL     1      22.078 -18.133  -1.082 -0.73 -0.00    +0.000 C 
DOCKED: ATOM     31  N   UNL     1      21.721 -19.361  -1.729 -0.62 -0.00    +0.000 N 
DOCKED: ATOM     32  O   UNL     1      21.164 -17.348  -0.711 -1.85 -0.00    +0.000 OA
DOCKED: ATOM     33  H   UNL     1      22.424 -19.942  -2.100 -0.49 -0.00    +0.000 HD
DOCKED: BRANCH  31  34
DOCKED: ATOM     34  O   UNL     1      20.421 -19.724  -1.833 -1.75 -0.00    +0.000 OA
DOCKED: ATOM     35  H   UNL     1      19.857 -19.010  -1.496 -0.11 -0.00    +0.000 HD
DOCKED: ENDBRANCH  31  34
DOCKED: ENDBRANCH  27  30
DOCKED: ENDBRANCH  22  24
DOCKED: ENDBRANCH  19  21
DOCKED: ENDBRANCH   1  19
DOCKED: TORSDOF 10
DOCKED: TER
DOCKED: ENDMDL
________________________________________________________________________________


	BEGINNING GENETIC ALGORITHM DOCKING 29 of 100
Run: 29 Seed: 1246141197 1021937806 [ Run 29 of 100 GA/GALS ]
Beginning LAMARCKIAN GENETIC ALGORITHM (LGA), with a maximum of 2500000 energy evaluations.

Final-Value: -15.922


	FINAL GENETIC ALGORITHM DOCKED STATE
	_______________________________________________


Detailed state:  trans 28.636 -15.624 -0.441 quatxyzw 0.825886 -0.164589 0.520450 0.141263 center 1.857 0.216 -0.019 ntor 10 179.6859 -178.0669 11.0089 -84.2694 -48.9964 173.6917 -153.6318 -72.0323 -178.5985 -173.2772
State:	 28.636 -15.624  -0.441   0.834 -0.166  0.526 163.758    179.69 -178.07   11.01  -84.27  -49.00  173.69 -153.63  -72.03 -178.60 -173.28

DOCKED: MODEL       29
DOCKED: USER    Run = 29
DOCKED: USER    DPF = ligand_dock.biased.dpf
DOCKED: USER  
DOCKED: USER    Estimated Free Energy of Binding    =  -10.43 kcal/mol  [=(1)+(2)+(3)-(4)]
DOCKED: USER    Estimated Inhibition Constant, Ki   =   22.75 nM (nanomolar)  [Temperature = 298.15 K]
DOCKED: USER    
DOCKED: USER    (1) Final Intermolecular Energy     =  -13.41 kcal/mol
DOCKED: USER        vdW + Hbond + desolv Energy     =  -13.41 kcal/mol
DOCKED: USER        Electrostatic Energy            =   +0.00 kcal/mol
DOCKED: USER    (2) Final Total Internal Energy     =   -2.51 kcal/mol
DOCKED: USER    (3) Torsional Free Energy           =   +2.98 kcal/mol
DOCKED: USER    (4) Unbound System's Energy  [=(2)] =   -2.51 kcal/mol
DOCKED: USER    
DOCKED: USER    
DOCKED: USER    NEWDPF move ligand.pdbqt
DOCKED: USER    NEWDPF about 1.857000 0.216000 -0.019000
DOCKED: USER    NEWDPF tran0 28.636142 -15.624054 -0.440957
DOCKED: USER    NEWDPF quaternion0 0.825886 -0.164589 0.520450 0.141263
DOCKED: USER    NEWDPF axisangle0 0.834252 -0.166256 0.525722 163.758091
DOCKED: USER    NEWDPF quat0 0.834252 -0.166256 0.525722 163.758091
DOCKED: USER    NEWDPF dihe0 179.69 -178.07 11.01 -84.27 -49.00 173.69 -153.63 -72.03 -178.60 -173.28 
DOCKED: USER  keepresnum = 1 
DOCKED: USER  
DOCKED: REMARK  Name = 
DOCKED: REMARK  12 active torsions:
DOCKED: REMARK  status: ('A' for Active; 'I' for Inactive)
DOCKED: REMARK    1  A    between atoms: C_2  and  O_3
DOCKED: REMARK    2  A    between atoms: O_3  and  C_4
DOCKED: REMARK    3  A    between atoms: C_4  and  C_5
DOCKED: REMARK    4  A    between atoms: C_10  and  C_11
DOCKED: REMARK    5  A    between atoms: C_11  and  N_12
DOCKED: REMARK    6  A    between atoms: N_12  and  C_13
DOCKED: REMARK    7  A    between atoms: N_12  and  C_15
DOCKED: REMARK    8  A    between atoms: C_13  and  C_14
DOCKED: REMARK    9  A    between atoms: C_15  and  C_16
DOCKED: REMARK   10  A    between atoms: N_21  and  C_22
DOCKED: REMARK   11  A    between atoms: C_25  and  C_26
DOCKED: REMARK   12  A    between atoms: N_27  and  O_28
DOCKED: REMARK                            x       y       z     vdW  Elec       q    Type
DOCKED: REMARK                         _______ _______ _______ _____ _____    ______ ____
DOCKED: USER                              x       y       z     vdW  Elec       q    Type
DOCKED: USER                           _______ _______ _______ _____ _____    ______ ____
DOCKED: ROOT
DOCKED: ATOM      1  C   UNL     1      30.019 -14.873  -0.936 -0.09 -0.00    +0.000 C 
DOCKED: ENDROOT
DOCKED: BRANCH   1   2
DOCKED: ATOM      2  C   UNL     1      28.992 -14.219  -1.814 -0.08 -0.00    +0.000 A 
DOCKED: ATOM      3  C   UNL     1      28.498 -14.890  -2.943 -0.16 -0.00    +0.000 A 
DOCKED: ATOM      4  C   UNL     1      27.570 -14.270  -3.784 -0.25 -0.00    +0.000 A 
DOCKED: ATOM      5  C   UNL     1      27.133 -12.966  -3.515 -0.20 -0.00    +0.000 A 
DOCKED: ATOM      6  C   UNL     1      26.202 -12.336  -4.355 -0.28 -0.00    +0.000 A 
DOCKED: ATOM      7  C   UNL     1      25.773 -11.027  -4.084 -0.17 -0.00    +0.000 A 
DOCKED: ATOM      8  C   UNL     1      26.279 -10.351  -2.963 -0.01 -0.00    +0.000 A 
DOCKED: ATOM      9  C   UNL     1      27.208 -10.969  -2.122 -0.08 -0.00    +0.000 A 
DOCKED: ATOM     10  C   UNL     1      27.641 -12.277  -2.388 -0.11 -0.00    +0.000 A 
DOCKED: ATOM     11  C   UNL     1      28.571 -12.906  -1.548 -0.07 -0.00    +0.000 A 
DOCKED: BRANCH   7  12
DOCKED: ATOM     12  C   UNL     1      24.759 -10.353  -4.970 -0.40 -0.00    +0.000 C 
DOCKED: BRANCH  12  13
DOCKED: ATOM     13  N   UNL     1      25.391  -9.938  -6.241 -0.24 -0.00    +0.000 N 
DOCKED: ATOM     14  H   UNL     1      26.252  -9.439  -6.019 +0.00 -0.00    +0.000 HD
DOCKED: BRANCH  13  15
DOCKED: ATOM     15  C   UNL     1      24.545  -8.966  -6.974 -0.29 -0.00    +0.000 C 
DOCKED: ATOM     16  C   UNL     1      23.123  -8.914  -6.415 -0.42 -0.00    +0.000 C 
DOCKED: ENDBRANCH  13  15
DOCKED: BRANCH  13  17
DOCKED: ATOM     17  C   UNL     1      25.824 -11.101  -7.055 -0.06 -0.00    +0.000 C 
DOCKED: ATOM     18  C   UNL     1      27.347 -11.257  -7.173 -0.19 -0.00    +0.000 C 
DOCKED: ENDBRANCH  13  17
DOCKED: ENDBRANCH  12  13
DOCKED: ENDBRANCH   7  12
DOCKED: ENDBRANCH   1   2
DOCKED: BRANCH   1  19
DOCKED: ATOM     19  O   UNL     1      29.360 -15.648   0.060 -0.22 -0.00    +0.000 OA
DOCKED: BRANCH  19  21
DOCKED: ATOM     20  O   UNL     1      27.197 -14.917   0.384 -0.34 -0.00    +0.000 OA
DOCKED: ATOM     21  C   UNL     1      27.978 -15.854   0.063 -0.29 -0.00    +0.000 C 
DOCKED: ATOM     22  N   UNL     1      27.467 -17.154  -0.261 -0.42 -0.00    +0.000 N 
DOCKED: ATOM     23  H   UNL     1      28.112 -17.892  -0.348 -0.33 -0.00    +0.000 HD
DOCKED: BRANCH  22  24
DOCKED: ATOM     24  C   UNL     1      26.075 -17.449  -0.468 -0.55 -0.00    +0.000 A 
DOCKED: ATOM     25  C   UNL     1      25.371 -16.773  -1.473 -0.54 -0.00    +0.000 A 
DOCKED: ATOM     26  C   UNL     1      24.012 -17.024  -1.681 -0.46 -0.00    +0.000 A 
DOCKED: ATOM     27  C   UNL     1      23.326 -17.954  -0.881 -0.71 -0.00    +0.000 A 
DOCKED: ATOM     28  C   UNL     1      24.026 -18.606   0.151 -0.35 -0.00    +0.000 A 
DOCKED: ATOM     29  C   UNL     1      25.385 -18.354   0.357 -0.34 -0.00    +0.000 A 
DOCKED: BRANCH  27  30
DOCKED: ATOM     30  C   UNL     1      21.883 -18.208  -1.111 -0.67 -0.00    +0.000 C 
DOCKED: ATOM     31  N   UNL     1      21.423 -19.436  -1.689 -0.63 -0.00    +0.000 N 
DOCKED: ATOM     32  O   UNL     1      21.039 -17.321  -0.806 -1.89 -0.00    +0.000 OA
DOCKED: ATOM     33  H   UNL     1      22.074 -20.100  -2.011 -0.52 -0.00    +0.000 HD
DOCKED: BRANCH  31  34
DOCKED: ATOM     34  O   UNL     1      20.096 -19.686  -1.795 -1.82 -0.00    +0.000 OA
DOCKED: ATOM     35  H   UNL     1      19.597 -18.877  -1.598 -0.23 -0.00    +0.000 HD
DOCKED: ENDBRANCH  31  34
DOCKED: ENDBRANCH  27  30
DOCKED: ENDBRANCH  22  24
DOCKED: ENDBRANCH  19  21
DOCKED: ENDBRANCH   1  19
DOCKED: TORSDOF 10
DOCKED: TER
DOCKED: ENDMDL
________________________________________________________________________________


	BEGINNING GENETIC ALGORITHM DOCKING 30 of 100
Run: 30 Seed: 578345809 1574870224 [ Run 30 of 100 GA/GALS ]
Beginning LAMARCKIAN GENETIC ALGORITHM (LGA), with a maximum of 2500000 energy evaluations.

Final-Value: -14.793


	FINAL GENETIC ALGORITHM DOCKED STATE
	_______________________________________________


Detailed state:  trans 29.114 -14.290 0.172 quatxyzw 0.581628 -0.575924 -0.445433 0.362781 center 1.857 0.216 -0.019 ntor 10 80.7949 -177.4691 -141.1168 32.1643 155.7243 -4.6631 -144.5098 -1.0386 37.0710 -104.4056
State:	 29.114 -14.290   0.172   0.624 -0.618 -0.478 137.458     80.79 -177.47 -141.12   32.16  155.72   -4.66 -144.51   -1.04   37.07 -104.41

DOCKED: MODEL       30
DOCKED: USER    Run = 30
DOCKED: USER    DPF = ligand_dock.biased.dpf
DOCKED: USER  
DOCKED: USER    Estimated Free Energy of Binding    =  -10.42 kcal/mol  [=(1)+(2)+(3)-(4)]
DOCKED: USER    Estimated Inhibition Constant, Ki   =   23.21 nM (nanomolar)  [Temperature = 298.15 K]
DOCKED: USER    
DOCKED: USER    (1) Final Intermolecular Energy     =  -13.40 kcal/mol
DOCKED: USER        vdW + Hbond + desolv Energy     =  -13.40 kcal/mol
DOCKED: USER        Electrostatic Energy            =   +0.00 kcal/mol
DOCKED: USER    (2) Final Total Internal Energy     =   -1.40 kcal/mol
DOCKED: USER    (3) Torsional Free Energy           =   +2.98 kcal/mol
DOCKED: USER    (4) Unbound System's Energy  [=(2)] =   -1.40 kcal/mol
DOCKED: USER    
DOCKED: USER    
DOCKED: USER    NEWDPF move ligand.pdbqt
DOCKED: USER    NEWDPF about 1.857000 0.216000 -0.019000
DOCKED: USER    NEWDPF tran0 29.113755 -14.289506 0.171863
DOCKED: USER    NEWDPF quaternion0 0.581628 -0.575924 -0.445433 0.362781
DOCKED: USER    NEWDPF axisangle0 0.624148 -0.618028 -0.477996 137.457866
DOCKED: USER    NEWDPF quat0 0.624148 -0.618028 -0.477996 137.457866
DOCKED: USER    NEWDPF dihe0 80.79 -177.47 -141.12 32.16 155.72 -4.66 -144.51 -1.04 37.07 -104.41 
DOCKED: USER  keepresnum = 1 
DOCKED: USER  
DOCKED: REMARK  Name = 
DOCKED: REMARK  12 active torsions:
DOCKED: REMARK  status: ('A' for Active; 'I' for Inactive)
DOCKED: REMARK    1  A    between atoms: C_2  and  O_3
DOCKED: REMARK    2  A    between atoms: O_3  and  C_4
DOCKED: REMARK    3  A    between atoms: C_4  and  C_5
DOCKED: REMARK    4  A    between atoms: C_10  and  C_11
DOCKED: REMARK    5  A    between atoms: C_11  and  N_12
DOCKED: REMARK    6  A    between atoms: N_12  and  C_13
DOCKED: REMARK    7  A    between atoms: N_12  and  C_15
DOCKED: REMARK    8  A    between atoms: C_13  and  C_14
DOCKED: REMARK    9  A    between atoms: C_15  and  C_16
DOCKED: REMARK   10  A    between atoms: N_21  and  C_22
DOCKED: REMARK   11  A    between atoms: C_25  and  C_26
DOCKED: REMARK   12  A    between atoms: N_27  and  O_28
DOCKED: REMARK                            x       y       z     vdW  Elec       q    Type
DOCKED: REMARK                         _______ _______ _______ _____ _____    ______ ____
DOCKED: USER                              x       y       z     vdW  Elec       q    Type
DOCKED: USER                           _______ _______ _______ _____ _____    ______ ____
DOCKED: ROOT
DOCKED: ATOM      1  C   UNL     1      29.621 -12.778  -0.252 -0.05 -0.00    +0.000 C 
DOCKED: ENDROOT
DOCKED: BRANCH   1   2
DOCKED: ATOM      2  C   UNL     1      29.866 -12.772   1.229 -0.05 -0.00    +0.000 A 
DOCKED: ATOM      3  C   UNL     1      31.050 -12.225   1.746 -0.02 -0.00    +0.000 A 
DOCKED: ATOM      4  C   UNL     1      31.300 -12.251   3.122 -0.05 -0.00    +0.000 A 
DOCKED: ATOM      5  C   UNL     1      30.375 -12.838   3.996 -0.13 -0.00    +0.000 A 
DOCKED: ATOM      6  C   UNL     1      30.618 -12.870   5.378 -0.19 -0.00    +0.000 A 
DOCKED: ATOM      7  C   UNL     1      29.690 -13.464   6.249 -0.31 -0.00    +0.000 A 
DOCKED: ATOM      8  C   UNL     1      28.514 -14.025   5.728 -0.32 -0.00    +0.000 A 
DOCKED: ATOM      9  C   UNL     1      28.264 -14.000   4.354 -0.47 -0.00    +0.000 A 
DOCKED: ATOM     10  C   UNL     1      29.187 -13.408   3.479 -0.22 -0.00    +0.000 A 
DOCKED: ATOM     11  C   UNL     1      28.943 -13.375   2.098 -0.16 -0.00    +0.000 A 
DOCKED: BRANCH   7  12
DOCKED: ATOM     12  C   UNL     1      29.936 -13.484   7.735 -0.36 -0.00    +0.000 C 
DOCKED: BRANCH  12  13
DOCKED: ATOM     13  N   UNL     1      29.041 -12.520   8.411 -0.39 -0.00    +0.000 N 
DOCKED: ATOM     14  H   UNL     1      28.083 -12.860   8.320 -0.03 +0.00    +0.000 HD
DOCKED: BRANCH  13  15
DOCKED: ATOM     15  C   UNL     1      29.062 -11.199   7.738 -0.36 -0.00    +0.000 C 
DOCKED: ATOM     16  C   UNL     1      29.694 -10.121   8.619 -0.25 -0.00    +0.000 C 
DOCKED: ENDBRANCH  13  15
DOCKED: BRANCH  13  17
DOCKED: ATOM     17  C   UNL     1      29.287 -12.462   9.873 -0.39 -0.00    +0.000 C 
DOCKED: ATOM     18  C   UNL     1      28.154 -13.045  10.729 -0.54 -0.00    +0.000 C 
DOCKED: ENDBRANCH  13  17
DOCKED: ENDBRANCH  12  13
DOCKED: ENDBRANCH   7  12
DOCKED: ENDBRANCH   1   2
DOCKED: BRANCH   1  19
DOCKED: ATOM     19  O   UNL     1      29.296 -14.100  -0.669 -0.09 -0.00    +0.000 OA
DOCKED: BRANCH  19  21
DOCKED: ATOM     20  O   UNL     1      27.160 -14.044   0.202 -0.29 -0.00    +0.000 OA
DOCKED: ATOM     21  C   UNL     1      28.046 -14.678  -0.434 -0.22 -0.00    +0.000 C 
DOCKED: ATOM     22  N   UNL     1      27.801 -16.016  -0.889 -0.29 -0.00    +0.000 N 
DOCKED: ATOM     23  H   UNL     1      28.566 -16.530  -1.237 -0.01 -0.00    +0.000 HD
DOCKED: BRANCH  22  24
DOCKED: ATOM     24  C   UNL     1      26.514 -16.656  -0.872 -0.45 -0.00    +0.000 A 
DOCKED: ATOM     25  C   UNL     1      25.504 -16.191  -1.724 -0.50 -0.00    +0.000 A 
DOCKED: ATOM     26  C   UNL     1      24.236 -16.780  -1.711 -0.46 -0.00    +0.000 A 
DOCKED: ATOM     27  C   UNL     1      23.951 -17.845  -0.839 -0.70 -0.00    +0.000 A 
DOCKED: ATOM     28  C   UNL     1      24.956 -18.288   0.041 -0.56 -0.00    +0.000 A 
DOCKED: ATOM     29  C   UNL     1      26.223 -17.697   0.026 -0.52 -0.00    +0.000 A 
DOCKED: BRANCH  27  30
DOCKED: ATOM     30  C   UNL     1      22.601 -18.459  -0.834 -0.83 -0.00    +0.000 C 
DOCKED: ATOM     31  N   UNL     1      21.415 -17.654  -0.805 -0.70 -0.00    +0.000 N 
DOCKED: ATOM     32  O   UNL     1      22.489 -19.715  -0.841 -0.75 -0.00    +0.000 OA
DOCKED: ATOM     33  H   UNL     1      21.488 -16.677  -0.712 -0.06 -0.00    +0.000 HD
DOCKED: BRANCH  31  34
DOCKED: ATOM     34  O   UNL     1      20.195 -18.234  -0.904 -2.08 -0.00    +0.000 OA
DOCKED: ATOM     35  H   UNL     1      19.616 -17.679  -1.451 -0.61 -0.00    +0.000 HD
DOCKED: ENDBRANCH  31  34
DOCKED: ENDBRANCH  27  30
DOCKED: ENDBRANCH  22  24
DOCKED: ENDBRANCH  19  21
DOCKED: ENDBRANCH   1  19
DOCKED: TORSDOF 10
DOCKED: TER
DOCKED: ENDMDL
________________________________________________________________________________


	BEGINNING GENETIC ALGORITHM DOCKING 31 of 100
Run: 31 Seed: 763428956 78171653 [ Run 31 of 100 GA/GALS ]
Beginning LAMARCKIAN GENETIC ALGORITHM (LGA), with a maximum of 2500000 energy evaluations.

Final-Value: -16.089


	FINAL GENETIC ALGORITHM DOCKED STATE
	_______________________________________________


Detailed state:  trans 29.192 -16.565 0.337 quatxyzw 0.712538 -0.526933 -0.201033 0.417392 center 1.857 0.216 -0.019 ntor 10 -166.7629 -70.1179 164.5332 -65.8318 147.3639 100.9105 -179.3630 -178.5185 -175.2903 -105.2151
State:	 29.192 -16.565   0.337   0.784 -0.580 -0.221 130.660   -166.76  -70.12  164.53  -65.83  147.36  100.91 -179.36 -178.52 -175.29 -105.22

DOCKED: MODEL       31
DOCKED: USER    Run = 31
DOCKED: USER    DPF = ligand_dock.biased.dpf
DOCKED: USER  
DOCKED: USER    Estimated Free Energy of Binding    =  -11.50 kcal/mol  [=(1)+(2)+(3)-(4)]
DOCKED: USER    Estimated Inhibition Constant, Ki   =    3.73 nM (nanomolar)  [Temperature = 298.15 K]
DOCKED: USER    
DOCKED: USER    (1) Final Intermolecular Energy     =  -14.48 kcal/mol
DOCKED: USER        vdW + Hbond + desolv Energy     =  -14.48 kcal/mol
DOCKED: USER        Electrostatic Energy            =   +0.00 kcal/mol
DOCKED: USER    (2) Final Total Internal Energy     =   -1.61 kcal/mol
DOCKED: USER    (3) Torsional Free Energy           =   +2.98 kcal/mol
DOCKED: USER    (4) Unbound System's Energy  [=(2)] =   -1.61 kcal/mol
DOCKED: USER    
DOCKED: USER    
DOCKED: USER    NEWDPF move ligand.pdbqt
DOCKED: USER    NEWDPF about 1.857000 0.216000 -0.019000
DOCKED: USER    NEWDPF tran0 29.191960 -16.565289 0.336884
DOCKED: USER    NEWDPF quaternion0 0.712538 -0.526933 -0.201033 0.417392
DOCKED: USER    NEWDPF axisangle0 0.784107 -0.579859 -0.221225 130.659879
DOCKED: USER    NEWDPF quat0 0.784107 -0.579859 -0.221225 130.659879
DOCKED: USER    NEWDPF dihe0 -166.76 -70.12 164.53 -65.83 147.36 100.91 -179.36 -178.52 -175.29 -105.22 
DOCKED: USER  keepresnum = 1 
DOCKED: USER  
DOCKED: REMARK  Name = 
DOCKED: REMARK  12 active torsions:
DOCKED: REMARK  status: ('A' for Active; 'I' for Inactive)
DOCKED: REMARK    1  A    between atoms: C_2  and  O_3
DOCKED: REMARK    2  A    between atoms: O_3  and  C_4
DOCKED: REMARK    3  A    between atoms: C_4  and  C_5
DOCKED: REMARK    4  A    between atoms: C_10  and  C_11
DOCKED: REMARK    5  A    between atoms: C_11  and  N_12
DOCKED: REMARK    6  A    between atoms: N_12  and  C_13
DOCKED: REMARK    7  A    between atoms: N_12  and  C_15
DOCKED: REMARK    8  A    between atoms: C_13  and  C_14
DOCKED: REMARK    9  A    between atoms: C_15  and  C_16
DOCKED: REMARK   10  A    between atoms: N_21  and  C_22
DOCKED: REMARK   11  A    between atoms: C_25  and  C_26
DOCKED: REMARK   12  A    between atoms: N_27  and  O_28
DOCKED: REMARK                            x       y       z     vdW  Elec       q    Type
DOCKED: REMARK                         _______ _______ _______ _____ _____    ______ ____
DOCKED: USER                              x       y       z     vdW  Elec       q    Type
DOCKED: USER                           _______ _______ _______ _____ _____    ______ ____
DOCKED: ROOT
DOCKED: ATOM      1  C   UNL     1      29.966 -15.195  -0.158 -0.14 -0.00    +0.000 C 
DOCKED: ENDROOT
DOCKED: BRANCH   1   2
DOCKED: ATOM      2  C   UNL     1      29.475 -14.788   1.201 -0.08 -0.00    +0.000 A 
DOCKED: ATOM      3  C   UNL     1      28.119 -14.489   1.401 -0.23 -0.00    +0.000 A 
DOCKED: ATOM      4  C   UNL     1      27.664 -14.073   2.656 -0.30 -0.00    +0.000 A 
DOCKED: ATOM      5  C   UNL     1      28.562 -13.938   3.724 -0.37 -0.00    +0.000 A 
DOCKED: ATOM      6  C   UNL     1      28.114 -13.521   4.987 -0.46 -0.00    +0.000 A 
DOCKED: ATOM      7  C   UNL     1      29.020 -13.382   6.051 -0.38 -0.00    +0.000 A 
DOCKED: ATOM      8  C   UNL     1      30.379 -13.666   5.845 -0.26 -0.00    +0.000 A 
DOCKED: ATOM      9  C   UNL     1      30.834 -14.081   4.591 -0.23 -0.00    +0.000 A 
DOCKED: ATOM     10  C   UNL     1      29.935 -14.221   3.524 -0.26 -0.00    +0.000 A 
DOCKED: ATOM     11  C   UNL     1      30.382 -14.639   2.262 -0.11 -0.00    +0.000 A 
DOCKED: BRANCH   7  12
DOCKED: ATOM     12  C   UNL     1      28.542 -12.953   7.414 -0.33 -0.00    +0.000 C 
DOCKED: BRANCH  12  13
DOCKED: ATOM     13  N   UNL     1      29.589 -12.161   8.093 -0.30 -0.00    +0.000 N 
DOCKED: ATOM     14  H   UNL     1      30.498 -12.494   7.771 +0.00 -0.00    +0.000 HD
DOCKED: BRANCH  13  15
DOCKED: ATOM     15  C   UNL     1      29.576 -12.391   9.558 -0.35 -0.00    +0.000 C 
DOCKED: ATOM     16  C   UNL     1      28.480 -13.373   9.970 -0.52 -0.00    +0.000 C 
DOCKED: ENDBRANCH  13  15
DOCKED: BRANCH  13  17
DOCKED: ATOM     17  C   UNL     1      29.548 -10.730   7.702 -0.29 -0.00    +0.000 C 
DOCKED: ATOM     18  C   UNL     1      28.500 -10.397   6.632 -0.31 +0.00    +0.000 C 
DOCKED: ENDBRANCH  13  17
DOCKED: ENDBRANCH  12  13
DOCKED: ENDBRANCH   7  12
DOCKED: ENDBRANCH   1   2
DOCKED: BRANCH   1  19
DOCKED: ATOM     19  O   UNL     1      29.768 -16.594  -0.329 -0.23 -0.00    +0.000 OA
DOCKED: BRANCH  19  21
DOCKED: ATOM     20  O   UNL     1      28.385 -18.402  -0.706 -0.26 -0.00    +0.000 OA
DOCKED: ATOM     21  C   UNL     1      28.510 -17.154  -0.570 -0.27 -0.00    +0.000 C 
DOCKED: ATOM     22  N   UNL     1      27.376 -16.286  -0.704 -0.36 -0.00    +0.000 N 
DOCKED: ATOM     23  H   UNL     1      27.542 -15.317  -0.751 +0.00 -0.00    +0.000 HD
DOCKED: BRANCH  22  24
DOCKED: ATOM     24  C   UNL     1      26.013 -16.739  -0.773 -0.49 -0.00    +0.000 A 
DOCKED: ATOM     25  C   UNL     1      25.632 -17.884  -0.061 -0.56 -0.00    +0.000 A 
DOCKED: ATOM     26  C   UNL     1      24.319 -18.358  -0.128 -0.59 -0.00    +0.000 A 
DOCKED: ATOM     27  C   UNL     1      23.360 -17.699  -0.916 -0.69 -0.00    +0.000 A 
DOCKED: ATOM     28  C   UNL     1      23.753 -16.570  -1.659 +0.12 -0.00    +0.000 A 
DOCKED: ATOM     29  C   UNL     1      25.067 -16.097  -1.590 -0.47 -0.00    +0.000 A 
DOCKED: BRANCH  27  30
DOCKED: ATOM     30  C   UNL     1      21.971 -18.216  -0.981 -0.77 -0.00    +0.000 C 
DOCKED: ATOM     31  N   UNL     1      21.694 -19.569  -1.364 -0.60 -0.00    +0.000 N 
DOCKED: ATOM     32  O   UNL     1      21.009 -17.448  -0.708 -2.04 -0.00    +0.000 OA
DOCKED: ATOM     33  H   UNL     1      22.428 -20.153  -1.663 -0.40 -0.00    +0.000 HD
DOCKED: BRANCH  31  34
DOCKED: ATOM     34  O   UNL     1      20.428 -20.046  -1.318 -1.44 -0.00    +0.000 OA
DOCKED: ATOM     35  H   UNL     1      20.373 -20.870  -1.828 -0.51 -0.00    +0.000 HD
DOCKED: ENDBRANCH  31  34
DOCKED: ENDBRANCH  27  30
DOCKED: ENDBRANCH  22  24
DOCKED: ENDBRANCH  19  21
DOCKED: ENDBRANCH   1  19
DOCKED: TORSDOF 10
DOCKED: TER
DOCKED: ENDMDL
________________________________________________________________________________


	BEGINNING GENETIC ALGORITHM DOCKING 32 of 100
Run: 32 Seed: 1291089401 525361177 [ Run 32 of 100 GA/GALS ]
Beginning LAMARCKIAN GENETIC ALGORITHM (LGA), with a maximum of 2500000 energy evaluations.

Final-Value: -15.745


	FINAL GENETIC ALGORITHM DOCKED STATE
	_______________________________________________


Detailed state:  trans 29.996 -16.214 0.357 quatxyzw 0.653595 -0.556786 -0.297786 0.417286 center 1.857 0.216 -0.019 ntor 10 -146.3412 5.0990 4.7118 -102.2354 155.1526 -49.9542 41.7981 127.0266 -25.4274 -86.4559
State:	 29.996 -16.214   0.357   0.719 -0.613 -0.328 130.673   -146.34    5.10    4.71 -102.24  155.15  -49.95   41.80  127.03  -25.43  -86.46

DOCKED: MODEL       32
DOCKED: USER    Run = 32
DOCKED: USER    DPF = ligand_dock.biased.dpf
DOCKED: USER  
DOCKED: USER    Estimated Free Energy of Binding    =  -10.39 kcal/mol  [=(1)+(2)+(3)-(4)]
DOCKED: USER    Estimated Inhibition Constant, Ki   =   24.30 nM (nanomolar)  [Temperature = 298.15 K]
DOCKED: USER    
DOCKED: USER    (1) Final Intermolecular Energy     =  -13.37 kcal/mol
DOCKED: USER        vdW + Hbond + desolv Energy     =  -13.37 kcal/mol
DOCKED: USER        Electrostatic Energy            =   +0.00 kcal/mol
DOCKED: USER    (2) Final Total Internal Energy     =   -2.37 kcal/mol
DOCKED: USER    (3) Torsional Free Energy           =   +2.98 kcal/mol
DOCKED: USER    (4) Unbound System's Energy  [=(2)] =   -2.37 kcal/mol
DOCKED: USER    
DOCKED: USER    
DOCKED: USER    NEWDPF move ligand.pdbqt
DOCKED: USER    NEWDPF about 1.857000 0.216000 -0.019000
DOCKED: USER    NEWDPF tran0 29.996390 -16.213750 0.357228
DOCKED: USER    NEWDPF quaternion0 0.653595 -0.556786 -0.297786 0.417286
DOCKED: USER    NEWDPF axisangle0 0.719204 -0.612677 -0.327678 130.673299
DOCKED: USER    NEWDPF quat0 0.719204 -0.612677 -0.327678 130.673299
DOCKED: USER    NEWDPF dihe0 -146.34 5.10 4.71 -102.24 155.15 -49.95 41.80 127.03 -25.43 -86.46 
DOCKED: USER  keepresnum = 1 
DOCKED: USER  
DOCKED: REMARK  Name = 
DOCKED: REMARK  12 active torsions:
DOCKED: REMARK  status: ('A' for Active; 'I' for Inactive)
DOCKED: REMARK    1  A    between atoms: C_2  and  O_3
DOCKED: REMARK    2  A    between atoms: O_3  and  C_4
DOCKED: REMARK    3  A    between atoms: C_4  and  C_5
DOCKED: REMARK    4  A    between atoms: C_10  and  C_11
DOCKED: REMARK    5  A    between atoms: C_11  and  N_12
DOCKED: REMARK    6  A    between atoms: N_12  and  C_13
DOCKED: REMARK    7  A    between atoms: N_12  and  C_15
DOCKED: REMARK    8  A    between atoms: C_13  and  C_14
DOCKED: REMARK    9  A    between atoms: C_15  and  C_16
DOCKED: REMARK   10  A    between atoms: N_21  and  C_22
DOCKED: REMARK   11  A    between atoms: C_25  and  C_26
DOCKED: REMARK   12  A    between atoms: N_27  and  O_28
DOCKED: REMARK                            x       y       z     vdW  Elec       q    Type
DOCKED: REMARK                         _______ _______ _______ _____ _____    ______ ____
DOCKED: USER                              x       y       z     vdW  Elec       q    Type
DOCKED: USER                           _______ _______ _______ _____ _____    ______ ____
DOCKED: ROOT
DOCKED: ATOM      1  C   UNL     1      30.716 -14.796  -0.083 -0.09 -0.00    +0.000 C 
DOCKED: ENDROOT
DOCKED: BRANCH   1   2
DOCKED: ATOM      2  C   UNL     1      30.498 -14.578   1.386 -0.11 -0.00    +0.000 A 
DOCKED: ATOM      3  C   UNL     1      31.316 -15.228   2.324 -0.16 -0.00    +0.000 A 
DOCKED: ATOM      4  C   UNL     1      31.093 -15.058   3.694 -0.23 -0.00    +0.000 A 
DOCKED: ATOM      5  C   UNL     1      30.042 -14.248   4.144 -0.30 -0.00    +0.000 A 
DOCKED: ATOM      6  C   UNL     1      29.810 -14.073   5.517 -0.25 -0.00    +0.000 A 
DOCKED: ATOM      7  C   UNL     1      28.752 -13.264   5.961 -0.39 -0.00    +0.000 A 
DOCKED: ATOM      8  C   UNL     1      27.926 -12.628   5.022 -0.38 -0.00    +0.000 A 
DOCKED: ATOM      9  C   UNL     1      28.147 -12.797   3.653 -0.29 -0.00    +0.000 A 
DOCKED: ATOM     10  C   UNL     1      29.203 -13.604   3.203 -0.22 -0.00    +0.000 A 
DOCKED: ATOM     11  C   UNL     1      29.434 -13.778   1.831 -0.14 -0.00    +0.000 A 
DOCKED: BRANCH   7  12
DOCKED: ATOM     12  C   UNL     1      28.512 -13.057   7.434 -0.25 -0.00    +0.000 C 
DOCKED: BRANCH  12  13
DOCKED: ATOM     13  N   UNL     1      29.685 -12.404   8.054 -0.30 -0.00    +0.000 N 
DOCKED: ATOM     14  H   UNL     1      30.466 -13.060   8.022 -0.01 -0.00    +0.000 HD
DOCKED: BRANCH  13  15
DOCKED: ATOM     15  C   UNL     1      29.453 -12.129   9.492 -0.35 -0.00    +0.000 C 
DOCKED: ATOM     16  C   UNL     1      28.328 -12.992  10.063 -0.49 -0.00    +0.000 C 
DOCKED: ENDBRANCH  13  15
DOCKED: BRANCH  13  17
DOCKED: ATOM     17  C   UNL     1      30.145 -11.227   7.276 -0.21 -0.00    +0.000 C 
DOCKED: ATOM     18  C   UNL     1      29.213 -10.010   7.362 -0.29 +0.00    +0.000 C 
DOCKED: ENDBRANCH  13  17
DOCKED: ENDBRANCH  12  13
DOCKED: ENDBRANCH   7  12
DOCKED: ENDBRANCH   1   2
DOCKED: BRANCH   1  19
DOCKED: ATOM     19  O   UNL     1      30.438 -16.155  -0.402 -0.17 -0.00    +0.000 OA
DOCKED: BRANCH  19  21
DOCKED: ATOM     20  O   UNL     1      29.085 -17.236  -1.926 -0.31 -0.00    +0.000 OA
DOCKED: ATOM     21  C   UNL     1      29.187 -16.584  -0.850 -0.26 -0.00    +0.000 C 
DOCKED: ATOM     22  N   UNL     1      28.019 -16.237  -0.093 -0.30 -0.00    +0.000 N 
DOCKED: ATOM     23  H   UNL     1      28.126 -15.597   0.648 -0.22 -0.00    +0.000 HD
DOCKED: BRANCH  22  24
DOCKED: ATOM     24  C   UNL     1      26.705 -16.762  -0.343 -0.44 -0.00    +0.000 A 
DOCKED: ATOM     25  C   UNL     1      25.741 -15.945  -0.948 -0.42 -0.00    +0.000 A 
DOCKED: ATOM     26  C   UNL     1      24.449 -16.423  -1.182 -0.44 -0.00    +0.000 A 
DOCKED: ATOM     27  C   UNL     1      24.091 -17.729  -0.808 -0.68 -0.00    +0.000 A 
DOCKED: ATOM     28  C   UNL     1      25.049 -18.537  -0.167 -0.49 -0.00    +0.000 A 
DOCKED: ATOM     29  C   UNL     1      26.341 -18.057   0.066 -0.54 -0.00    +0.000 A 
DOCKED: BRANCH  27  30
DOCKED: ATOM     30  C   UNL     1      22.715 -18.222  -1.059 -0.81 -0.00    +0.000 C 
DOCKED: ATOM     31  N   UNL     1      21.566 -17.439  -0.713 -0.71 -0.00    +0.000 N 
DOCKED: ATOM     32  O   UNL     1      22.547 -19.360  -1.576 -0.82 -0.00    +0.000 OA
DOCKED: ATOM     33  H   UNL     1      21.680 -16.588  -0.231 -0.05 -0.00    +0.000 HD
DOCKED: BRANCH  31  34
DOCKED: ATOM     34  O   UNL     1      20.324 -17.865  -1.044 -2.19 -0.00    +0.000 OA
DOCKED: ATOM     35  H   UNL     1      20.380 -18.748  -1.445 -0.07 -0.00    +0.000 HD
DOCKED: ENDBRANCH  31  34
DOCKED: ENDBRANCH  27  30
DOCKED: ENDBRANCH  22  24
DOCKED: ENDBRANCH  19  21
DOCKED: ENDBRANCH   1  19
DOCKED: TORSDOF 10
DOCKED: TER
DOCKED: ENDMDL
________________________________________________________________________________


	BEGINNING GENETIC ALGORITHM DOCKING 33 of 100
Run: 33 Seed: 1778905969 367761073 [ Run 33 of 100 GA/GALS ]
Beginning LAMARCKIAN GENETIC ALGORITHM (LGA), with a maximum of 2500000 energy evaluations.

Final-Value: -16.888


	FINAL GENETIC ALGORITHM DOCKED STATE
	_______________________________________________


Detailed state:  trans 28.293 -15.435 -0.573 quatxyzw 0.858369 -0.194869 0.472780 -0.041320 center 1.857 0.216 -0.019 ntor 10 -138.9733 178.5248 22.8681 -79.2915 -29.4506 141.8512 -148.2120 -128.3707 170.2846 -146.7189
State:	 28.293 -15.435  -0.573   0.859 -0.195  0.473 -175.264   -138.97  178.52   22.87  -79.29  -29.45  141.85 -148.21 -128.37  170.28 -146.72

DOCKED: MODEL       33
DOCKED: USER    Run = 33
DOCKED: USER    DPF = ligand_dock.biased.dpf
DOCKED: USER  
DOCKED: USER    Estimated Free Energy of Binding    =  -11.19 kcal/mol  [=(1)+(2)+(3)-(4)]
DOCKED: USER    Estimated Inhibition Constant, Ki   =    6.30 nM (nanomolar)  [Temperature = 298.15 K]
DOCKED: USER    
DOCKED: USER    (1) Final Intermolecular Energy     =  -14.17 kcal/mol
DOCKED: USER        vdW + Hbond + desolv Energy     =  -14.17 kcal/mol
DOCKED: USER        Electrostatic Energy            =   +0.00 kcal/mol
DOCKED: USER    (2) Final Total Internal Energy     =   -2.72 kcal/mol
DOCKED: USER    (3) Torsional Free Energy           =   +2.98 kcal/mol
DOCKED: USER    (4) Unbound System's Energy  [=(2)] =   -2.72 kcal/mol
DOCKED: USER    
DOCKED: USER    
DOCKED: USER    NEWDPF move ligand.pdbqt
DOCKED: USER    NEWDPF about 1.857000 0.216000 -0.019000
DOCKED: USER    NEWDPF tran0 28.292930 -15.434980 -0.572604
DOCKED: USER    NEWDPF quaternion0 0.858369 -0.194869 0.472780 -0.041320
DOCKED: USER    NEWDPF axisangle0 0.859103 -0.195036 0.473184 -175.263763
DOCKED: USER    NEWDPF quat0 0.859103 -0.195036 0.473184 -175.263763
DOCKED: USER    NEWDPF dihe0 -138.97 178.52 22.87 -79.29 -29.45 141.85 -148.21 -128.37 170.28 -146.72 
DOCKED: USER  keepresnum = 1 
DOCKED: USER  
DOCKED: REMARK  Name = 
DOCKED: REMARK  12 active torsions:
DOCKED: REMARK  status: ('A' for Active; 'I' for Inactive)
DOCKED: REMARK    1  A    between atoms: C_2  and  O_3
DOCKED: REMARK    2  A    between atoms: O_3  and  C_4
DOCKED: REMARK    3  A    between atoms: C_4  and  C_5
DOCKED: REMARK    4  A    between atoms: C_10  and  C_11
DOCKED: REMARK    5  A    between atoms: C_11  and  N_12
DOCKED: REMARK    6  A    between atoms: N_12  and  C_13
DOCKED: REMARK    7  A    between atoms: N_12  and  C_15
DOCKED: REMARK    8  A    between atoms: C_13  and  C_14
DOCKED: REMARK    9  A    between atoms: C_15  and  C_16
DOCKED: REMARK   10  A    between atoms: N_21  and  C_22
DOCKED: REMARK   11  A    between atoms: C_25  and  C_26
DOCKED: REMARK   12  A    between atoms: N_27  and  O_28
DOCKED: REMARK                            x       y       z     vdW  Elec       q    Type
DOCKED: REMARK                         _______ _______ _______ _____ _____    ______ ____
DOCKED: USER                              x       y       z     vdW  Elec       q    Type
DOCKED: USER                           _______ _______ _______ _____ _____    ______ ____
DOCKED: ROOT
DOCKED: ATOM      1  C   UNL     1      29.660 -15.172  -1.458 -0.12 -0.00    +0.000 C 
DOCKED: ENDROOT
DOCKED: BRANCH   1   2
DOCKED: ATOM      2  C   UNL     1      28.616 -14.523  -2.319 -0.12 -0.00    +0.000 A 
DOCKED: ATOM      3  C   UNL     1      27.943 -15.272  -3.297 -0.25 -0.00    +0.000 A 
DOCKED: ATOM      4  C   UNL     1      26.997 -14.664  -4.127 -0.38 -0.00    +0.000 A 
DOCKED: ATOM      5  C   UNL     1      26.721 -13.296  -3.999 -0.28 -0.00    +0.000 A 
DOCKED: ATOM      6  C   UNL     1      25.773 -12.677  -4.829 -0.15 -0.00    +0.000 A 
DOCKED: ATOM      7  C   UNL     1      25.504 -11.305  -4.699 -0.32 -0.00    +0.000 A 
DOCKED: ATOM      8  C   UNL     1      26.189 -10.554  -3.731 -0.15 -0.00    +0.000 A 
DOCKED: ATOM      9  C   UNL     1      27.135 -11.161  -2.902 -0.11 -0.00    +0.000 A 
DOCKED: ATOM     10  C   UNL     1      27.408 -12.531  -3.026 -0.14 -0.00    +0.000 A 
DOCKED: ATOM     11  C   UNL     1      28.355 -13.150  -2.197 -0.09 -0.00    +0.000 A 
DOCKED: BRANCH   7  12
DOCKED: ATOM     12  C   UNL     1      24.474 -10.639  -5.573 -0.44 -0.00    +0.000 C 
DOCKED: BRANCH  12  13
DOCKED: ATOM     13  N   UNL     1      25.138  -9.796  -6.590 -0.25 -0.00    +0.000 N 
DOCKED: ATOM     14  H   UNL     1      25.883  -9.272  -6.130 +0.00 -0.00    +0.000 HD
DOCKED: BRANCH  13  15
DOCKED: ATOM     15  C   UNL     1      24.211  -8.776  -7.136 -0.31 -0.00    +0.000 C 
DOCKED: ATOM     16  C   UNL     1      23.122  -8.400  -6.131 -0.44 -0.00    +0.000 C 
DOCKED: ENDBRANCH  13  15
DOCKED: BRANCH  13  17
DOCKED: ATOM     17  C   UNL     1      25.827 -10.608  -7.625 -0.26 -0.00    +0.000 C 
DOCKED: ATOM     18  C   UNL     1      27.354 -10.455  -7.635 -0.15 -0.00    +0.000 C 
DOCKED: ENDBRANCH  13  17
DOCKED: ENDBRANCH  12  13
DOCKED: ENDBRANCH   7  12
DOCKED: ENDBRANCH   1   2
DOCKED: BRANCH   1  19
DOCKED: ATOM     19  O   UNL     1      29.087 -15.509  -0.199 -0.21 -0.00    +0.000 OA
DOCKED: BRANCH  19  21
DOCKED: ATOM     20  O   UNL     1      27.014 -15.345   0.800 -0.32 -0.00    +0.000 OA
DOCKED: ATOM     21  C   UNL     1      27.753 -15.900  -0.058 -0.33 -0.00    +0.000 C 
DOCKED: ATOM     22  N   UNL     1      27.251 -16.968  -0.874 -0.43 -0.00    +0.000 N 
DOCKED: ATOM     23  H   UNL     1      27.899 -17.478  -1.412 -0.03 -0.00    +0.000 HD
DOCKED: BRANCH  22  24
DOCKED: ATOM     24  C   UNL     1      25.866 -17.343  -0.956 -0.55 -0.00    +0.000 A 
DOCKED: ATOM     25  C   UNL     1      24.938 -16.436  -1.484 -0.53 -0.00    +0.000 A 
DOCKED: ATOM     26  C   UNL     1      23.582 -16.767  -1.555 -0.09 -0.00    +0.000 A 
DOCKED: ATOM     27  C   UNL     1      23.124 -18.012  -1.091 -0.70 -0.00    +0.000 A 
DOCKED: ATOM     28  C   UNL     1      24.051 -18.908  -0.528 -0.52 -0.00    +0.000 A 
DOCKED: ATOM     29  C   UNL     1      25.408 -18.575  -0.458 -0.54 -0.00    +0.000 A 
DOCKED: BRANCH  27  30
DOCKED: ATOM     30  C   UNL     1      21.681 -18.348  -1.169 -0.58 -0.00    +0.000 C 
DOCKED: ATOM     31  N   UNL     1      21.229 -19.565  -1.776 -0.61 -0.00    +0.000 N 
DOCKED: ATOM     32  O   UNL     1      20.830 -17.541  -0.706 -2.11 +0.00    +0.000 OA
DOCKED: ATOM     33  H   UNL     1      21.876 -20.161  -2.218 -0.56 -0.00    +0.000 HD
DOCKED: BRANCH  31  34
DOCKED: ATOM     34  O   UNL     1      19.917 -19.896  -1.745 -1.78 -0.00    +0.000 OA
DOCKED: ATOM     35  H   UNL     1      19.383 -19.095  -1.619 -0.36 -0.00    +0.000 HD
DOCKED: ENDBRANCH  31  34
DOCKED: ENDBRANCH  27  30
DOCKED: ENDBRANCH  22  24
DOCKED: ENDBRANCH  19  21
DOCKED: ENDBRANCH   1  19
DOCKED: TORSDOF 10
DOCKED: TER
DOCKED: ENDMDL
________________________________________________________________________________


	BEGINNING GENETIC ALGORITHM DOCKING 34 of 100
Run: 34 Seed: 995757659 1617557889 [ Run 34 of 100 GA/GALS ]
Beginning LAMARCKIAN GENETIC ALGORITHM (LGA), with a maximum of 2500000 energy evaluations.

Final-Value: -15.260


	FINAL GENETIC ALGORITHM DOCKED STATE
	_______________________________________________


Detailed state:  trans 28.410 -16.143 -1.105 quatxyzw 0.152825 0.441093 0.735222 0.491457 center 1.857 0.216 -0.019 ntor 10 161.6805 -163.5878 -3.9583 -80.3505 -55.0934 -45.0263 104.8811 -179.3675 148.8344 68.2150
State:	 28.410 -16.143  -1.105   0.175  0.506  0.844 121.127    161.68 -163.59   -3.96  -80.35  -55.09  -45.03  104.88 -179.37  148.83   68.21

DOCKED: MODEL       34
DOCKED: USER    Run = 34
DOCKED: USER    DPF = ligand_dock.biased.dpf
DOCKED: USER  
DOCKED: USER    Estimated Free Energy of Binding    =  -10.12 kcal/mol  [=(1)+(2)+(3)-(4)]
DOCKED: USER    Estimated Inhibition Constant, Ki   =   38.23 nM (nanomolar)  [Temperature = 298.15 K]
DOCKED: USER    
DOCKED: USER    (1) Final Intermolecular Energy     =  -13.10 kcal/mol
DOCKED: USER        vdW + Hbond + desolv Energy     =  -13.10 kcal/mol
DOCKED: USER        Electrostatic Energy            =   +0.00 kcal/mol
DOCKED: USER    (2) Final Total Internal Energy     =   -2.16 kcal/mol
DOCKED: USER    (3) Torsional Free Energy           =   +2.98 kcal/mol
DOCKED: USER    (4) Unbound System's Energy  [=(2)] =   -2.16 kcal/mol
DOCKED: USER    
DOCKED: USER    
DOCKED: USER    NEWDPF move ligand.pdbqt
DOCKED: USER    NEWDPF about 1.857000 0.216000 -0.019000
DOCKED: USER    NEWDPF tran0 28.409973 -16.143182 -1.105288
DOCKED: USER    NEWDPF quaternion0 0.152825 0.441093 0.735222 0.491457
DOCKED: USER    NEWDPF axisangle0 0.175479 0.506479 0.844208 121.127187
DOCKED: USER    NEWDPF quat0 0.175479 0.506479 0.844208 121.127187
DOCKED: USER    NEWDPF dihe0 161.68 -163.59 -3.96 -80.35 -55.09 -45.03 104.88 -179.37 148.83 68.21 
DOCKED: USER  keepresnum = 1 
DOCKED: USER  
DOCKED: REMARK  Name = 
DOCKED: REMARK  12 active torsions:
DOCKED: REMARK  status: ('A' for Active; 'I' for Inactive)
DOCKED: REMARK    1  A    between atoms: C_2  and  O_3
DOCKED: REMARK    2  A    between atoms: O_3  and  C_4
DOCKED: REMARK    3  A    between atoms: C_4  and  C_5
DOCKED: REMARK    4  A    between atoms: C_10  and  C_11
DOCKED: REMARK    5  A    between atoms: C_11  and  N_12
DOCKED: REMARK    6  A    between atoms: N_12  and  C_13
DOCKED: REMARK    7  A    between atoms: N_12  and  C_15
DOCKED: REMARK    8  A    between atoms: C_13  and  C_14
DOCKED: REMARK    9  A    between atoms: C_15  and  C_16
DOCKED: REMARK   10  A    between atoms: N_21  and  C_22
DOCKED: REMARK   11  A    between atoms: C_25  and  C_26
DOCKED: REMARK   12  A    between atoms: N_27  and  O_28
DOCKED: REMARK                            x       y       z     vdW  Elec       q    Type
DOCKED: REMARK                         _______ _______ _______ _____ _____    ______ ____
DOCKED: USER                              x       y       z     vdW  Elec       q    Type
DOCKED: USER                           _______ _______ _______ _____ _____    ______ ____
DOCKED: ROOT
DOCKED: ATOM      1  C   UNL     1      27.610 -14.763  -0.685 -0.25 -0.00    +0.000 C 
DOCKED: ENDROOT
DOCKED: BRANCH   1   2
DOCKED: ATOM      2  C   UNL     1      28.285 -14.342  -1.957 -0.13 -0.00    +0.000 A 
DOCKED: ATOM      3  C   UNL     1      29.331 -13.407  -1.926 -0.05 -0.00    +0.000 A 
DOCKED: ATOM      4  C   UNL     1      29.938 -12.983  -3.112 -0.03 -0.00    +0.000 A 
DOCKED: ATOM      5  C   UNL     1      29.497 -13.480  -4.346 -0.08 -0.00    +0.000 A 
DOCKED: ATOM      6  C   UNL     1      30.100 -13.059  -5.542 -0.08 -0.00    +0.000 A 
DOCKED: ATOM      7  C   UNL     1      29.651 -13.556  -6.776 -0.21 -0.00    +0.000 A 
DOCKED: ATOM      8  C   UNL     1      28.595 -14.479  -6.808 -0.27 -0.00    +0.000 A 
DOCKED: ATOM      9  C   UNL     1      27.987 -14.903  -5.623 -0.37 -0.00    +0.000 A 
DOCKED: ATOM     10  C   UNL     1      28.431 -14.410  -4.387 -0.21 -0.00    +0.000 A 
DOCKED: ATOM     11  C   UNL     1      27.829 -14.831  -3.192 -0.22 -0.00    +0.000 A 
DOCKED: BRANCH   7  12
DOCKED: ATOM     12  C   UNL     1      30.307 -13.124  -8.062 -0.14 -0.00    +0.000 C 
DOCKED: BRANCH  12  13
DOCKED: ATOM     13  N   UNL     1      31.698 -13.624  -8.116 -0.14 -0.00    +0.000 N 
DOCKED: ATOM     14  H   UNL     1      32.133 -13.449  -7.210 +0.00 -0.00    +0.000 HD
DOCKED: BRANCH  13  15
DOCKED: ATOM     15  C   UNL     1      32.507 -12.867  -9.100 -0.11 -0.00    +0.000 C 
DOCKED: ATOM     16  C   UNL     1      31.664 -12.386 -10.281 -0.15 -0.00    +0.000 C 
DOCKED: ENDBRANCH  13  15
DOCKED: BRANCH  13  17
DOCKED: ATOM     17  C   UNL     1      31.754 -15.098  -8.288 -0.18 -0.00    +0.000 C 
DOCKED: ATOM     18  C   UNL     1      31.941 -15.879  -6.980 -0.17 -0.00    +0.000 C 
DOCKED: ENDBRANCH  13  17
DOCKED: ENDBRANCH  12  13
DOCKED: ENDBRANCH   7  12
DOCKED: ENDBRANCH   1   2
DOCKED: BRANCH   1  19
DOCKED: ATOM     19  O   UNL     1      27.751 -16.170  -0.522 -0.35 -0.00    +0.000 OA
DOCKED: BRANCH  19  21
DOCKED: ATOM     20  O   UNL     1      26.848 -18.292  -0.465 -0.63 -0.00    +0.000 OA
DOCKED: ATOM     21  C   UNL     1      26.670 -17.052  -0.611 -0.53 -0.00    +0.000 C 
DOCKED: ATOM     22  N   UNL     1      25.369 -16.529  -0.910 -0.50 -0.00    +0.000 N 
DOCKED: ATOM     23  H   UNL     1      25.303 -15.583  -1.172 -0.02 -0.00    +0.000 HD
DOCKED: BRANCH  22  24
DOCKED: ATOM     24  C   UNL     1      24.154 -17.297  -0.852 -0.63 -0.00    +0.000 A 
DOCKED: ATOM     25  C   UNL     1      24.139 -18.599  -1.367 -0.59 -0.00    +0.000 A 
DOCKED: ATOM     26  C   UNL     1      22.966 -19.359  -1.344 -0.59 -0.00    +0.000 A 
DOCKED: ATOM     27  C   UNL     1      21.779 -18.827  -0.810 -0.76 -0.00    +0.000 A 
DOCKED: ATOM     28  C   UNL     1      21.787 -17.506  -0.327 -0.54 -0.00    +0.000 A 
DOCKED: ATOM     29  C   UNL     1      22.962 -16.748  -0.350 -0.23 -0.00    +0.000 A 
DOCKED: BRANCH  27  30
DOCKED: ATOM     30  C   UNL     1      20.541 -19.644  -0.796 -0.88 -0.00    +0.000 C 
DOCKED: ATOM     31  N   UNL     1      20.082 -20.283   0.402 -0.71 -0.00    +0.000 N 
DOCKED: ATOM     32  O   UNL     1      19.883 -19.793  -1.861 -1.87 -0.00    +0.000 OA
DOCKED: ATOM     33  H   UNL     1      20.631 -20.247   1.218 -0.42 -0.00    +0.000 HD
DOCKED: BRANCH  31  34
DOCKED: ATOM     34  O   UNL     1      18.897 -20.938   0.415 -0.79 -0.00    +0.000 OA
DOCKED: ATOM     35  H   UNL     1      18.456 -20.826  -0.443 -0.28 -0.00    +0.000 HD
DOCKED: ENDBRANCH  31  34
DOCKED: ENDBRANCH  27  30
DOCKED: ENDBRANCH  22  24
DOCKED: ENDBRANCH  19  21
DOCKED: ENDBRANCH   1  19
DOCKED: TORSDOF 10
DOCKED: TER
DOCKED: ENDMDL
________________________________________________________________________________


	BEGINNING GENETIC ALGORITHM DOCKING 35 of 100
Run: 35 Seed: 998616128 1294275658 [ Run 35 of 100 GA/GALS ]
Beginning LAMARCKIAN GENETIC ALGORITHM (LGA), with a maximum of 2500000 energy evaluations.

Final-Value: -15.033


	FINAL GENETIC ALGORITHM DOCKED STATE
	_______________________________________________


Detailed state:  trans 29.738 -17.267 -0.734 quatxyzw -0.428587 -0.352410 -0.761182 -0.335742 center 1.857 0.216 -0.019 ntor 10 180.0000 -30.2653 19.9183 -44.7765 151.4749 13.2903 -176.1564 136.2211 75.5276 111.1315
State:	 29.738 -17.267  -0.734  -0.455 -0.374 -0.808 -140.765    180.00  -30.27   19.92  -44.78  151.47   13.29 -176.16  136.22   75.53  111.13

DOCKED: MODEL       35
DOCKED: USER    Run = 35
DOCKED: USER    DPF = ligand_dock.biased.dpf
DOCKED: USER  
DOCKED: USER    Estimated Free Energy of Binding    =   -9.90 kcal/mol  [=(1)+(2)+(3)-(4)]
DOCKED: USER    Estimated Inhibition Constant, Ki   =   55.04 nM (nanomolar)  [Temperature = 298.15 K]
DOCKED: USER    
DOCKED: USER    (1) Final Intermolecular Energy     =  -12.89 kcal/mol
DOCKED: USER        vdW + Hbond + desolv Energy     =  -12.89 kcal/mol
DOCKED: USER        Electrostatic Energy            =   +0.00 kcal/mol
DOCKED: USER    (2) Final Total Internal Energy     =   -2.15 kcal/mol
DOCKED: USER    (3) Torsional Free Energy           =   +2.98 kcal/mol
DOCKED: USER    (4) Unbound System's Energy  [=(2)] =   -2.15 kcal/mol
DOCKED: USER    
DOCKED: USER    
DOCKED: USER    NEWDPF move ligand.pdbqt
DOCKED: USER    NEWDPF about 1.857000 0.216000 -0.019000
DOCKED: USER    NEWDPF tran0 29.737657 -17.267347 -0.734188
DOCKED: USER    NEWDPF quaternion0 -0.428587 -0.352410 -0.761182 -0.335742
DOCKED: USER    NEWDPF axisangle0 -0.454998 -0.374127 -0.808088 -140.764729
DOCKED: USER    NEWDPF quat0 -0.454998 -0.374127 -0.808088 -140.764729
DOCKED: USER    NEWDPF dihe0 180.00 -30.27 19.92 -44.78 151.47 13.29 -176.16 136.22 75.53 111.13 
DOCKED: USER  keepresnum = 1 
DOCKED: USER  
DOCKED: REMARK  Name = 
DOCKED: REMARK  12 active torsions:
DOCKED: REMARK  status: ('A' for Active; 'I' for Inactive)
DOCKED: REMARK    1  A    between atoms: C_2  and  O_3
DOCKED: REMARK    2  A    between atoms: O_3  and  C_4
DOCKED: REMARK    3  A    between atoms: C_4  and  C_5
DOCKED: REMARK    4  A    between atoms: C_10  and  C_11
DOCKED: REMARK    5  A    between atoms: C_11  and  N_12
DOCKED: REMARK    6  A    between atoms: N_12  and  C_13
DOCKED: REMARK    7  A    between atoms: N_12  and  C_15
DOCKED: REMARK    8  A    between atoms: C_13  and  C_14
DOCKED: REMARK    9  A    between atoms: C_15  and  C_16
DOCKED: REMARK   10  A    between atoms: N_21  and  C_22
DOCKED: REMARK   11  A    between atoms: C_25  and  C_26
DOCKED: REMARK   12  A    between atoms: N_27  and  O_28
DOCKED: REMARK                            x       y       z     vdW  Elec       q    Type
DOCKED: REMARK                         _______ _______ _______ _____ _____    ______ ____
DOCKED: USER                              x       y       z     vdW  Elec       q    Type
DOCKED: USER                           _______ _______ _______ _____ _____    ______ ____
DOCKED: ROOT
DOCKED: ATOM      1  C   UNL     1      29.898 -15.649  -0.458 -0.16 -0.00    +0.000 C 
DOCKED: ENDROOT
DOCKED: BRANCH   1   2
DOCKED: ATOM      2  C   UNL     1      30.163 -15.729  -1.934 -0.10 -0.00    +0.000 A 
DOCKED: ATOM      3  C   UNL     1      30.364 -14.557  -2.679 -0.04 -0.00    +0.000 A 
DOCKED: ATOM      4  C   UNL     1      30.573 -14.625  -4.060 -0.06 -0.00    +0.000 A 
DOCKED: ATOM      5  C   UNL     1      30.571 -15.864  -4.715 -0.15 -0.00    +0.000 A 
DOCKED: ATOM      6  C   UNL     1      30.780 -15.941  -6.101 -0.22 -0.00    +0.000 A 
DOCKED: ATOM      7  C   UNL     1      30.772 -17.185  -6.752 -0.30 -0.00    +0.000 A 
DOCKED: ATOM      8  C   UNL     1      30.555 -18.355  -6.007 -0.33 -0.00    +0.000 A 
DOCKED: ATOM      9  C   UNL     1      30.345 -18.288  -4.628 -0.22 -0.00    +0.000 A 
DOCKED: ATOM     10  C   UNL     1      30.352 -17.049  -3.971 -0.20 -0.00    +0.000 A 
DOCKED: ATOM     11  C   UNL     1      30.144 -16.972  -2.586 -0.17 -0.00    +0.000 A 
DOCKED: BRANCH   7  12
DOCKED: ATOM     12  C   UNL     1      31.015 -17.276  -8.235 -0.23 -0.00    +0.000 C 
DOCKED: BRANCH  12  13
DOCKED: ATOM     13  N   UNL     1      32.137 -18.199  -8.511 -0.20 -0.00    +0.000 N 
DOCKED: ATOM     14  H   UNL     1      32.582 -18.431  -7.623 +0.00 -0.00    +0.000 HD
DOCKED: BRANCH  13  15
DOCKED: ATOM     15  C   UNL     1      33.188 -17.544  -9.326 -0.14 -0.00    +0.000 C 
DOCKED: ATOM     16  C   UNL     1      32.698 -16.233  -9.940 -0.18 -0.00    +0.000 C 
DOCKED: ENDBRANCH  13  15
DOCKED: BRANCH  13  17
DOCKED: ATOM     17  C   UNL     1      31.669 -19.499  -9.054 -0.30 -0.00    +0.000 C 
DOCKED: ATOM     18  C   UNL     1      30.463 -19.393  -9.997 -0.37 -0.00    +0.000 C 
DOCKED: ENDBRANCH  13  17
DOCKED: ENDBRANCH  12  13
DOCKED: ENDBRANCH   7  12
DOCKED: ENDBRANCH   1   2
DOCKED: BRANCH   1  19
DOCKED: ATOM     19  O   UNL     1      29.413 -16.906   0.001 -0.22 -0.00    +0.000 OA
DOCKED: BRANCH  19  21
DOCKED: ATOM     20  O   UNL     1      28.029 -18.610  -0.707 -0.24 -0.00    +0.000 OA
DOCKED: ATOM     21  C   UNL     1      28.158 -17.406  -0.355 -0.14 -0.00    +0.000 C 
DOCKED: ATOM     22  N   UNL     1      27.030 -16.520  -0.354 -0.41 -0.00    +0.000 N 
DOCKED: ATOM     23  H   UNL     1      27.202 -15.559  -0.229 -0.01 -0.00    +0.000 HD
DOCKED: BRANCH  22  24
DOCKED: ATOM     24  C   UNL     1      25.666 -16.943  -0.522 -0.47 -0.00    +0.000 A 
DOCKED: ATOM     25  C   UNL     1      25.251 -18.161   0.032 -0.58 -0.00    +0.000 A 
DOCKED: ATOM     26  C   UNL     1      23.937 -18.607  -0.137 -0.57 -0.00    +0.000 A 
DOCKED: ATOM     27  C   UNL     1      23.011 -17.845  -0.870 -0.71 -0.00    +0.000 A 
DOCKED: ATOM     28  C   UNL     1      23.440 -16.639  -1.456 +0.09 -0.00    +0.000 A 
DOCKED: ATOM     29  C   UNL     1      24.755 -16.195  -1.286 -0.42 -0.00    +0.000 A 
DOCKED: BRANCH  27  30
DOCKED: ATOM     30  C   UNL     1      21.621 -18.332  -1.044 -0.75 -0.00    +0.000 C 
DOCKED: ATOM     31  N   UNL     1      21.347 -19.657  -1.516 -0.62 -0.00    +0.000 N 
DOCKED: ATOM     32  O   UNL     1      20.656 -17.562  -0.784 -2.13 -0.00    +0.000 OA
DOCKED: ATOM     33  H   UNL     1      22.088 -20.237  -1.803 -0.44 -0.00    +0.000 HD
DOCKED: BRANCH  31  34
DOCKED: ATOM     34  O   UNL     1      20.073 -20.113  -1.569 -1.64 -0.00    +0.000 OA
DOCKED: ATOM     35  H   UNL     1      19.460 -19.361  -1.563 -0.27 -0.00    +0.000 HD
DOCKED: ENDBRANCH  31  34
DOCKED: ENDBRANCH  27  30
DOCKED: ENDBRANCH  22  24
DOCKED: ENDBRANCH  19  21
DOCKED: ENDBRANCH   1  19
DOCKED: TORSDOF 10
DOCKED: TER
DOCKED: ENDMDL
________________________________________________________________________________


	BEGINNING GENETIC ALGORITHM DOCKING 36 of 100
Run: 36 Seed: 1024796865 1623079941 [ Run 36 of 100 GA/GALS ]
Beginning LAMARCKIAN GENETIC ALGORITHM (LGA), with a maximum of 2500000 energy evaluations.

Final-Value: -15.446


	FINAL GENETIC ALGORITHM DOCKED STATE
	_______________________________________________


Detailed state:  trans 29.953 -16.423 -2.075 quatxyzw -0.402895 0.576520 0.513674 -0.491365 center 1.857 0.216 -0.019 ntor 10 -42.1811 50.9858 -155.3413 -34.6738 -179.4891 41.6852 111.8184 120.6882 122.2570 -100.2344
State:	 29.953 -16.423  -2.075  -0.463  0.662  0.590 -121.139    -42.18   50.99 -155.34  -34.67 -179.49   41.69  111.82  120.69  122.26 -100.23

DOCKED: MODEL       36
DOCKED: USER    Run = 36
DOCKED: USER    DPF = ligand_dock.biased.dpf
DOCKED: USER  
DOCKED: USER    Estimated Free Energy of Binding    =  -10.73 kcal/mol  [=(1)+(2)+(3)-(4)]
DOCKED: USER    Estimated Inhibition Constant, Ki   =   13.58 nM (nanomolar)  [Temperature = 298.15 K]
DOCKED: USER    
DOCKED: USER    (1) Final Intermolecular Energy     =  -13.72 kcal/mol
DOCKED: USER        vdW + Hbond + desolv Energy     =  -13.72 kcal/mol
DOCKED: USER        Electrostatic Energy            =   +0.00 kcal/mol
DOCKED: USER    (2) Final Total Internal Energy     =   -1.73 kcal/mol
DOCKED: USER    (3) Torsional Free Energy           =   +2.98 kcal/mol
DOCKED: USER    (4) Unbound System's Energy  [=(2)] =   -1.73 kcal/mol
DOCKED: USER    
DOCKED: USER    
DOCKED: USER    NEWDPF move ligand.pdbqt
DOCKED: USER    NEWDPF about 1.857000 0.216000 -0.019000
DOCKED: USER    NEWDPF tran0 29.952833 -16.423171 -2.074656
DOCKED: USER    NEWDPF quaternion0 -0.402895 0.576520 0.513674 -0.491365
DOCKED: USER    NEWDPF axisangle0 -0.462591 0.661941 0.589783 -121.139312
DOCKED: USER    NEWDPF quat0 -0.462591 0.661941 0.589783 -121.139312
DOCKED: USER    NEWDPF dihe0 -42.18 50.99 -155.34 -34.67 -179.49 41.69 111.82 120.69 122.26 -100.23 
DOCKED: USER  keepresnum = 1 
DOCKED: USER  
DOCKED: REMARK  Name = 
DOCKED: REMARK  12 active torsions:
DOCKED: REMARK  status: ('A' for Active; 'I' for Inactive)
DOCKED: REMARK    1  A    between atoms: C_2  and  O_3
DOCKED: REMARK    2  A    between atoms: O_3  and  C_4
DOCKED: REMARK    3  A    between atoms: C_4  and  C_5
DOCKED: REMARK    4  A    between atoms: C_10  and  C_11
DOCKED: REMARK    5  A    between atoms: C_11  and  N_12
DOCKED: REMARK    6  A    between atoms: N_12  and  C_13
DOCKED: REMARK    7  A    between atoms: N_12  and  C_15
DOCKED: REMARK    8  A    between atoms: C_13  and  C_14
DOCKED: REMARK    9  A    between atoms: C_15  and  C_16
DOCKED: REMARK   10  A    between atoms: N_21  and  C_22
DOCKED: REMARK   11  A    between atoms: C_25  and  C_26
DOCKED: REMARK   12  A    between atoms: N_27  and  O_28
DOCKED: REMARK                            x       y       z     vdW  Elec       q    Type
DOCKED: REMARK                         _______ _______ _______ _____ _____    ______ ____
DOCKED: USER                              x       y       z     vdW  Elec       q    Type
DOCKED: USER                           _______ _______ _______ _____ _____    ______ ____
DOCKED: ROOT
DOCKED: ATOM      1  C   UNL     1      30.846 -15.037  -2.032 -0.05 -0.00    +0.000 C 
DOCKED: ENDROOT
DOCKED: BRANCH   1   2
DOCKED: ATOM      2  C   UNL     1      31.142 -15.626  -0.683 -0.08 -0.00    +0.000 A 
DOCKED: ATOM      3  C   UNL     1      31.171 -14.805   0.454 -0.08 -0.00    +0.000 A 
DOCKED: ATOM      4  C   UNL     1      31.484 -15.343   1.707 -0.13 -0.00    +0.000 A 
DOCKED: ATOM      5  C   UNL     1      31.784 -16.706   1.835 -0.11 -0.00    +0.000 A 
DOCKED: ATOM      6  C   UNL     1      32.099 -17.254   3.088 -0.24 -0.00    +0.000 A 
DOCKED: ATOM      7  C   UNL     1      32.404 -18.619   3.210 -0.29 -0.00    +0.000 A 
DOCKED: ATOM      8  C   UNL     1      32.390 -19.435   2.068 -0.19 -0.00    +0.000 A 
DOCKED: ATOM      9  C   UNL     1      32.079 -18.899   0.817 -0.13 -0.00    +0.000 A 
DOCKED: ATOM     10  C   UNL     1      31.773 -17.536   0.689 -0.13 -0.00    +0.000 A 
DOCKED: ATOM     11  C   UNL     1      31.458 -16.989  -0.563 -0.12 -0.00    +0.000 A 
DOCKED: BRANCH   7  12
DOCKED: ATOM     12  C   UNL     1      32.724 -19.217   4.555 -0.34 -0.00    +0.000 C 
DOCKED: BRANCH  12  13
DOCKED: ATOM     13  N   UNL     1      32.380 -20.655   4.567 -0.47 -0.00    +0.000 N 
DOCKED: ATOM     14  H   UNL     1      32.013 -20.900   3.647 -0.01 -0.00    +0.000 HD
DOCKED: BRANCH  13  15
DOCKED: ATOM     15  C   UNL     1      31.285 -20.941   5.524 -0.65 -0.00    +0.000 C 
DOCKED: ATOM     16  C   UNL     1      30.106 -21.639   4.847 -0.57 -0.00    +0.000 C 
DOCKED: ENDBRANCH  13  15
DOCKED: BRANCH  13  17
DOCKED: ATOM     17  C   UNL     1      33.579 -21.514   4.740 -0.37 -0.00    +0.000 C 
DOCKED: ATOM     18  C   UNL     1      33.567 -22.364   6.017 -0.49 -0.00    +0.000 C 
DOCKED: ENDBRANCH  13  17
DOCKED: ENDBRANCH  12  13
DOCKED: ENDBRANCH   7  12
DOCKED: ENDBRANCH   1   2
DOCKED: BRANCH   1  19
DOCKED: ATOM     19  O   UNL     1      30.147 -15.995  -2.819 -0.14 -0.00    +0.000 OA
DOCKED: BRANCH  19  21
DOCKED: ATOM     20  O   UNL     1      27.998 -16.044  -3.655 -0.34 -0.00    +0.000 OA
DOCKED: ATOM     21  C   UNL     1      28.777 -16.229  -2.681 -0.26 -0.00    +0.000 C 
DOCKED: ATOM     22  N   UNL     1      28.266 -16.640  -1.405 -0.31 -0.00    +0.000 N 
DOCKED: ATOM     23  H   UNL     1      28.880 -16.617  -0.635 -0.03 -0.00    +0.000 HD
DOCKED: BRANCH  22  24
DOCKED: ATOM     24  C   UNL     1      26.918 -17.083  -1.175 -0.44 -0.00    +0.000 A 
DOCKED: ATOM     25  C   UNL     1      25.868 -16.488  -1.887 -0.48 -0.00    +0.000 A 
DOCKED: ATOM     26  C   UNL     1      24.546 -16.884  -1.667 -0.56 -0.00    +0.000 A 
DOCKED: ATOM     27  C   UNL     1      24.245 -17.881  -0.723 -0.69 -0.00    +0.000 A 
DOCKED: ATOM     28  C   UNL     1      25.297 -18.452   0.017 -0.48 -0.00    +0.000 A 
DOCKED: ATOM     29  C   UNL     1      26.619 -18.055  -0.205 -0.52 -0.00    +0.000 A 
DOCKED: BRANCH  27  30
DOCKED: ATOM     30  C   UNL     1      22.837 -18.289  -0.498 -0.83 -0.00    +0.000 C 
DOCKED: ATOM     31  N   UNL     1      21.745 -17.425  -0.839 -0.68 -0.00    +0.000 N 
DOCKED: ATOM     32  O   UNL     1      22.591 -19.413   0.017 -0.59 -0.00    +0.000 OA
DOCKED: ATOM     33  H   UNL     1      21.925 -16.512  -1.160 -0.05 -0.00    +0.000 HD
DOCKED: BRANCH  31  34
DOCKED: ATOM     34  O   UNL     1      20.469 -17.859  -0.718 -2.29 -0.00    +0.000 OA
DOCKED: ATOM     35  H   UNL     1      19.897 -17.355  -1.320 -0.59 -0.00    +0.000 HD
DOCKED: ENDBRANCH  31  34
DOCKED: ENDBRANCH  27  30
DOCKED: ENDBRANCH  22  24
DOCKED: ENDBRANCH  19  21
DOCKED: ENDBRANCH   1  19
DOCKED: TORSDOF 10
DOCKED: TER
DOCKED: ENDMDL
________________________________________________________________________________


	BEGINNING GENETIC ALGORITHM DOCKING 37 of 100
Run: 37 Seed: 257559739 1473868704 [ Run 37 of 100 GA/GALS ]
Beginning LAMARCKIAN GENETIC ALGORITHM (LGA), with a maximum of 2500000 energy evaluations.

Final-Value: -15.956


	FINAL GENETIC ALGORITHM DOCKED STATE
	_______________________________________________


Detailed state:  trans 28.843 -16.635 -1.471 quatxyzw -0.678933 0.287679 -0.523144 -0.427330 center 1.857 0.216 -0.019 ntor 10 -25.0575 -107.5489 7.5263 26.2163 165.0136 9.6234 -120.4411 74.1634 13.7175 -177.9167
State:	 28.843 -16.635  -1.471  -0.751  0.318 -0.579 -129.404    -25.06 -107.55    7.53   26.22  165.01    9.62 -120.44   74.16   13.72 -177.92

DOCKED: MODEL       37
DOCKED: USER    Run = 37
DOCKED: USER    DPF = ligand_dock.biased.dpf
DOCKED: USER  
DOCKED: USER    Estimated Free Energy of Binding    =  -10.58 kcal/mol  [=(1)+(2)+(3)-(4)]
DOCKED: USER    Estimated Inhibition Constant, Ki   =   17.68 nM (nanomolar)  [Temperature = 298.15 K]
DOCKED: USER    
DOCKED: USER    (1) Final Intermolecular Energy     =  -13.56 kcal/mol
DOCKED: USER        vdW + Hbond + desolv Energy     =  -13.56 kcal/mol
DOCKED: USER        Electrostatic Energy            =   +0.00 kcal/mol
DOCKED: USER    (2) Final Total Internal Energy     =   -2.40 kcal/mol
DOCKED: USER    (3) Torsional Free Energy           =   +2.98 kcal/mol
DOCKED: USER    (4) Unbound System's Energy  [=(2)] =   -2.40 kcal/mol
DOCKED: USER    
DOCKED: USER    
DOCKED: USER    NEWDPF move ligand.pdbqt
DOCKED: USER    NEWDPF about 1.857000 0.216000 -0.019000
DOCKED: USER    NEWDPF tran0 28.842512 -16.635242 -1.470558
DOCKED: USER    NEWDPF quaternion0 -0.678933 0.287679 -0.523144 -0.427330
DOCKED: USER    NEWDPF axisangle0 -0.750953 0.318196 -0.578638 -129.403550
DOCKED: USER    NEWDPF quat0 -0.750953 0.318196 -0.578638 -129.403550
DOCKED: USER    NEWDPF dihe0 -25.06 -107.55 7.53 26.22 165.01 9.62 -120.44 74.16 13.72 -177.92 
DOCKED: USER  keepresnum = 1 
DOCKED: USER  
DOCKED: REMARK  Name = 
DOCKED: REMARK  12 active torsions:
DOCKED: REMARK  status: ('A' for Active; 'I' for Inactive)
DOCKED: REMARK    1  A    between atoms: C_2  and  O_3
DOCKED: REMARK    2  A    between atoms: O_3  and  C_4
DOCKED: REMARK    3  A    between atoms: C_4  and  C_5
DOCKED: REMARK    4  A    between atoms: C_10  and  C_11
DOCKED: REMARK    5  A    between atoms: C_11  and  N_12
DOCKED: REMARK    6  A    between atoms: N_12  and  C_13
DOCKED: REMARK    7  A    between atoms: N_12  and  C_15
DOCKED: REMARK    8  A    between atoms: C_13  and  C_14
DOCKED: REMARK    9  A    between atoms: C_15  and  C_16
DOCKED: REMARK   10  A    between atoms: N_21  and  C_22
DOCKED: REMARK   11  A    between atoms: C_25  and  C_26
DOCKED: REMARK   12  A    between atoms: N_27  and  O_28
DOCKED: REMARK                            x       y       z     vdW  Elec       q    Type
DOCKED: REMARK                         _______ _______ _______ _____ _____    ______ ____
DOCKED: USER                              x       y       z     vdW  Elec       q    Type
DOCKED: USER                           _______ _______ _______ _____ _____    ______ ____
DOCKED: ROOT
DOCKED: ATOM      1  C   UNL     1      30.201 -15.776  -1.100 -0.13 -0.00    +0.000 C 
DOCKED: ENDROOT
DOCKED: BRANCH   1   2
DOCKED: ATOM      2  C   UNL     1      29.292 -14.695  -1.610 -0.09 -0.00    +0.000 A 
DOCKED: ATOM      3  C   UNL     1      28.835 -13.690  -0.744 -0.08 -0.00    +0.000 A 
DOCKED: ATOM      4  C   UNL     1      27.958 -12.704  -1.205 -0.10 -0.00    +0.000 A 
DOCKED: ATOM      5  C   UNL     1      27.517 -12.717  -2.535 -0.13 -0.00    +0.000 A 
DOCKED: ATOM      6  C   UNL     1      26.636 -11.731  -3.006 +0.02 -0.00    +0.000 A 
DOCKED: ATOM      7  C   UNL     1      26.192 -11.753  -4.338 -0.25 -0.00    +0.000 A 
DOCKED: ATOM      8  C   UNL     1      26.638 -12.768  -5.199 -0.17 -0.00    +0.000 A 
DOCKED: ATOM      9  C   UNL     1      27.513 -13.754  -4.739 -0.27 -0.00    +0.000 A 
DOCKED: ATOM     10  C   UNL     1      27.960 -13.738  -3.410 -0.16 -0.00    +0.000 A 
DOCKED: ATOM     11  C   UNL     1      28.841 -14.723  -2.939 -0.13 -0.00    +0.000 A 
DOCKED: BRANCH   7  12
DOCKED: ATOM     12  C   UNL     1      25.263 -10.686  -4.854 -0.37 -0.00    +0.000 C 
DOCKED: BRANCH  12  13
DOCKED: ATOM     13  N   UNL     1      25.884  -9.979  -5.995 -0.18 -0.00    +0.000 N 
DOCKED: ATOM     14  H   UNL     1      26.047 -10.659  -6.738 -0.00 -0.00    +0.000 HD
DOCKED: BRANCH  13  15
DOCKED: ATOM     15  C   UNL     1      27.222  -9.449  -5.639 -0.08 -0.00    +0.000 C 
DOCKED: ATOM     16  C   UNL     1      28.217  -9.593  -6.790 -0.05 -0.00    +0.000 C 
DOCKED: ENDBRANCH  13  15
DOCKED: BRANCH  13  17
DOCKED: ATOM     17  C   UNL     1      24.971  -8.973  -6.592 -0.24 -0.00    +0.000 C 
DOCKED: ATOM     18  C   UNL     1      23.512  -9.435  -6.710 -0.44 -0.00    +0.000 C 
DOCKED: ENDBRANCH  13  17
DOCKED: ENDBRANCH  12  13
DOCKED: ENDBRANCH   7  12
DOCKED: ENDBRANCH   1   2
DOCKED: BRANCH   1  19
DOCKED: ATOM     19  O   UNL     1      29.457 -16.979  -0.941 -0.28 -0.00    +0.000 OA
DOCKED: BRANCH  19  21
DOCKED: ATOM     20  O   UNL     1      27.749 -17.111  -2.486 -0.29 -0.00    +0.000 OA
DOCKED: ATOM     21  C   UNL     1      28.104 -17.078  -1.276 -0.37 -0.00    +0.000 C 
DOCKED: ATOM     22  N   UNL     1      27.126 -17.099  -0.227 -0.45 -0.00    +0.000 N 
DOCKED: ATOM     23  H   UNL     1      27.432 -16.911   0.690 -0.22 -0.00    +0.000 HD
DOCKED: BRANCH  22  24
DOCKED: ATOM     24  C   UNL     1      25.730 -17.377  -0.425 -0.54 -0.00    +0.000 A 
DOCKED: ATOM     25  C   UNL     1      25.267 -18.694  -0.306 -0.40 -0.00    +0.000 A 
DOCKED: ATOM     26  C   UNL     1      23.919 -18.995  -0.515 -0.50 -0.00    +0.000 A 
DOCKED: ATOM     27  C   UNL     1      23.004 -17.984  -0.857 -0.72 -0.00    +0.000 A 
DOCKED: ATOM     28  C   UNL     1      23.477 -16.668  -1.012 -0.27 -0.00    +0.000 A 
DOCKED: ATOM     29  C   UNL     1      24.827 -16.368  -0.801 -0.43 -0.00    +0.000 A 
DOCKED: BRANCH  27  30
DOCKED: ATOM     30  C   UNL     1      21.577 -18.319  -1.080 -0.73 -0.00    +0.000 C 
DOCKED: ATOM     31  N   UNL     1      21.188 -19.537  -1.727 -0.64 -0.00    +0.000 N 
DOCKED: ATOM     32  O   UNL     1      20.683 -17.511  -0.707 -2.10 +0.00    +0.000 OA
DOCKED: ATOM     33  H   UNL     1      21.875 -20.135  -2.100 -0.54 -0.00    +0.000 HD
DOCKED: BRANCH  31  34
DOCKED: ATOM     34  O   UNL     1      19.878 -19.868  -1.828 -1.83 -0.00    +0.000 OA
DOCKED: ATOM     35  H   UNL     1      19.332 -19.126  -1.522 -0.38 -0.00    +0.000 HD
DOCKED: ENDBRANCH  31  34
DOCKED: ENDBRANCH  27  30
DOCKED: ENDBRANCH  22  24
DOCKED: ENDBRANCH  19  21
DOCKED: ENDBRANCH   1  19
DOCKED: TORSDOF 10
DOCKED: TER
DOCKED: ENDMDL
________________________________________________________________________________


	BEGINNING GENETIC ALGORITHM DOCKING 38 of 100
Run: 38 Seed: 1072558940 100681790 [ Run 38 of 100 GA/GALS ]
Beginning LAMARCKIAN GENETIC ALGORITHM (LGA), with a maximum of 2500000 energy evaluations.

Final-Value: -16.410


	FINAL GENETIC ALGORITHM DOCKED STATE
	_______________________________________________


Detailed state:  trans 27.107 -15.893 -1.080 quatxyzw 0.788723 -0.347897 0.506834 0.001641 center 1.857 0.216 -0.019 ntor 10 -145.0036 62.6811 7.4212 177.9240 107.3516 -172.5337 -48.2862 79.7476 -179.8169 -102.6289
State:	 27.107 -15.893  -1.080   0.789 -0.348  0.507 179.812   -145.00   62.68    7.42  177.92  107.35 -172.53  -48.29   79.75 -179.82 -102.63

DOCKED: MODEL       38
DOCKED: USER    Run = 38
DOCKED: USER    DPF = ligand_dock.biased.dpf
DOCKED: USER  
DOCKED: USER    Estimated Free Energy of Binding    =  -11.20 kcal/mol  [=(1)+(2)+(3)-(4)]
DOCKED: USER    Estimated Inhibition Constant, Ki   =    6.21 nM (nanomolar)  [Temperature = 298.15 K]
DOCKED: USER    
DOCKED: USER    (1) Final Intermolecular Energy     =  -14.18 kcal/mol
DOCKED: USER        vdW + Hbond + desolv Energy     =  -14.18 kcal/mol
DOCKED: USER        Electrostatic Energy            =   +0.00 kcal/mol
DOCKED: USER    (2) Final Total Internal Energy     =   -2.23 kcal/mol
DOCKED: USER    (3) Torsional Free Energy           =   +2.98 kcal/mol
DOCKED: USER    (4) Unbound System's Energy  [=(2)] =   -2.23 kcal/mol
DOCKED: USER    
DOCKED: USER    
DOCKED: USER    NEWDPF move ligand.pdbqt
DOCKED: USER    NEWDPF about 1.857000 0.216000 -0.019000
DOCKED: USER    NEWDPF tran0 27.107384 -15.893055 -1.079755
DOCKED: USER    NEWDPF quaternion0 0.788723 -0.347897 0.506834 0.001641
DOCKED: USER    NEWDPF axisangle0 0.788724 -0.347898 0.506835 179.811917
DOCKED: USER    NEWDPF quat0 0.788724 -0.347898 0.506835 179.811917
DOCKED: USER    NEWDPF dihe0 -145.00 62.68 7.42 177.92 107.35 -172.53 -48.29 79.75 -179.82 -102.63 
DOCKED: USER  keepresnum = 1 
DOCKED: USER  
DOCKED: REMARK  Name = 
DOCKED: REMARK  12 active torsions:
DOCKED: REMARK  status: ('A' for Active; 'I' for Inactive)
DOCKED: REMARK    1  A    between atoms: C_2  and  O_3
DOCKED: REMARK    2  A    between atoms: O_3  and  C_4
DOCKED: REMARK    3  A    between atoms: C_4  and  C_5
DOCKED: REMARK    4  A    between atoms: C_10  and  C_11
DOCKED: REMARK    5  A    between atoms: C_11  and  N_12
DOCKED: REMARK    6  A    between atoms: N_12  and  C_13
DOCKED: REMARK    7  A    between atoms: N_12  and  C_15
DOCKED: REMARK    8  A    between atoms: C_13  and  C_14
DOCKED: REMARK    9  A    between atoms: C_15  and  C_16
DOCKED: REMARK   10  A    between atoms: N_21  and  C_22
DOCKED: REMARK   11  A    between atoms: C_25  and  C_26
DOCKED: REMARK   12  A    between atoms: N_27  and  O_28
DOCKED: REMARK                            x       y       z     vdW  Elec       q    Type
DOCKED: REMARK                         _______ _______ _______ _____ _____    ______ ____
DOCKED: USER                              x       y       z     vdW  Elec       q    Type
DOCKED: USER                           _______ _______ _______ _____ _____    ______ ____
DOCKED: ROOT
DOCKED: ATOM      1  C   UNL     1      28.633 -15.839  -1.707 -0.24 -0.00    +0.000 C 
DOCKED: ENDROOT
DOCKED: BRANCH   1   2
DOCKED: ATOM      2  C   UNL     1      27.931 -14.801  -2.534 -0.19 -0.00    +0.000 A 
DOCKED: ATOM      3  C   UNL     1      27.117 -15.187  -3.609 -0.36 -0.00    +0.000 A 
DOCKED: ATOM      4  C   UNL     1      26.492 -14.223  -4.406 -0.41 -0.00    +0.000 A 
DOCKED: ATOM      5  C   UNL     1      26.683 -12.860  -4.145 -0.26 -0.00    +0.000 A 
DOCKED: ATOM      6  C   UNL     1      26.061 -11.885  -4.940 -0.27 -0.00    +0.000 A 
DOCKED: ATOM      7  C   UNL     1      26.260 -10.520  -4.677 -0.20 -0.00    +0.000 A 
DOCKED: ATOM      8  C   UNL     1      27.087 -10.135  -3.610 -0.10 -0.00    +0.000 A 
DOCKED: ATOM      9  C   UNL     1      27.713 -11.098  -2.815 -0.09 -0.00    +0.000 A 
DOCKED: ATOM     10  C   UNL     1      27.517 -12.462  -3.072 -0.13 -0.00    +0.000 A 
DOCKED: ATOM     11  C   UNL     1      28.139 -13.436  -2.277 -0.11 -0.00    +0.000 A 
DOCKED: BRANCH   7  12
DOCKED: ATOM     12  C   UNL     1      25.579  -9.470  -5.514 -0.23 -0.00    +0.000 C 
DOCKED: BRANCH  12  13
DOCKED: ATOM     13  N   UNL     1      26.006  -9.588  -6.925 -0.15 -0.00    +0.000 N 
DOCKED: ATOM     14  H   UNL     1      26.020  -8.653  -7.331 +0.01 -0.00    +0.000 HD
DOCKED: BRANCH  13  15
DOCKED: ATOM     15  C   UNL     1      25.022 -10.356  -7.725 -0.35 -0.00    +0.000 C 
DOCKED: ATOM     16  C   UNL     1      23.641 -10.368  -7.070 -0.42 -0.00    +0.000 C 
DOCKED: ENDBRANCH  13  15
DOCKED: BRANCH  13  17
DOCKED: ATOM     17  C   UNL     1      27.402 -10.078  -7.046 -0.11 -0.00    +0.000 C 
DOCKED: ATOM     18  C   UNL     1      27.575 -11.263  -8.006 -0.20 -0.00    +0.000 C 
DOCKED: ENDBRANCH  13  17
DOCKED: ENDBRANCH  12  13
DOCKED: ENDBRANCH   7  12
DOCKED: ENDBRANCH   1   2
DOCKED: BRANCH   1  19
DOCKED: ATOM     19  O   UNL     1      27.785 -16.234  -0.633 -0.35 -0.00    +0.000 OA
DOCKED: BRANCH  19  21
DOCKED: ATOM     20  O   UNL     1      26.908 -18.352  -0.888 -0.53 -0.00    +0.000 OA
DOCKED: ATOM     21  C   UNL     1      26.710 -17.109  -0.804 -0.53 -0.00    +0.000 C 
DOCKED: ATOM     22  N   UNL     1      25.386 -16.570  -0.926 -0.51 -0.00    +0.000 N 
DOCKED: ATOM     23  H   UNL     1      25.294 -15.594  -1.016 -0.02 -0.00    +0.000 HD
DOCKED: BRANCH  22  24
DOCKED: ATOM     24  C   UNL     1      24.185 -17.361  -0.925 -0.64 -0.00    +0.000 A 
DOCKED: ATOM     25  C   UNL     1      22.950 -16.735  -0.714 -0.38 -0.00    +0.000 A 
DOCKED: ATOM     26  C   UNL     1      21.770 -17.483  -0.686 -0.62 -0.00    +0.000 A 
DOCKED: ATOM     27  C   UNL     1      21.802 -18.877  -0.862 -0.75 -0.00    +0.000 A 
DOCKED: ATOM     28  C   UNL     1      23.047 -19.509  -1.038 -0.49 -0.00    +0.000 A 
DOCKED: ATOM     29  C   UNL     1      24.226 -18.759  -1.066 -0.60 -0.00    +0.000 A 
DOCKED: BRANCH  27  30
DOCKED: ATOM     30  C   UNL     1      20.542 -19.658  -0.826 -0.87 -0.00    +0.000 C 
DOCKED: ATOM     31  N   UNL     1      20.091 -20.294   0.377 -0.71 -0.00    +0.000 N 
DOCKED: ATOM     32  O   UNL     1      19.856 -19.780  -1.878 -1.85 -0.00    +0.000 OA
DOCKED: ATOM     33  H   UNL     1      20.658 -20.280   1.181 -0.43 -0.00    +0.000 HD
DOCKED: BRANCH  31  34
DOCKED: ATOM     34  O   UNL     1      18.888 -20.916   0.410 -0.79 -0.00    +0.000 OA
DOCKED: ATOM     35  H   UNL     1      18.511 -20.941  -0.484 -0.30 -0.00    +0.000 HD
DOCKED: ENDBRANCH  31  34
DOCKED: ENDBRANCH  27  30
DOCKED: ENDBRANCH  22  24
DOCKED: ENDBRANCH  19  21
DOCKED: ENDBRANCH   1  19
DOCKED: TORSDOF 10
DOCKED: TER
DOCKED: ENDMDL
________________________________________________________________________________


	BEGINNING GENETIC ALGORITHM DOCKING 39 of 100
Run: 39 Seed: 965644470 2014930283 [ Run 39 of 100 GA/GALS ]
Beginning LAMARCKIAN GENETIC ALGORITHM (LGA), with a maximum of 2500000 energy evaluations.

Final-Value: -15.809


	FINAL GENETIC ALGORITHM DOCKED STATE
	_______________________________________________


Detailed state:  trans 29.365 -15.847 -0.903 quatxyzw 0.536283 0.585598 0.588012 0.154005 center 1.857 0.216 -0.019 ntor 10 -178.6385 -138.2364 17.2073 -34.0788 -35.3419 -166.5712 180.0000 -89.5600 -105.6587 101.5077
State:	 29.365 -15.847  -0.903   0.543  0.593  0.595 162.282   -178.64 -138.24   17.21  -34.08  -35.34 -166.57  180.00  -89.56 -105.66  101.51

DOCKED: MODEL       39
DOCKED: USER    Run = 39
DOCKED: USER    DPF = ligand_dock.biased.dpf
DOCKED: USER  
DOCKED: USER    Estimated Free Energy of Binding    =  -10.64 kcal/mol  [=(1)+(2)+(3)-(4)]
DOCKED: USER    Estimated Inhibition Constant, Ki   =   15.85 nM (nanomolar)  [Temperature = 298.15 K]
DOCKED: USER    
DOCKED: USER    (1) Final Intermolecular Energy     =  -13.62 kcal/mol
DOCKED: USER        vdW + Hbond + desolv Energy     =  -13.62 kcal/mol
DOCKED: USER        Electrostatic Energy            =   +0.00 kcal/mol
DOCKED: USER    (2) Final Total Internal Energy     =   -2.19 kcal/mol
DOCKED: USER    (3) Torsional Free Energy           =   +2.98 kcal/mol
DOCKED: USER    (4) Unbound System's Energy  [=(2)] =   -2.19 kcal/mol
DOCKED: USER    
DOCKED: USER    
DOCKED: USER    NEWDPF move ligand.pdbqt
DOCKED: USER    NEWDPF about 1.857000 0.216000 -0.019000
DOCKED: USER    NEWDPF tran0 29.364778 -15.846724 -0.902976
DOCKED: USER    NEWDPF quaternion0 0.536283 0.585598 0.588012 0.154005
DOCKED: USER    NEWDPF axisangle0 0.542758 0.592669 0.595112 162.281858
DOCKED: USER    NEWDPF quat0 0.542758 0.592669 0.595112 162.281858
DOCKED: USER    NEWDPF dihe0 -178.64 -138.24 17.21 -34.08 -35.34 -166.57 180.00 -89.56 -105.66 101.51 
DOCKED: USER  keepresnum = 1 
DOCKED: USER  
DOCKED: REMARK  Name = 
DOCKED: REMARK  12 active torsions:
DOCKED: REMARK  status: ('A' for Active; 'I' for Inactive)
DOCKED: REMARK    1  A    between atoms: C_2  and  O_3
DOCKED: REMARK    2  A    between atoms: O_3  and  C_4
DOCKED: REMARK    3  A    between atoms: C_4  and  C_5
DOCKED: REMARK    4  A    between atoms: C_10  and  C_11
DOCKED: REMARK    5  A    between atoms: C_11  and  N_12
DOCKED: REMARK    6  A    between atoms: N_12  and  C_13
DOCKED: REMARK    7  A    between atoms: N_12  and  C_15
DOCKED: REMARK    8  A    between atoms: C_13  and  C_14
DOCKED: REMARK    9  A    between atoms: C_15  and  C_16
DOCKED: REMARK   10  A    between atoms: N_21  and  C_22
DOCKED: REMARK   11  A    between atoms: C_25  and  C_26
DOCKED: REMARK   12  A    between atoms: N_27  and  O_28
DOCKED: REMARK                            x       y       z     vdW  Elec       q    Type
DOCKED: REMARK                         _______ _______ _______ _____ _____    ______ ____
DOCKED: USER                              x       y       z     vdW  Elec       q    Type
DOCKED: USER                           _______ _______ _______ _____ _____    ______ ____
DOCKED: ROOT
DOCKED: ATOM      1  C   UNL     1      29.575 -14.456  -1.766 -0.08 -0.00    +0.000 C 
DOCKED: ENDROOT
DOCKED: BRANCH   1   2
DOCKED: ATOM      2  C   UNL     1      29.780 -15.501  -2.825 -0.12 -0.00    +0.000 A 
DOCKED: ATOM      3  C   UNL     1      29.798 -16.861  -2.480 -0.19 -0.00    +0.000 A 
DOCKED: ATOM      4  C   UNL     1      30.027 -17.835  -3.456 +0.00 -0.00    +0.000 A 
DOCKED: ATOM      5  C   UNL     1      30.255 -17.462  -4.787 -0.26 -0.00    +0.000 A 
DOCKED: ATOM      6  C   UNL     1      30.486 -18.433  -5.774 -0.32 -0.00    +0.000 A 
DOCKED: ATOM      7  C   UNL     1      30.719 -18.052  -7.105 -0.31 -0.00    +0.000 A 
DOCKED: ATOM      8  C   UNL     1      30.716 -16.690  -7.445 -0.27 -0.00    +0.000 A 
DOCKED: ATOM      9  C   UNL     1      30.488 -15.716  -6.471 -0.26 -0.00    +0.000 A 
DOCKED: ATOM     10  C   UNL     1      30.255 -16.090  -5.139 -0.22 -0.00    +0.000 A 
DOCKED: ATOM     11  C   UNL     1      30.023 -15.120  -4.154 -0.12 -0.00    +0.000 A 
DOCKED: BRANCH   7  12
DOCKED: ATOM     12  C   UNL     1      30.948 -19.091  -8.171 -0.38 -0.00    +0.000 C 
DOCKED: BRANCH  12  13
DOCKED: ATOM     13  N   UNL     1      32.065 -19.979  -7.783 -0.17 -0.00    +0.000 N 
DOCKED: ATOM     14  H   UNL     1      32.403 -19.682  -6.868 +0.01 -0.00    +0.000 HD
DOCKED: BRANCH  13  15
DOCKED: ATOM     15  C   UNL     1      33.218 -19.830  -8.702 -0.08 -0.00    +0.000 C 
DOCKED: ATOM     16  C   UNL     1      32.847 -19.043  -9.959 -0.15 -0.00    +0.000 C 
DOCKED: ENDBRANCH  13  15
DOCKED: BRANCH  13  17
DOCKED: ATOM     17  C   UNL     1      31.620 -21.382  -7.589 -0.26 -0.00    +0.000 C 
DOCKED: ATOM     18  C   UNL     1      30.774 -21.607  -6.328 -0.34 -0.00    +0.000 C 
DOCKED: ENDBRANCH  13  17
DOCKED: ENDBRANCH  12  13
DOCKED: ENDBRANCH   7  12
DOCKED: ENDBRANCH   1   2
DOCKED: BRANCH   1  19
DOCKED: ATOM     19  O   UNL     1      29.078 -15.077  -0.585 -0.16 -0.00    +0.000 OA
DOCKED: BRANCH  19  21
DOCKED: ATOM     20  O   UNL     1      26.904 -14.652   0.057 -0.34 -0.00    +0.000 OA
DOCKED: ATOM     21  C   UNL     1      27.741 -15.455  -0.437 -0.30 -0.00    +0.000 C 
DOCKED: ATOM     22  N   UNL     1      27.347 -16.782  -0.816 -0.41 -0.00    +0.000 N 
DOCKED: ATOM     23  H   UNL     1      28.057 -17.424  -1.045 -0.04 -0.00    +0.000 HD
DOCKED: BRANCH  22  24
DOCKED: ATOM     24  C   UNL     1      25.984 -17.234  -0.883 -0.53 -0.00    +0.000 A 
DOCKED: ATOM     25  C   UNL     1      24.977 -16.330  -1.245 -0.50 -0.00    +0.000 A 
DOCKED: ATOM     26  C   UNL     1      23.641 -16.738  -1.296 -0.39 -0.00    +0.000 A 
DOCKED: ATOM     27  C   UNL     1      23.284 -18.060  -0.979 -0.72 -0.00    +0.000 A 
DOCKED: ATOM     28  C   UNL     1      24.292 -18.957  -0.581 -0.44 -0.00    +0.000 A 
DOCKED: ATOM     29  C   UNL     1      25.628 -18.547  -0.531 -0.52 -0.00    +0.000 A 
DOCKED: BRANCH  27  30
DOCKED: ATOM     30  C   UNL     1      21.862 -18.478  -1.034 -0.80 -0.00    +0.000 C 
DOCKED: ATOM     31  N   UNL     1      21.433 -19.559  -1.872 -0.44 -0.00    +0.000 N 
DOCKED: ATOM     32  O   UNL     1      21.006 -17.863  -0.341 -1.94 +0.00    +0.000 OA
DOCKED: ATOM     33  H   UNL     1      22.074 -19.990  -2.481 -0.59 -0.00    +0.000 HD
DOCKED: BRANCH  31  34
DOCKED: ATOM     34  O   UNL     1      20.149 -19.987  -1.829 -1.80 -0.00    +0.000 OA
DOCKED: ATOM     35  H   UNL     1      19.596 -19.312  -1.404 -0.17 -0.00    +0.000 HD
DOCKED: ENDBRANCH  31  34
DOCKED: ENDBRANCH  27  30
DOCKED: ENDBRANCH  22  24
DOCKED: ENDBRANCH  19  21
DOCKED: ENDBRANCH   1  19
DOCKED: TORSDOF 10
DOCKED: TER
DOCKED: ENDMDL
________________________________________________________________________________


	BEGINNING GENETIC ALGORITHM DOCKING 40 of 100
Run: 40 Seed: 2021046672 390810672 [ Run 40 of 100 GA/GALS ]
Beginning LAMARCKIAN GENETIC ALGORITHM (LGA), with a maximum of 2500000 energy evaluations.

Final-Value: -15.662


	FINAL GENETIC ALGORITHM DOCKED STATE
	_______________________________________________


Detailed state:  trans 27.929 -16.478 -1.517 quatxyzw -0.267131 0.097480 -0.927629 0.242164 center 1.857 0.216 -0.019 ntor 10 24.3508 -129.3373 10.3742 -14.2353 -75.1061 67.7773 105.2052 -1.4829 79.4394 -80.0891
State:	 27.929 -16.478  -1.517  -0.275  0.100 -0.956 151.971     24.35 -129.34   10.37  -14.24  -75.11   67.78  105.21   -1.48   79.44  -80.09

DOCKED: MODEL       40
DOCKED: USER    Run = 40
DOCKED: USER    DPF = ligand_dock.biased.dpf
DOCKED: USER  
DOCKED: USER    Estimated Free Energy of Binding    =  -10.75 kcal/mol  [=(1)+(2)+(3)-(4)]
DOCKED: USER    Estimated Inhibition Constant, Ki   =   13.08 nM (nanomolar)  [Temperature = 298.15 K]
DOCKED: USER    
DOCKED: USER    (1) Final Intermolecular Energy     =  -13.74 kcal/mol
DOCKED: USER        vdW + Hbond + desolv Energy     =  -13.74 kcal/mol
DOCKED: USER        Electrostatic Energy            =   +0.00 kcal/mol
DOCKED: USER    (2) Final Total Internal Energy     =   -1.92 kcal/mol
DOCKED: USER    (3) Torsional Free Energy           =   +2.98 kcal/mol
DOCKED: USER    (4) Unbound System's Energy  [=(2)] =   -1.92 kcal/mol
DOCKED: USER    
DOCKED: USER    
DOCKED: USER    NEWDPF move ligand.pdbqt
DOCKED: USER    NEWDPF about 1.857000 0.216000 -0.019000
DOCKED: USER    NEWDPF tran0 27.929207 -16.477670 -1.516924
DOCKED: USER    NEWDPF quaternion0 -0.267131 0.097480 -0.927629 0.242164
DOCKED: USER    NEWDPF axisangle0 -0.275326 0.100470 -0.956086 151.971465
DOCKED: USER    NEWDPF quat0 -0.275326 0.100470 -0.956086 151.971465
DOCKED: USER    NEWDPF dihe0 24.35 -129.34 10.37 -14.24 -75.11 67.78 105.21 -1.48 79.44 -80.09 
DOCKED: USER  keepresnum = 1 
DOCKED: USER  
DOCKED: REMARK  Name = 
DOCKED: REMARK  12 active torsions:
DOCKED: REMARK  status: ('A' for Active; 'I' for Inactive)
DOCKED: REMARK    1  A    between atoms: C_2  and  O_3
DOCKED: REMARK    2  A    between atoms: O_3  and  C_4
DOCKED: REMARK    3  A    between atoms: C_4  and  C_5
DOCKED: REMARK    4  A    between atoms: C_10  and  C_11
DOCKED: REMARK    5  A    between atoms: C_11  and  N_12
DOCKED: REMARK    6  A    between atoms: N_12  and  C_13
DOCKED: REMARK    7  A    between atoms: N_12  and  C_15
DOCKED: REMARK    8  A    between atoms: C_13  and  C_14
DOCKED: REMARK    9  A    between atoms: C_15  and  C_16
DOCKED: REMARK   10  A    between atoms: N_21  and  C_22
DOCKED: REMARK   11  A    between atoms: C_25  and  C_26
DOCKED: REMARK   12  A    between atoms: N_27  and  O_28
DOCKED: REMARK                            x       y       z     vdW  Elec       q    Type
DOCKED: REMARK                         _______ _______ _______ _____ _____    ______ ____
DOCKED: USER                              x       y       z     vdW  Elec       q    Type
DOCKED: USER                           _______ _______ _______ _____ _____    ______ ____
DOCKED: ROOT
DOCKED: ATOM      1  C   UNL     1      29.049 -16.444  -0.306 -0.22 -0.00    +0.000 C 
DOCKED: ENDROOT
DOCKED: BRANCH   1   2
DOCKED: ATOM      2  C   UNL     1      29.908 -16.745  -1.500 -0.19 -0.00    +0.000 A 
DOCKED: ATOM      3  C   UNL     1      31.294 -16.904  -1.351 -0.10 -0.00    +0.000 A 
DOCKED: ATOM      4  C   UNL     1      32.102 -17.147  -2.465 -0.06 -0.00    +0.000 A 
DOCKED: ATOM      5  C   UNL     1      31.536 -17.220  -3.746 -0.10 -0.00    +0.000 A 
DOCKED: ATOM      6  C   UNL     1      32.340 -17.462  -4.870 -0.07 -0.00    +0.000 A 
DOCKED: ATOM      7  C   UNL     1      31.768 -17.529  -6.151 -0.15 -0.00    +0.000 A 
DOCKED: ATOM      8  C   UNL     1      30.384 -17.354  -6.300 -0.32 -0.00    +0.000 A 
DOCKED: ATOM      9  C   UNL     1      29.576 -17.111  -5.187 -0.19 -0.00    +0.000 A 
DOCKED: ATOM     10  C   UNL     1      30.141 -17.043  -3.905 -0.21 -0.00    +0.000 A 
DOCKED: ATOM     11  C   UNL     1      29.337 -16.801  -2.782 -0.21 -0.00    +0.000 A 
DOCKED: BRANCH   7  12
DOCKED: ATOM     12  C   UNL     1      32.623 -17.809  -7.359 -0.12 -0.00    +0.000 C 
DOCKED: BRANCH  12  13
DOCKED: ATOM     13  N   UNL     1      31.785 -17.847  -8.577 -0.26 -0.00    +0.000 N 
DOCKED: ATOM     14  H   UNL     1      30.919 -17.344  -8.381 -0.03 -0.00    +0.000 HD
DOCKED: BRANCH  13  15
DOCKED: ATOM     15  C   UNL     1      31.376 -19.233  -8.908 -0.35 -0.00    +0.000 C 
DOCKED: ATOM     16  C   UNL     1      30.736 -19.322 -10.293 -0.42 -0.00    +0.000 C 
DOCKED: ENDBRANCH  13  15
DOCKED: BRANCH  13  17
DOCKED: ATOM     17  C   UNL     1      32.407 -17.110  -9.705 -0.22 -0.00    +0.000 C 
DOCKED: ATOM     18  C   UNL     1      32.601 -15.609  -9.450 -0.19 -0.00    +0.000 C 
DOCKED: ENDBRANCH  13  17
DOCKED: ENDBRANCH  12  13
DOCKED: ENDBRANCH   7  12
DOCKED: ENDBRANCH   1   2
DOCKED: BRANCH   1  19
DOCKED: ATOM     19  O   UNL     1      27.739 -16.100  -0.745 -0.34 -0.00    +0.000 OA
DOCKED: BRANCH  19  21
DOCKED: ATOM     20  O   UNL     1      26.860 -18.196  -0.352 -0.64 -0.00    +0.000 OA
DOCKED: ATOM     21  C   UNL     1      26.675 -17.005  -0.725 -0.53 -0.00    +0.000 C 
DOCKED: ATOM     22  N   UNL     1      25.384 -16.572  -1.175 -0.52 -0.00    +0.000 N 
DOCKED: ATOM     23  H   UNL     1      25.320 -15.689  -1.606 -0.02 -0.00    +0.000 HD
DOCKED: BRANCH  22  24
DOCKED: ATOM     24  C   UNL     1      24.178 -17.342  -1.039 -0.64 -0.00    +0.000 A 
DOCKED: ATOM     25  C   UNL     1      24.206 -18.717  -1.306 -0.49 -0.00    +0.000 A 
DOCKED: ATOM     26  C   UNL     1      23.043 -19.484  -1.203 -0.47 -0.00    +0.000 A 
DOCKED: ATOM     27  C   UNL     1      21.823 -18.890  -0.837 -0.75 -0.00    +0.000 A 
DOCKED: ATOM     28  C   UNL     1      21.789 -17.502  -0.605 -0.61 -0.00    +0.000 A 
DOCKED: ATOM     29  C   UNL     1      22.954 -16.736  -0.708 -0.39 -0.00    +0.000 A 
DOCKED: BRANCH  27  30
DOCKED: ATOM     30  C   UNL     1      20.595 -19.716  -0.735 -0.87 -0.00    +0.000 C 
DOCKED: ATOM     31  N   UNL     1      20.307 -20.483   0.440 -0.68 -0.00    +0.000 N 
DOCKED: ATOM     32  O   UNL     1      19.793 -19.759  -1.707 -1.77 -0.00    +0.000 OA
DOCKED: ATOM     33  H   UNL     1      20.965 -20.527   1.171 -0.56 -0.00    +0.000 HD
DOCKED: BRANCH  31  34
DOCKED: ATOM     34  O   UNL     1      19.132 -21.148   0.550 -0.74 -0.00    +0.000 OA
DOCKED: ATOM     35  H   UNL     1      18.674 -21.140  -0.306 -0.28 -0.00    +0.000 HD
DOCKED: ENDBRANCH  31  34
DOCKED: ENDBRANCH  27  30
DOCKED: ENDBRANCH  22  24
DOCKED: ENDBRANCH  19  21
DOCKED: ENDBRANCH   1  19
DOCKED: TORSDOF 10
DOCKED: TER
DOCKED: ENDMDL
________________________________________________________________________________


	BEGINNING GENETIC ALGORITHM DOCKING 41 of 100
Run: 41 Seed: 1799389369 1731312048 [ Run 41 of 100 GA/GALS ]
Beginning LAMARCKIAN GENETIC ALGORITHM (LGA), with a maximum of 2500000 energy evaluations.

Final-Value: -15.675


	FINAL GENETIC ALGORITHM DOCKED STATE
	_______________________________________________


Detailed state:  trans 28.679 -15.479 -0.888 quatxyzw 0.619765 -0.351351 0.607107 -0.351945 center 1.857 0.216 -0.019 ntor 10 -63.0042 117.3185 19.8138 -97.3010 -60.6298 -30.3591 -125.5928 -167.6346 156.0459 -100.7261
State:	 28.679 -15.479  -0.888   0.662 -0.375  0.649 -138.787    -63.00  117.32   19.81  -97.30  -60.63  -30.36 -125.59 -167.63  156.05 -100.73

DOCKED: MODEL       41
DOCKED: USER    Run = 41
DOCKED: USER    DPF = ligand_dock.biased.dpf
DOCKED: USER  
DOCKED: USER    Estimated Free Energy of Binding    =  -10.43 kcal/mol  [=(1)+(2)+(3)-(4)]
DOCKED: USER    Estimated Inhibition Constant, Ki   =   22.57 nM (nanomolar)  [Temperature = 298.15 K]
DOCKED: USER    
DOCKED: USER    (1) Final Intermolecular Energy     =  -13.41 kcal/mol
DOCKED: USER        vdW + Hbond + desolv Energy     =  -13.41 kcal/mol
DOCKED: USER        Electrostatic Energy            =   +0.00 kcal/mol
DOCKED: USER    (2) Final Total Internal Energy     =   -2.26 kcal/mol
DOCKED: USER    (3) Torsional Free Energy           =   +2.98 kcal/mol
DOCKED: USER    (4) Unbound System's Energy  [=(2)] =   -2.26 kcal/mol
DOCKED: USER    
DOCKED: USER    
DOCKED: USER    NEWDPF move ligand.pdbqt
DOCKED: USER    NEWDPF about 1.857000 0.216000 -0.019000
DOCKED: USER    NEWDPF tran0 28.679456 -15.479281 -0.887957
DOCKED: USER    NEWDPF quaternion0 0.619765 -0.351351 0.607107 -0.351945
DOCKED: USER    NEWDPF axisangle0 0.662127 -0.375367 0.648604 -138.787314
DOCKED: USER    NEWDPF quat0 0.662127 -0.375367 0.648604 -138.787314
DOCKED: USER    NEWDPF dihe0 -63.00 117.32 19.81 -97.30 -60.63 -30.36 -125.59 -167.63 156.05 -100.73 
DOCKED: USER  keepresnum = 1 
DOCKED: USER  
DOCKED: REMARK  Name = 
DOCKED: REMARK  12 active torsions:
DOCKED: REMARK  status: ('A' for Active; 'I' for Inactive)
DOCKED: REMARK    1  A    between atoms: C_2  and  O_3
DOCKED: REMARK    2  A    between atoms: O_3  and  C_4
DOCKED: REMARK    3  A    between atoms: C_4  and  C_5
DOCKED: REMARK    4  A    between atoms: C_10  and  C_11
DOCKED: REMARK    5  A    between atoms: C_11  and  N_12
DOCKED: REMARK    6  A    between atoms: N_12  and  C_13
DOCKED: REMARK    7  A    between atoms: N_12  and  C_15
DOCKED: REMARK    8  A    between atoms: C_13  and  C_14
DOCKED: REMARK    9  A    between atoms: C_15  and  C_16
DOCKED: REMARK   10  A    between atoms: N_21  and  C_22
DOCKED: REMARK   11  A    between atoms: C_25  and  C_26
DOCKED: REMARK   12  A    between atoms: N_27  and  O_28
DOCKED: REMARK                            x       y       z     vdW  Elec       q    Type
DOCKED: REMARK                         _______ _______ _______ _____ _____    ______ ____
DOCKED: USER                              x       y       z     vdW  Elec       q    Type
DOCKED: USER                           _______ _______ _______ _____ _____    ______ ____
DOCKED: ROOT
DOCKED: ATOM      1  C   UNL     1      30.002 -16.448  -1.075 -0.19 -0.00    +0.000 C 
DOCKED: ENDROOT
DOCKED: BRANCH   1   2
DOCKED: ATOM      2  C   UNL     1      29.809 -15.930  -2.471 -0.14 -0.00    +0.000 A 
DOCKED: ATOM      3  C   UNL     1      29.242 -16.753  -3.457 -0.21 -0.00    +0.000 A 
DOCKED: ATOM      4  C   UNL     1      29.096 -16.288  -4.767 -0.25 -0.00    +0.000 A 
DOCKED: ATOM      5  C   UNL     1      29.527 -15.000  -5.112 -0.21 -0.00    +0.000 A 
DOCKED: ATOM      6  C   UNL     1      29.384 -14.525  -6.425 -0.30 -0.00    +0.000 A 
DOCKED: ATOM      7  C   UNL     1      29.823 -13.235  -6.765 -0.18 -0.00    +0.000 A 
DOCKED: ATOM      8  C   UNL     1      30.404 -12.420  -5.782 -0.05 -0.00    +0.000 A 
DOCKED: ATOM      9  C   UNL     1      30.551 -12.884  -4.473 -0.03 -0.00    +0.000 A 
DOCKED: ATOM     10  C   UNL     1      30.115 -14.171  -4.126 -0.07 -0.00    +0.000 A 
DOCKED: ATOM     11  C   UNL     1      30.257 -14.645  -2.814 -0.05 -0.00    +0.000 A 
DOCKED: BRANCH   7  12
DOCKED: ATOM     12  C   UNL     1      29.654 -12.714  -8.168 -0.19 -0.00    +0.000 C 
DOCKED: BRANCH  12  13
DOCKED: ATOM     13  N   UNL     1      28.275 -12.217  -8.364 -0.26 -0.00    +0.000 N 
DOCKED: ATOM     14  H   UNL     1      27.635 -13.002  -8.239 -0.03 -0.00    +0.000 HD
DOCKED: BRANCH  13  15
DOCKED: ATOM     15  C   UNL     1      28.062 -11.747  -9.754 -0.30 -0.00    +0.000 C 
DOCKED: ATOM     16  C   UNL     1      27.268 -12.757 -10.582 -0.42 -0.00    +0.000 C 
DOCKED: ENDBRANCH  13  15
DOCKED: BRANCH  13  17
DOCKED: ATOM     17  C   UNL     1      27.883 -11.235  -7.323 -0.17 -0.00    +0.000 C 
DOCKED: ATOM     18  C   UNL     1      26.426 -10.760  -7.420 -0.22 -0.00    +0.000 C 
DOCKED: ENDBRANCH  13  17
DOCKED: ENDBRANCH  12  13
DOCKED: ENDBRANCH   7  12
DOCKED: ENDBRANCH   1   2
DOCKED: BRANCH   1  19
DOCKED: ATOM     19  O   UNL     1      29.149 -15.732  -0.187 -0.23 -0.00    +0.000 OA
DOCKED: BRANCH  19  21
DOCKED: ATOM     20  O   UNL     1      27.031 -15.227   0.573 -0.35 -0.00    +0.000 OA
DOCKED: ATOM     21  C   UNL     1      27.788 -16.015  -0.057 -0.33 -0.00    +0.000 C 
DOCKED: ATOM     22  N   UNL     1      27.274 -17.234  -0.613 -0.45 -0.00    +0.000 N 
DOCKED: ATOM     23  H   UNL     1      27.921 -17.892  -0.954 -0.09 -0.00    +0.000 HD
DOCKED: BRANCH  22  24
DOCKED: ATOM     24  C   UNL     1      25.876 -17.556  -0.705 -0.57 -0.00    +0.000 A 
DOCKED: ATOM     25  C   UNL     1      25.144 -17.129  -1.821 -0.57 -0.00    +0.000 A 
DOCKED: ATOM     26  C   UNL     1      23.779 -17.410  -1.926 -0.03 -0.00    +0.000 A 
DOCKED: ATOM     27  C   UNL     1      23.114 -18.119  -0.910 -0.73 -0.00    +0.000 A 
DOCKED: ATOM     28  C   UNL     1      23.843 -18.516   0.227 -0.36 -0.00    +0.000 A 
DOCKED: ATOM     29  C   UNL     1      25.209 -18.234   0.329 -0.43 -0.00    +0.000 A 
DOCKED: BRANCH  27  30
DOCKED: ATOM     30  C   UNL     1      21.664 -18.406  -1.033 -0.77 -0.00    +0.000 C 
DOCKED: ATOM     31  N   UNL     1      21.192 -19.665  -1.529 -0.67 -0.00    +0.000 N 
DOCKED: ATOM     32  O   UNL     1      20.826 -17.522  -0.707 -2.10 +0.00    +0.000 OA
DOCKED: ATOM     33  H   UNL     1      21.833 -20.330  -1.868 -0.45 -0.00    +0.000 HD
DOCKED: BRANCH  31  34
DOCKED: ATOM     34  O   UNL     1      19.866 -19.941  -1.537 -1.66 -0.00    +0.000 OA
DOCKED: ATOM     35  H   UNL     1      19.362 -19.113  -1.479 -0.35 -0.00    +0.000 HD
DOCKED: ENDBRANCH  31  34
DOCKED: ENDBRANCH  27  30
DOCKED: ENDBRANCH  22  24
DOCKED: ENDBRANCH  19  21
DOCKED: ENDBRANCH   1  19
DOCKED: TORSDOF 10
DOCKED: TER
DOCKED: ENDMDL
________________________________________________________________________________


	BEGINNING GENETIC ALGORITHM DOCKING 42 of 100
Run: 42 Seed: 879265067 405607616 [ Run 42 of 100 GA/GALS ]
Beginning LAMARCKIAN GENETIC ALGORITHM (LGA), with a maximum of 2500000 energy evaluations.

Final-Value: -15.026


	FINAL GENETIC ALGORITHM DOCKED STATE
	_______________________________________________


Detailed state:  trans 27.080 -16.012 -3.713 quatxyzw -0.340391 -0.193363 -0.858262 -0.331861 center 1.857 0.216 -0.019 ntor 10 -151.8434 23.4099 -4.3145 -123.7536 -80.6371 -38.1915 -25.8227 11.4364 -147.2051 35.4135
State:	 27.080 -16.012  -3.713  -0.361 -0.205 -0.910 -141.237   -151.84   23.41   -4.31 -123.75  -80.64  -38.19  -25.82   11.44 -147.21   35.41

DOCKED: MODEL       42
DOCKED: USER    Run = 42
DOCKED: USER    DPF = ligand_dock.biased.dpf
DOCKED: USER  
DOCKED: USER    Estimated Free Energy of Binding    =  -10.23 kcal/mol  [=(1)+(2)+(3)-(4)]
DOCKED: USER    Estimated Inhibition Constant, Ki   =   31.62 nM (nanomolar)  [Temperature = 298.15 K]
DOCKED: USER    
DOCKED: USER    (1) Final Intermolecular Energy     =  -13.21 kcal/mol
DOCKED: USER        vdW + Hbond + desolv Energy     =  -13.21 kcal/mol
DOCKED: USER        Electrostatic Energy            =   +0.00 kcal/mol
DOCKED: USER    (2) Final Total Internal Energy     =   -1.81 kcal/mol
DOCKED: USER    (3) Torsional Free Energy           =   +2.98 kcal/mol
DOCKED: USER    (4) Unbound System's Energy  [=(2)] =   -1.81 kcal/mol
DOCKED: USER    
DOCKED: USER    
DOCKED: USER    NEWDPF move ligand.pdbqt
DOCKED: USER    NEWDPF about 1.857000 0.216000 -0.019000
DOCKED: USER    NEWDPF tran0 27.080419 -16.012008 -3.712598
DOCKED: USER    NEWDPF quaternion0 -0.340391 -0.193363 -0.858262 -0.331861
DOCKED: USER    NEWDPF axisangle0 -0.360840 -0.204979 -0.909823 -141.236511
DOCKED: USER    NEWDPF quat0 -0.360840 -0.204979 -0.909823 -141.236511
DOCKED: USER    NEWDPF dihe0 -151.84 23.41 -4.31 -123.75 -80.64 -38.19 -25.82 11.44 -147.21 35.41 
DOCKED: USER  keepresnum = 1 
DOCKED: USER  
DOCKED: REMARK  Name = 
DOCKED: REMARK  12 active torsions:
DOCKED: REMARK  status: ('A' for Active; 'I' for Inactive)
DOCKED: REMARK    1  A    between atoms: C_2  and  O_3
DOCKED: REMARK    2  A    between atoms: O_3  and  C_4
DOCKED: REMARK    3  A    between atoms: C_4  and  C_5
DOCKED: REMARK    4  A    between atoms: C_10  and  C_11
DOCKED: REMARK    5  A    between atoms: C_11  and  N_12
DOCKED: REMARK    6  A    between atoms: N_12  and  C_13
DOCKED: REMARK    7  A    between atoms: N_12  and  C_15
DOCKED: REMARK    8  A    between atoms: C_13  and  C_14
DOCKED: REMARK    9  A    between atoms: C_15  and  C_16
DOCKED: REMARK   10  A    between atoms: N_21  and  C_22
DOCKED: REMARK   11  A    between atoms: C_25  and  C_26
DOCKED: REMARK   12  A    between atoms: N_27  and  O_28
DOCKED: REMARK                            x       y       z     vdW  Elec       q    Type
DOCKED: REMARK                         _______ _______ _______ _____ _____    ______ ____
DOCKED: USER                              x       y       z     vdW  Elec       q    Type
DOCKED: USER                           _______ _______ _______ _____ _____    ______ ____
DOCKED: ROOT
DOCKED: ATOM      1  C   UNL     1      27.396 -14.642  -2.849 -0.27 -0.00    +0.000 C 
DOCKED: ENDROOT
DOCKED: BRANCH   1   2
DOCKED: ATOM      2  C   UNL     1      27.850 -14.242  -4.223 -0.24 -0.00    +0.000 A 
DOCKED: ATOM      3  C   UNL     1      28.664 -15.103  -4.976 -0.30 -0.00    +0.000 A 
DOCKED: ATOM      4  C   UNL     1      29.121 -14.719  -6.240 -0.32 -0.00    +0.000 A 
DOCKED: ATOM      5  C   UNL     1      28.780 -13.464  -6.763 -0.27 -0.00    +0.000 A 
DOCKED: ATOM      6  C   UNL     1      29.234 -13.070  -8.031 -0.16 -0.00    +0.000 A 
DOCKED: ATOM      7  C   UNL     1      28.894 -11.810  -8.548 -0.19 -0.00    +0.000 A 
DOCKED: ATOM      8  C   UNL     1      28.092 -10.944  -7.788 -0.13 -0.00    +0.000 A 
DOCKED: ATOM      9  C   UNL     1      27.636 -11.326  -6.524 -0.14 -0.00    +0.000 A 
DOCKED: ATOM     10  C   UNL     1      27.973 -12.584  -6.002 -0.19 -0.00    +0.000 A 
DOCKED: ATOM     11  C   UNL     1      27.519 -12.978  -4.735 -0.21 -0.00    +0.000 A 
DOCKED: BRANCH   7  12
DOCKED: ATOM     12  C   UNL     1      29.362 -11.390  -9.916 -0.19 -0.00    +0.000 C 
DOCKED: BRANCH  12  13
DOCKED: ATOM     13  N   UNL     1      28.605 -12.117 -10.958 -0.30 -0.00    +0.000 N 
DOCKED: ATOM     14  H   UNL     1      29.095 -12.990 -11.154 -0.51 -0.00    +0.000 HD
DOCKED: BRANCH  13  15
DOCKED: ATOM     15  C   UNL     1      28.594 -11.370 -12.239 -0.25 -0.00    +0.000 C 
DOCKED: ATOM     16  C   UNL     1      29.637 -10.253 -12.256 -0.10 -0.00    +0.000 C 
DOCKED: ENDBRANCH  13  15
DOCKED: BRANCH  13  17
DOCKED: ATOM     17  C   UNL     1      27.261 -12.531 -10.484 -0.46 -0.00    +0.000 C 
DOCKED: ATOM     18  C   UNL     1      26.154 -11.499 -10.743 -0.44 -0.00    +0.000 C 
DOCKED: ENDBRANCH  13  17
DOCKED: ENDBRANCH  12  13
DOCKED: ENDBRANCH   7  12
DOCKED: ENDBRANCH   1   2
DOCKED: BRANCH   1  19
DOCKED: ATOM     19  O   UNL     1      26.704 -15.884  -2.927 -0.42 -0.00    +0.000 OA
DOCKED: BRANCH  19  21
DOCKED: ATOM     20  O   UNL     1      25.061 -15.286  -1.422 -0.34 -0.00    +0.000 OA
DOCKED: ATOM     21  C   UNL     1      25.605 -16.186  -2.119 -0.55 -0.00    +0.000 C 
DOCKED: ATOM     22  N   UNL     1      25.133 -17.539  -2.064 -0.57 -0.00    +0.000 N 
DOCKED: ATOM     23  H   UNL     1      25.680 -18.234  -2.495 +0.03 -0.00    +0.000 HD
DOCKED: BRANCH  22  24
DOCKED: ATOM     24  C   UNL     1      23.913 -17.947  -1.421 -0.67 -0.00    +0.000 A 
DOCKED: ATOM     25  C   UNL     1      23.619 -19.312  -1.307 -0.54 -0.00    +0.000 A 
DOCKED: ATOM     26  C   UNL     1      22.430 -19.735  -0.706 -0.28 -0.00    +0.000 A 
DOCKED: ATOM     27  C   UNL     1      21.506 -18.799  -0.212 -0.72 -0.00    +0.000 A 
DOCKED: ATOM     28  C   UNL     1      21.786 -17.428  -0.359 -0.52 -0.00    +0.000 A 
DOCKED: ATOM     29  C   UNL     1      22.976 -17.007  -0.960 -0.47 -0.00    +0.000 A 
DOCKED: BRANCH  27  30
DOCKED: ATOM     30  C   UNL     1      20.246 -19.263   0.420 -0.52 -0.00    +0.000 C 
DOCKED: ATOM     31  N   UNL     1      20.229 -19.786   1.754 -0.67 -0.00    +0.000 N 
DOCKED: ATOM     32  O   UNL     1      19.168 -19.209  -0.232 -0.98 -0.00    +0.000 OA
DOCKED: ATOM     33  H   UNL     1      21.074 -19.914   2.241 -0.58 -0.00    +0.000 HD
DOCKED: BRANCH  31  34
DOCKED: ATOM     34  O   UNL     1      19.054 -20.108   2.345 -0.72 -0.00    +0.000 OA
DOCKED: ATOM     35  H   UNL     1      18.319 -19.860   1.761 -0.03 -0.00    +0.000 HD
DOCKED: ENDBRANCH  31  34
DOCKED: ENDBRANCH  27  30
DOCKED: ENDBRANCH  22  24
DOCKED: ENDBRANCH  19  21
DOCKED: ENDBRANCH   1  19
DOCKED: TORSDOF 10
DOCKED: TER
DOCKED: ENDMDL
________________________________________________________________________________


	BEGINNING GENETIC ALGORITHM DOCKING 43 of 100
Run: 43 Seed: 763764656 1680784356 [ Run 43 of 100 GA/GALS ]
Beginning LAMARCKIAN GENETIC ALGORITHM (LGA), with a maximum of 2500000 energy evaluations.

Final-Value: -16.806


	FINAL GENETIC ALGORITHM DOCKED STATE
	_______________________________________________


Detailed state:  trans 29.349 -16.321 -0.655 quatxyzw -0.533466 -0.415646 -0.694585 -0.245367 center 1.857 0.216 -0.019 ntor 10 -54.0568 -10.1393 14.2982 21.7600 -21.5611 179.3657 -166.5718 -74.1037 -16.1629 100.2934
State:	 29.349 -16.321  -0.655  -0.550 -0.429 -0.716 -151.593    -54.06  -10.14   14.30   21.76  -21.56  179.37 -166.57  -74.10  -16.16  100.29

DOCKED: MODEL       43
DOCKED: USER    Run = 43
DOCKED: USER    DPF = ligand_dock.biased.dpf
DOCKED: USER  
DOCKED: USER    Estimated Free Energy of Binding    =  -11.44 kcal/mol  [=(1)+(2)+(3)-(4)]
DOCKED: USER    Estimated Inhibition Constant, Ki   =    4.13 nM (nanomolar)  [Temperature = 298.15 K]
DOCKED: USER    
DOCKED: USER    (1) Final Intermolecular Energy     =  -14.42 kcal/mol
DOCKED: USER        vdW + Hbond + desolv Energy     =  -14.42 kcal/mol
DOCKED: USER        Electrostatic Energy            =   +0.00 kcal/mol
DOCKED: USER    (2) Final Total Internal Energy     =   -2.39 kcal/mol
DOCKED: USER    (3) Torsional Free Energy           =   +2.98 kcal/mol
DOCKED: USER    (4) Unbound System's Energy  [=(2)] =   -2.39 kcal/mol
DOCKED: USER    
DOCKED: USER    
DOCKED: USER    NEWDPF move ligand.pdbqt
DOCKED: USER    NEWDPF about 1.857000 0.216000 -0.019000
DOCKED: USER    NEWDPF tran0 29.349247 -16.321066 -0.655385
DOCKED: USER    NEWDPF quaternion0 -0.533466 -0.415646 -0.694585 -0.245367
DOCKED: USER    NEWDPF axisangle0 -0.550288 -0.428753 -0.716487 -151.592940
DOCKED: USER    NEWDPF quat0 -0.550288 -0.428753 -0.716487 -151.592940
DOCKED: USER    NEWDPF dihe0 -54.06 -10.14 14.30 21.76 -21.56 179.37 -166.57 -74.10 -16.16 100.29 
DOCKED: USER  keepresnum = 1 
DOCKED: USER  
DOCKED: REMARK  Name = 
DOCKED: REMARK  12 active torsions:
DOCKED: REMARK  status: ('A' for Active; 'I' for Inactive)
DOCKED: REMARK    1  A    between atoms: C_2  and  O_3
DOCKED: REMARK    2  A    between atoms: O_3  and  C_4
DOCKED: REMARK    3  A    between atoms: C_4  and  C_5
DOCKED: REMARK    4  A    between atoms: C_10  and  C_11
DOCKED: REMARK    5  A    between atoms: C_11  and  N_12
DOCKED: REMARK    6  A    between atoms: N_12  and  C_13
DOCKED: REMARK    7  A    between atoms: N_12  and  C_15
DOCKED: REMARK    8  A    between atoms: C_13  and  C_14
DOCKED: REMARK    9  A    between atoms: C_15  and  C_16
DOCKED: REMARK   10  A    between atoms: N_21  and  C_22
DOCKED: REMARK   11  A    between atoms: C_25  and  C_26
DOCKED: REMARK   12  A    between atoms: N_27  and  O_28
DOCKED: REMARK                            x       y       z     vdW  Elec       q    Type
DOCKED: REMARK                         _______ _______ _______ _____ _____    ______ ____
DOCKED: USER                              x       y       z     vdW  Elec       q    Type
DOCKED: USER                           _______ _______ _______ _____ _____    ______ ____
DOCKED: ROOT
DOCKED: ATOM      1  C   UNL     1      29.696 -14.724  -0.882 -0.10 -0.00    +0.000 C 
DOCKED: ENDROOT
DOCKED: BRANCH   1   2
DOCKED: ATOM      2  C   UNL     1      29.765 -15.249  -2.287 -0.09 -0.00    +0.000 A 
DOCKED: ATOM      3  C   UNL     1      28.595 -15.376  -3.051 -0.19 -0.00    +0.000 A 
DOCKED: ATOM      4  C   UNL     1      28.649 -15.899  -4.347 -0.26 -0.00    +0.000 A 
DOCKED: ATOM      5  C   UNL     1      29.872 -16.315  -4.889 -0.25 -0.00    +0.000 A 
DOCKED: ATOM      6  C   UNL     1      29.936 -16.842  -6.188 -0.27 -0.00    +0.000 A 
DOCKED: ATOM      7  C   UNL     1      31.164 -17.262  -6.725 -0.26 -0.00    +0.000 A 
DOCKED: ATOM      8  C   UNL     1      32.331 -17.149  -5.954 -0.08 -0.00    +0.000 A 
DOCKED: ATOM      9  C   UNL     1      32.277 -16.627  -4.659 -0.05 -0.00    +0.000 A 
DOCKED: ATOM     10  C   UNL     1      31.054 -16.206  -4.118 -0.10 -0.00    +0.000 A 
DOCKED: ATOM     11  C   UNL     1      30.990 -15.678  -2.820 -0.06 -0.00    +0.000 A 
DOCKED: BRANCH   7  12
DOCKED: ATOM     12  C   UNL     1      31.242 -17.810  -8.126 -0.34 -0.00    +0.000 C 
DOCKED: BRANCH  12  13
DOCKED: ATOM     13  N   UNL     1      30.573 -19.128  -8.194 -0.39 -0.00    +0.000 N 
DOCKED: ATOM     14  H   UNL     1      29.611 -19.011  -7.875 -0.09 -0.00    +0.000 HD
DOCKED: BRANCH  13  15
DOCKED: ATOM     15  C   UNL     1      31.189 -20.096  -7.255 -0.35 -0.00    +0.000 C 
DOCKED: ATOM     16  C   UNL     1      30.240 -20.466  -6.115 -0.46 -0.00    +0.000 C 
DOCKED: ENDBRANCH  13  15
DOCKED: BRANCH  13  17
DOCKED: ATOM     17  C   UNL     1      30.456 -19.623  -9.588 -0.30 -0.00    +0.000 C 
DOCKED: ATOM     18  C   UNL     1      31.792 -19.729 -10.335 -0.28 -0.00    +0.000 C 
DOCKED: ENDBRANCH  13  17
DOCKED: ENDBRANCH  12  13
DOCKED: ENDBRANCH   7  12
DOCKED: ENDBRANCH   1   2
DOCKED: BRANCH   1  19
DOCKED: ATOM     19  O   UNL     1      29.155 -15.730  -0.032 -0.23 -0.00    +0.000 OA
DOCKED: BRANCH  19  21
DOCKED: ATOM     20  O   UNL     1      27.023 -15.207   0.675 -0.34 -0.00    +0.000 OA
DOCKED: ATOM     21  C   UNL     1      27.786 -15.993   0.049 -0.32 -0.00    +0.000 C 
DOCKED: ATOM     22  N   UNL     1      27.269 -17.188  -0.552 -0.45 -0.00    +0.000 N 
DOCKED: ATOM     23  H   UNL     1      27.916 -17.849  -0.888 -0.09 -0.00    +0.000 HD
DOCKED: BRANCH  22  24
DOCKED: ATOM     24  C   UNL     1      25.870 -17.485  -0.695 -0.57 -0.00    +0.000 A 
DOCKED: ATOM     25  C   UNL     1      25.002 -16.493  -1.172 -0.52 -0.00    +0.000 A 
DOCKED: ATOM     26  C   UNL     1      23.634 -16.747  -1.299 -0.39 -0.00    +0.000 A 
DOCKED: ATOM     27  C   UNL     1      23.102 -17.999  -0.945 -0.71 -0.00    +0.000 A 
DOCKED: ATOM     28  C   UNL     1      23.969 -18.982  -0.433 -0.45 -0.00    +0.000 A 
DOCKED: ATOM     29  C   UNL     1      25.338 -18.726  -0.306 -0.36 -0.00    +0.000 A 
DOCKED: BRANCH  27  30
DOCKED: ATOM     30  C   UNL     1      21.648 -18.253  -1.083 -0.71 -0.00    +0.000 C 
DOCKED: ATOM     31  N   UNL     1      21.153 -19.475  -1.645 -0.70 -0.00    +0.000 N 
DOCKED: ATOM     32  O   UNL     1      20.825 -17.372  -0.711 -1.94 +0.00    +0.000 OA
DOCKED: ATOM     33  H   UNL     1      21.782 -20.133  -2.018 -0.52 -0.00    +0.000 HD
DOCKED: BRANCH  31  34
DOCKED: ATOM     34  O   UNL     1      19.822 -19.726  -1.666 -1.77 -0.00    +0.000 OA
DOCKED: ATOM     35  H   UNL     1      19.335 -18.908  -1.478 -0.39 -0.00    +0.000 HD
DOCKED: ENDBRANCH  31  34
DOCKED: ENDBRANCH  27  30
DOCKED: ENDBRANCH  22  24
DOCKED: ENDBRANCH  19  21
DOCKED: ENDBRANCH   1  19
DOCKED: TORSDOF 10
DOCKED: TER
DOCKED: ENDMDL
________________________________________________________________________________


	BEGINNING GENETIC ALGORITHM DOCKING 44 of 100
Run: 44 Seed: 1776595547 1173631767 [ Run 44 of 100 GA/GALS ]
Beginning LAMARCKIAN GENETIC ALGORITHM (LGA), with a maximum of 2500000 energy evaluations.

Final-Value: -16.068


	FINAL GENETIC ALGORITHM DOCKED STATE
	_______________________________________________


Detailed state:  trans 28.644 -15.706 -2.047 quatxyzw 0.683511 -0.431815 0.521966 -0.271846 center 1.857 0.216 -0.019 ntor 10 158.8923 -165.5156 11.5248 -5.1481 -176.4566 -179.8367 -73.4222 -77.1494 -171.1994 -114.7701
State:	 28.644 -15.706  -2.047   0.710 -0.449  0.542 -148.452    158.89 -165.52   11.52   -5.15 -176.46 -179.84  -73.42  -77.15 -171.20 -114.77

DOCKED: MODEL       44
DOCKED: USER    Run = 44
DOCKED: USER    DPF = ligand_dock.biased.dpf
DOCKED: USER  
DOCKED: USER    Estimated Free Energy of Binding    =  -10.99 kcal/mol  [=(1)+(2)+(3)-(4)]
DOCKED: USER    Estimated Inhibition Constant, Ki   =    8.83 nM (nanomolar)  [Temperature = 298.15 K]
DOCKED: USER    
DOCKED: USER    (1) Final Intermolecular Energy     =  -13.97 kcal/mol
DOCKED: USER        vdW + Hbond + desolv Energy     =  -13.97 kcal/mol
DOCKED: USER        Electrostatic Energy            =   +0.00 kcal/mol
DOCKED: USER    (2) Final Total Internal Energy     =   -2.10 kcal/mol
DOCKED: USER    (3) Torsional Free Energy           =   +2.98 kcal/mol
DOCKED: USER    (4) Unbound System's Energy  [=(2)] =   -2.10 kcal/mol
DOCKED: USER    
DOCKED: USER    
DOCKED: USER    NEWDPF move ligand.pdbqt
DOCKED: USER    NEWDPF about 1.857000 0.216000 -0.019000
DOCKED: USER    NEWDPF tran0 28.643541 -15.705833 -2.047171
DOCKED: USER    NEWDPF quaternion0 0.683511 -0.431815 0.521966 -0.271846
DOCKED: USER    NEWDPF axisangle0 0.710259 -0.448713 0.542392 -148.451711
DOCKED: USER    NEWDPF quat0 0.710259 -0.448713 0.542392 -148.451711
DOCKED: USER    NEWDPF dihe0 158.89 -165.52 11.52 -5.15 -176.46 -179.84 -73.42 -77.15 -171.20 -114.77 
DOCKED: USER  keepresnum = 1 
DOCKED: USER  
DOCKED: REMARK  Name = 
DOCKED: REMARK  12 active torsions:
DOCKED: REMARK  status: ('A' for Active; 'I' for Inactive)
DOCKED: REMARK    1  A    between atoms: C_2  and  O_3
DOCKED: REMARK    2  A    between atoms: O_3  and  C_4
DOCKED: REMARK    3  A    between atoms: C_4  and  C_5
DOCKED: REMARK    4  A    between atoms: C_10  and  C_11
DOCKED: REMARK    5  A    between atoms: C_11  and  N_12
DOCKED: REMARK    6  A    between atoms: N_12  and  C_13
DOCKED: REMARK    7  A    between atoms: N_12  and  C_15
DOCKED: REMARK    8  A    between atoms: C_13  and  C_14
DOCKED: REMARK    9  A    between atoms: C_15  and  C_16
DOCKED: REMARK   10  A    between atoms: N_21  and  C_22
DOCKED: REMARK   11  A    between atoms: C_25  and  C_26
DOCKED: REMARK   12  A    between atoms: N_27  and  O_28
DOCKED: REMARK                            x       y       z     vdW  Elec       q    Type
DOCKED: REMARK                         _______ _______ _______ _____ _____    ______ ____
DOCKED: USER                              x       y       z     vdW  Elec       q    Type
DOCKED: USER                           _______ _______ _______ _____ _____    ______ ____
DOCKED: ROOT
DOCKED: ATOM      1  C   UNL     1      29.923 -16.584  -2.608 -0.20 -0.00    +0.000 C 
DOCKED: ENDROOT
DOCKED: BRANCH   1   2
DOCKED: ATOM      2  C   UNL     1      29.652 -15.671  -3.770 -0.17 -0.00    +0.000 A 
DOCKED: ATOM      3  C   UNL     1      28.503 -15.850  -4.555 -0.27 -0.00    +0.000 A 
DOCKED: ATOM      4  C   UNL     1      28.266 -15.027  -5.660 -0.37 -0.00    +0.000 A 
DOCKED: ATOM      5  C   UNL     1      29.183 -14.023  -6.002 -0.24 -0.00    +0.000 A 
DOCKED: ATOM      6  C   UNL     1      28.953 -13.193  -7.110 -0.25 -0.00    +0.000 A 
DOCKED: ATOM      7  C   UNL     1      29.878 -12.192  -7.451 -0.13 -0.00    +0.000 A 
DOCKED: ATOM      8  C   UNL     1      31.034 -12.025  -6.674 -0.05 -0.00    +0.000 A 
DOCKED: ATOM      9  C   UNL     1      31.272 -12.848  -5.570 -0.03 -0.00    +0.000 A 
DOCKED: ATOM     10  C   UNL     1      30.353 -13.849  -5.224 -0.08 -0.00    +0.000 A 
DOCKED: ATOM     11  C   UNL     1      30.582 -14.678  -4.117 -0.06 -0.00    +0.000 A 
DOCKED: BRANCH   7  12
DOCKED: ATOM     12  C   UNL     1      29.627 -11.285  -8.627 -0.13 -0.00    +0.000 C 
DOCKED: BRANCH  12  13
DOCKED: ATOM     13  N   UNL     1      29.717 -12.052  -9.888 -0.16 -0.00    +0.000 N 
DOCKED: ATOM     14  H   UNL     1      29.430 -13.012  -9.697 -0.54 -0.00    +0.000 HD
DOCKED: BRANCH  13  15
DOCKED: ATOM     15  C   UNL     1      31.118 -12.144 -10.366 -0.16 -0.00    +0.000 C 
DOCKED: ATOM     16  C   UNL     1      31.910 -10.875 -10.053 -0.06 -0.00    +0.000 C 
DOCKED: ENDBRANCH  13  15
DOCKED: BRANCH  13  17
DOCKED: ATOM     17  C   UNL     1      28.757 -11.563 -10.909 -0.26 -0.00    +0.000 C 
DOCKED: ATOM     18  C   UNL     1      27.467 -12.388 -11.010 -0.46 +0.00    +0.000 C 
DOCKED: ENDBRANCH  13  17
DOCKED: ENDBRANCH  12  13
DOCKED: ENDBRANCH   7  12
DOCKED: ENDBRANCH   1   2
DOCKED: BRANCH   1  19
DOCKED: ATOM     19  O   UNL     1      29.152 -16.160  -1.489 -0.21 -0.00    +0.000 OA
DOCKED: BRANCH  19  21
DOCKED: ATOM     20  O   UNL     1      27.086 -15.318  -2.075 -0.30 -0.00    +0.000 OA
DOCKED: ATOM     21  C   UNL     1      27.756 -16.203  -1.476 -0.34 -0.00    +0.000 C 
DOCKED: ATOM     22  N   UNL     1      27.098 -17.242  -0.736 -0.47 -0.00    +0.000 N 
DOCKED: ATOM     23  H   UNL     1      27.652 -17.812  -0.155 -0.24 -0.00    +0.000 HD
DOCKED: BRANCH  22  24
DOCKED: ATOM     24  C   UNL     1      25.686 -17.504  -0.787 -0.58 -0.00    +0.000 A 
DOCKED: ATOM     25  C   UNL     1      25.234 -18.830  -0.823 -0.15 -0.00    +0.000 A 
DOCKED: ATOM     26  C   UNL     1      23.867 -19.113  -0.896 -0.56 -0.00    +0.000 A 
DOCKED: ATOM     27  C   UNL     1      22.922 -18.073  -0.941 -0.72 -0.00    +0.000 A 
DOCKED: ATOM     28  C   UNL     1      23.380 -16.742  -0.942 -0.40 -0.00    +0.000 A 
DOCKED: ATOM     29  C   UNL     1      24.748 -16.461  -0.868 -0.46 -0.00    +0.000 A 
DOCKED: BRANCH  27  30
DOCKED: ATOM     30  C   UNL     1      21.475 -18.388  -1.022 -0.75 -0.00    +0.000 C 
DOCKED: ATOM     31  N   UNL     1      21.014 -19.675  -1.453 -0.76 -0.00    +0.000 N 
DOCKED: ATOM     32  O   UNL     1      20.629 -17.504  -0.718 -2.09 +0.00    +0.000 OA
DOCKED: ATOM     33  H   UNL     1      21.660 -20.344  -1.775 -0.42 -0.00    +0.000 HD
DOCKED: BRANCH  31  34
DOCKED: ATOM     34  O   UNL     1      19.693 -19.972  -1.421 -1.50 -0.00    +0.000 OA
DOCKED: ATOM     35  H   UNL     1      19.183 -19.162  -1.258 -0.40 -0.00    +0.000 HD
DOCKED: ENDBRANCH  31  34
DOCKED: ENDBRANCH  27  30
DOCKED: ENDBRANCH  22  24
DOCKED: ENDBRANCH  19  21
DOCKED: ENDBRANCH   1  19
DOCKED: TORSDOF 10
DOCKED: TER
DOCKED: ENDMDL
________________________________________________________________________________


	BEGINNING GENETIC ALGORITHM DOCKING 45 of 100
Run: 45 Seed: 157965899 680568014 [ Run 45 of 100 GA/GALS ]
Beginning LAMARCKIAN GENETIC ALGORITHM (LGA), with a maximum of 2500000 energy evaluations.

Final-Value: -14.254


	FINAL GENETIC ALGORITHM DOCKED STATE
	_______________________________________________


Detailed state:  trans 27.802 -15.495 -2.742 quatxyzw -0.076956 0.823080 0.338278 0.449650 center 1.857 0.216 -0.019 ntor 10 -126.7475 180.0000 -7.2096 -44.5245 159.6203 167.9795 39.4643 -171.6412 158.2787 22.8283
State:	 27.802 -15.495  -2.742  -0.086  0.921  0.379 126.558   -126.75  180.00   -7.21  -44.52  159.62  167.98   39.46 -171.64  158.28   22.83

DOCKED: MODEL       45
DOCKED: USER    Run = 45
DOCKED: USER    DPF = ligand_dock.biased.dpf
DOCKED: USER  
DOCKED: USER    Estimated Free Energy of Binding    =   -9.25 kcal/mol  [=(1)+(2)+(3)-(4)]
DOCKED: USER    Estimated Inhibition Constant, Ki   =  164.63 nM (nanomolar)  [Temperature = 298.15 K]
DOCKED: USER    
DOCKED: USER    (1) Final Intermolecular Energy     =  -12.24 kcal/mol
DOCKED: USER        vdW + Hbond + desolv Energy     =  -12.24 kcal/mol
DOCKED: USER        Electrostatic Energy            =   +0.00 kcal/mol
DOCKED: USER    (2) Final Total Internal Energy     =   -2.02 kcal/mol
DOCKED: USER    (3) Torsional Free Energy           =   +2.98 kcal/mol
DOCKED: USER    (4) Unbound System's Energy  [=(2)] =   -2.02 kcal/mol
DOCKED: USER    
DOCKED: USER    
DOCKED: USER    NEWDPF move ligand.pdbqt
DOCKED: USER    NEWDPF about 1.857000 0.216000 -0.019000
DOCKED: USER    NEWDPF tran0 27.802259 -15.494686 -2.741850
DOCKED: USER    NEWDPF quaternion0 -0.076956 0.823080 0.338278 0.449650
DOCKED: USER    NEWDPF axisangle0 -0.086157 0.921491 0.378724 126.557570
DOCKED: USER    NEWDPF quat0 -0.086157 0.921491 0.378724 126.557570
DOCKED: USER    NEWDPF dihe0 -126.75 180.00 -7.21 -44.52 159.62 167.98 39.46 -171.64 158.28 22.83 
DOCKED: USER  keepresnum = 1 
DOCKED: USER  
DOCKED: REMARK  Name = 
DOCKED: REMARK  12 active torsions:
DOCKED: REMARK  status: ('A' for Active; 'I' for Inactive)
DOCKED: REMARK    1  A    between atoms: C_2  and  O_3
DOCKED: REMARK    2  A    between atoms: O_3  and  C_4
DOCKED: REMARK    3  A    between atoms: C_4  and  C_5
DOCKED: REMARK    4  A    between atoms: C_10  and  C_11
DOCKED: REMARK    5  A    between atoms: C_11  and  N_12
DOCKED: REMARK    6  A    between atoms: N_12  and  C_13
DOCKED: REMARK    7  A    between atoms: N_12  and  C_15
DOCKED: REMARK    8  A    between atoms: C_13  and  C_14
DOCKED: REMARK    9  A    between atoms: C_15  and  C_16
DOCKED: REMARK   10  A    between atoms: N_21  and  C_22
DOCKED: REMARK   11  A    between atoms: C_25  and  C_26
DOCKED: REMARK   12  A    between atoms: N_27  and  O_28
DOCKED: REMARK                            x       y       z     vdW  Elec       q    Type
DOCKED: REMARK                         _______ _______ _______ _____ _____    ______ ____
DOCKED: USER                              x       y       z     vdW  Elec       q    Type
DOCKED: USER                           _______ _______ _______ _____ _____    ______ ____
DOCKED: ROOT
DOCKED: ATOM      1  C   UNL     1      26.585 -15.188  -3.812 -0.50 -0.00    +0.000 C 
DOCKED: ENDROOT
DOCKED: BRANCH   1   2
DOCKED: ATOM      2  C   UNL     1      27.799 -14.921  -4.654 -0.34 -0.00    +0.000 A 
DOCKED: ATOM      3  C   UNL     1      28.214 -13.602  -4.895 -0.20 -0.00    +0.000 A 
DOCKED: ATOM      4  C   UNL     1      29.322 -13.348  -5.710 -0.15 -0.00    +0.000 A 
DOCKED: ATOM      5  C   UNL     1      30.020 -14.407  -6.304 -0.21 -0.00    +0.000 A 
DOCKED: ATOM      6  C   UNL     1      31.132 -14.161  -7.124 -0.15 -0.00    +0.000 A 
DOCKED: ATOM      7  C   UNL     1      31.825 -15.227  -7.721 -0.17 -0.00    +0.000 A 
DOCKED: ATOM      8  C   UNL     1      31.398 -16.544  -7.491 -0.24 -0.00    +0.000 A 
DOCKED: ATOM      9  C   UNL     1      30.291 -16.799  -6.678 -0.29 -0.00    +0.000 A 
DOCKED: ATOM     10  C   UNL     1      29.596 -15.739  -6.079 -0.32 -0.00    +0.000 A 
DOCKED: ATOM     11  C   UNL     1      28.484 -15.986  -5.260 -0.20 -0.00    +0.000 A 
DOCKED: BRANCH   7  12
DOCKED: ATOM     12  C   UNL     1      33.031 -14.969  -8.585 -0.13 -0.00    +0.000 C 
DOCKED: BRANCH  12  13
DOCKED: ATOM     13  N   UNL     1      32.606 -14.568  -9.944 -0.18 -0.00    +0.000 N 
DOCKED: ATOM     14  H   UNL     1      31.599 -14.712 -10.016 -0.26 -0.00    +0.000 HD
DOCKED: BRANCH  13  15
DOCKED: ATOM     15  C   UNL     1      33.210 -15.441 -10.979 -0.16 -0.00    +0.000 C 
DOCKED: ATOM     16  C   UNL     1      33.245 -16.905 -10.539 -0.17 -0.00    +0.000 C 
DOCKED: ENDBRANCH  13  15
DOCKED: BRANCH  13  17
DOCKED: ATOM     17  C   UNL     1      32.802 -13.116 -10.183 -0.14 -0.00    +0.000 C 
DOCKED: ATOM     18  C   UNL     1      31.499 -12.324 -10.358 -0.16 -0.00    +0.000 C 
DOCKED: ENDBRANCH  13  17
DOCKED: ENDBRANCH  12  13
DOCKED: ENDBRANCH   7  12
DOCKED: ENDBRANCH   1   2
DOCKED: BRANCH   1  19
DOCKED: ATOM     19  O   UNL     1      26.987 -15.789  -2.586 -0.36 -0.00    +0.000 OA
DOCKED: BRANCH  19  21
DOCKED: ATOM     20  O   UNL     1      26.482 -16.964  -0.667 -0.53 -0.00    +0.000 OA
DOCKED: ATOM     21  C   UNL     1      26.125 -16.568  -1.810 -0.52 -0.00    +0.000 C 
DOCKED: ATOM     22  N   UNL     1      24.849 -16.942  -2.348 -0.55 -0.00    +0.000 N 
DOCKED: ATOM     23  H   UNL     1      24.677 -16.748  -3.298 -0.02 -0.00    +0.000 HD
DOCKED: BRANCH  22  24
DOCKED: ATOM     24  C   UNL     1      23.806 -17.581  -1.593 -0.55 -0.00    +0.000 A 
DOCKED: ATOM     25  C   UNL     1      23.514 -18.931  -1.830 -0.48 -0.00    +0.000 A 
DOCKED: ATOM     26  C   UNL     1      22.491 -19.571  -1.127 -0.24 -0.00    +0.000 A 
DOCKED: ATOM     27  C   UNL     1      21.731 -18.870  -0.173 -0.71 -0.00    +0.000 A 
DOCKED: ATOM     28  C   UNL     1      22.002 -17.506   0.038 -0.33 -0.00    +0.000 A 
DOCKED: ATOM     29  C   UNL     1      23.027 -16.867  -0.667 -0.46 -0.00    +0.000 A 
DOCKED: BRANCH  27  30
DOCKED: ATOM     30  C   UNL     1      20.646 -19.562   0.564 -0.67 -0.00    +0.000 C 
DOCKED: ATOM     31  N   UNL     1      19.736 -20.447  -0.102 -0.70 -0.00    +0.000 N 
DOCKED: ATOM     32  O   UNL     1      20.507 -19.358   1.801 -0.75 -0.00    +0.000 OA
DOCKED: ATOM     33  H   UNL     1      19.779 -20.547  -1.080 -0.49 -0.00    +0.000 HD
DOCKED: BRANCH  31  34
DOCKED: ATOM     34  O   UNL     1      18.818 -21.144   0.609 -0.77 -0.00    +0.000 OA
DOCKED: ATOM     35  H   UNL     1      18.982 -21.021   1.558 -0.10 -0.00    +0.000 HD
DOCKED: ENDBRANCH  31  34
DOCKED: ENDBRANCH  27  30
DOCKED: ENDBRANCH  22  24
DOCKED: ENDBRANCH  19  21
DOCKED: ENDBRANCH   1  19
DOCKED: TORSDOF 10
DOCKED: TER
DOCKED: ENDMDL
________________________________________________________________________________


	BEGINNING GENETIC ALGORITHM DOCKING 46 of 100
Run: 46 Seed: 1361803111 1284582606 [ Run 46 of 100 GA/GALS ]
Beginning LAMARCKIAN GENETIC ALGORITHM (LGA), with a maximum of 2500000 energy evaluations.

Final-Value: -16.204


	FINAL GENETIC ALGORITHM DOCKED STATE
	_______________________________________________


Detailed state:  trans 29.704 -17.286 -0.924 quatxyzw 0.532845 0.594218 0.602445 -0.006458 center 1.857 0.216 -0.019 ntor 10 179.8589 -134.1791 9.9621 -36.5386 104.2083 -137.9279 12.2621 -54.8212 -143.0126 93.9997
State:	 29.704 -17.286  -0.924   0.533  0.594  0.602 -179.260    179.86 -134.18    9.96  -36.54  104.21 -137.93   12.26  -54.82 -143.01   94.00

DOCKED: MODEL       46
DOCKED: USER    Run = 46
DOCKED: USER    DPF = ligand_dock.biased.dpf
DOCKED: USER  
DOCKED: USER    Estimated Free Energy of Binding    =  -11.02 kcal/mol  [=(1)+(2)+(3)-(4)]
DOCKED: USER    Estimated Inhibition Constant, Ki   =    8.31 nM (nanomolar)  [Temperature = 298.15 K]
DOCKED: USER    
DOCKED: USER    (1) Final Intermolecular Energy     =  -14.01 kcal/mol
DOCKED: USER        vdW + Hbond + desolv Energy     =  -14.01 kcal/mol
DOCKED: USER        Electrostatic Energy            =   +0.00 kcal/mol
DOCKED: USER    (2) Final Total Internal Energy     =   -2.20 kcal/mol
DOCKED: USER    (3) Torsional Free Energy           =   +2.98 kcal/mol
DOCKED: USER    (4) Unbound System's Energy  [=(2)] =   -2.20 kcal/mol
DOCKED: USER    
DOCKED: USER    
DOCKED: USER    NEWDPF move ligand.pdbqt
DOCKED: USER    NEWDPF about 1.857000 0.216000 -0.019000
DOCKED: USER    NEWDPF tran0 29.704019 -17.286308 -0.923876
DOCKED: USER    NEWDPF quaternion0 0.532845 0.594218 0.602445 -0.006458
DOCKED: USER    NEWDPF axisangle0 0.532856 0.594230 0.602458 -179.260006
DOCKED: USER    NEWDPF quat0 0.532856 0.594230 0.602458 -179.260006
DOCKED: USER    NEWDPF dihe0 179.86 -134.18 9.96 -36.54 104.21 -137.93 12.26 -54.82 -143.01 94.00 
DOCKED: USER  keepresnum = 1 
DOCKED: USER  
DOCKED: REMARK  Name = 
DOCKED: REMARK  12 active torsions:
DOCKED: REMARK  status: ('A' for Active; 'I' for Inactive)
DOCKED: REMARK    1  A    between atoms: C_2  and  O_3
DOCKED: REMARK    2  A    between atoms: O_3  and  C_4
DOCKED: REMARK    3  A    between atoms: C_4  and  C_5
DOCKED: REMARK    4  A    between atoms: C_10  and  C_11
DOCKED: REMARK    5  A    between atoms: C_11  and  N_12
DOCKED: REMARK    6  A    between atoms: N_12  and  C_13
DOCKED: REMARK    7  A    between atoms: N_12  and  C_15
DOCKED: REMARK    8  A    between atoms: C_13  and  C_14
DOCKED: REMARK    9  A    between atoms: C_15  and  C_16
DOCKED: REMARK   10  A    between atoms: N_21  and  C_22
DOCKED: REMARK   11  A    between atoms: C_25  and  C_26
DOCKED: REMARK   12  A    between atoms: N_27  and  O_28
DOCKED: REMARK                            x       y       z     vdW  Elec       q    Type
DOCKED: REMARK                         _______ _______ _______ _____ _____    ______ ____
DOCKED: USER                              x       y       z     vdW  Elec       q    Type
DOCKED: USER                           _______ _______ _______ _____ _____    ______ ____
DOCKED: ROOT
DOCKED: ATOM      1  C   UNL     1      30.343 -16.127  -1.909 -0.13 -0.00    +0.000 C 
DOCKED: ENDROOT
DOCKED: BRANCH   1   2
DOCKED: ATOM      2  C   UNL     1      30.541 -17.365  -2.735 -0.16 -0.00    +0.000 A 
DOCKED: ATOM      3  C   UNL     1      30.997 -18.549  -2.134 -0.14 -0.00    +0.000 A 
DOCKED: ATOM      4  C   UNL     1      31.219 -19.694  -2.905 -0.05 -0.00    +0.000 A 
DOCKED: ATOM      5  C   UNL     1      31.001 -19.666  -4.289 -0.13 -0.00    +0.000 A 
DOCKED: ATOM      6  C   UNL     1      31.223 -20.810  -5.071 -0.26 -0.00    +0.000 A 
DOCKED: ATOM      7  C   UNL     1      31.008 -20.775  -6.458 -0.33 -0.00    +0.000 A 
DOCKED: ATOM      8  C   UNL     1      30.567 -19.587  -7.060 -0.39 -0.00    +0.000 A 
DOCKED: ATOM      9  C   UNL     1      30.345 -18.442  -6.290 -0.34 -0.00    +0.000 A 
DOCKED: ATOM     10  C   UNL     1      30.558 -18.471  -4.904 -0.26 -0.00    +0.000 A 
DOCKED: ATOM     11  C   UNL     1      30.337 -17.327  -4.123 -0.22 -0.00    +0.000 A 
DOCKED: BRANCH   7  12
DOCKED: ATOM     12  C   UNL     1      31.225 -22.006  -7.299 -0.26 -0.00    +0.000 C 
DOCKED: BRANCH  12  13
DOCKED: ATOM     13  N   UNL     1      32.216 -22.894  -6.654 -0.14 -0.00    +0.000 N 
DOCKED: ATOM     14  H   UNL     1      32.535 -22.443  -5.797 +0.00 -0.00    +0.000 HD
DOCKED: BRANCH  13  15
DOCKED: ATOM     15  C   UNL     1      33.427 -23.052  -7.495 -0.06 -0.00    +0.000 C 
DOCKED: ATOM     16  C   UNL     1      33.200 -22.551  -8.921 -0.08 -0.00    +0.000 C 
DOCKED: ENDBRANCH  13  15
DOCKED: BRANCH  13  17
DOCKED: ATOM     17  C   UNL     1      31.613 -24.175  -6.210 -0.17 -0.00    +0.000 C 
DOCKED: ATOM     18  C   UNL     1      30.605 -24.033  -5.061 -0.24 -0.00    +0.000 C 
DOCKED: ENDBRANCH  13  17
DOCKED: ENDBRANCH  12  13
DOCKED: ENDBRANCH   7  12
DOCKED: ENDBRANCH   1   2
DOCKED: BRANCH   1  19
DOCKED: ATOM     19  O   UNL     1      29.517 -16.436  -0.791 -0.24 -0.00    +0.000 OA
DOCKED: BRANCH  19  21
DOCKED: ATOM     20  O   UNL     1      27.519 -15.370  -1.232 -0.26 -0.00    +0.000 OA
DOCKED: ATOM     21  C   UNL     1      28.122 -16.412  -0.856 -0.34 -0.00    +0.000 C 
DOCKED: ATOM     22  N   UNL     1      27.386 -17.575  -0.449 -0.47 -0.00    +0.000 N 
DOCKED: ATOM     23  H   UNL     1      27.884 -18.304  -0.014 -0.48 -0.00    +0.000 HD
DOCKED: BRANCH  22  24
DOCKED: ATOM     24  C   UNL     1      25.971 -17.745  -0.634 -0.57 -0.00    +0.000 A 
DOCKED: ATOM     25  C   UNL     1      25.195 -18.248   0.418 -0.36 -0.00    +0.000 A 
DOCKED: ATOM     26  C   UNL     1      23.821 -18.445   0.258 -0.38 -0.00    +0.000 A 
DOCKED: ATOM     27  C   UNL     1      23.193 -18.147  -0.964 -0.72 -0.00    +0.000 A 
DOCKED: ATOM     28  C   UNL     1      23.980 -17.675  -2.032 -0.23 -0.00    +0.000 A 
DOCKED: ATOM     29  C   UNL     1      25.355 -17.479  -1.869 -0.48 -0.00    +0.000 A 
DOCKED: BRANCH  27  30
DOCKED: ATOM     30  C   UNL     1      21.734 -18.363  -1.122 -0.68 -0.00    +0.000 C 
DOCKED: ATOM     31  N   UNL     1      21.218 -19.543  -1.751 -0.62 -0.00    +0.000 N 
DOCKED: ATOM     32  O   UNL     1      20.928 -17.487  -0.707 -2.08 -0.00    +0.000 OA
DOCKED: ATOM     33  H   UNL     1      21.836 -20.193  -2.155 -0.54 -0.00    +0.000 HD
DOCKED: BRANCH  31  34
DOCKED: ATOM     34  O   UNL     1      19.883 -19.765  -1.792 -1.86 -0.00    +0.000 OA
DOCKED: ATOM     35  H   UNL     1      19.412 -18.969  -1.496 -0.33 -0.00    +0.000 HD
DOCKED: ENDBRANCH  31  34
DOCKED: ENDBRANCH  27  30
DOCKED: ENDBRANCH  22  24
DOCKED: ENDBRANCH  19  21
DOCKED: ENDBRANCH   1  19
DOCKED: TORSDOF 10
DOCKED: TER
DOCKED: ENDMDL
________________________________________________________________________________


	BEGINNING GENETIC ALGORITHM DOCKING 47 of 100
Run: 47 Seed: 1280812277 1301432262 [ Run 47 of 100 GA/GALS ]
Beginning LAMARCKIAN GENETIC ALGORITHM (LGA), with a maximum of 2500000 energy evaluations.

Final-Value: -16.995


	FINAL GENETIC ALGORITHM DOCKED STATE
	_______________________________________________


Detailed state:  trans 27.028 -14.156 -1.565 quatxyzw 0.036090 -0.707318 0.406987 0.576854 center 1.857 0.216 -0.019 ntor 10 -58.3722 27.5438 9.8137 -29.5651 109.2290 147.7150 73.7491 -178.5009 -158.0193 85.0774
State:	 27.028 -14.156  -1.565   0.044 -0.866  0.498 109.541    -58.37   27.54    9.81  -29.57  109.23  147.71   73.75 -178.50 -158.02   85.08

DOCKED: MODEL       47
DOCKED: USER    Run = 47
DOCKED: USER    DPF = ligand_dock.biased.dpf
DOCKED: USER  
DOCKED: USER    Estimated Free Energy of Binding    =  -11.83 kcal/mol  [=(1)+(2)+(3)-(4)]
DOCKED: USER    Estimated Inhibition Constant, Ki   =    2.13 nM (nanomolar)  [Temperature = 298.15 K]
DOCKED: USER    
DOCKED: USER    (1) Final Intermolecular Energy     =  -14.81 kcal/mol
DOCKED: USER        vdW + Hbond + desolv Energy     =  -14.81 kcal/mol
DOCKED: USER        Electrostatic Energy            =   +0.00 kcal/mol
DOCKED: USER    (2) Final Total Internal Energy     =   -2.18 kcal/mol
DOCKED: USER    (3) Torsional Free Energy           =   +2.98 kcal/mol
DOCKED: USER    (4) Unbound System's Energy  [=(2)] =   -2.18 kcal/mol
DOCKED: USER    
DOCKED: USER    
DOCKED: USER    NEWDPF move ligand.pdbqt
DOCKED: USER    NEWDPF about 1.857000 0.216000 -0.019000
DOCKED: USER    NEWDPF tran0 27.028302 -14.156125 -1.564902
DOCKED: USER    NEWDPF quaternion0 0.036090 -0.707318 0.406987 0.576854
DOCKED: USER    NEWDPF axisangle0 0.044182 -0.865912 0.498242 109.540843
DOCKED: USER    NEWDPF quat0 0.044182 -0.865912 0.498242 109.540843
DOCKED: USER    NEWDPF dihe0 -58.37 27.54 9.81 -29.57 109.23 147.71 73.75 -178.50 -158.02 85.08 
DOCKED: USER  keepresnum = 1 
DOCKED: USER  
DOCKED: REMARK  Name = 
DOCKED: REMARK  12 active torsions:
DOCKED: REMARK  status: ('A' for Active; 'I' for Inactive)
DOCKED: REMARK    1  A    between atoms: C_2  and  O_3
DOCKED: REMARK    2  A    between atoms: O_3  and  C_4
DOCKED: REMARK    3  A    between atoms: C_4  and  C_5
DOCKED: REMARK    4  A    between atoms: C_10  and  C_11
DOCKED: REMARK    5  A    between atoms: C_11  and  N_12
DOCKED: REMARK    6  A    between atoms: N_12  and  C_13
DOCKED: REMARK    7  A    between atoms: N_12  and  C_15
DOCKED: REMARK    8  A    between atoms: C_13  and  C_14
DOCKED: REMARK    9  A    between atoms: C_15  and  C_16
DOCKED: REMARK   10  A    between atoms: N_21  and  C_22
DOCKED: REMARK   11  A    between atoms: C_25  and  C_26
DOCKED: REMARK   12  A    between atoms: N_27  and  O_28
DOCKED: REMARK                            x       y       z     vdW  Elec       q    Type
DOCKED: REMARK                         _______ _______ _______ _____ _____    ______ ____
DOCKED: USER                              x       y       z     vdW  Elec       q    Type
DOCKED: USER                           _______ _______ _______ _____ _____    ______ ____
DOCKED: ROOT
DOCKED: ATOM      1  C   UNL     1      28.082 -15.314  -1.042 -0.24 -0.00    +0.000 C 
DOCKED: ENDROOT
DOCKED: BRANCH   1   2
DOCKED: ATOM      2  C   UNL     1      28.059 -14.377   0.130 -0.20 -0.00    +0.000 A 
DOCKED: ATOM      3  C   UNL     1      28.410 -13.028  -0.037 -0.10 -0.00    +0.000 A 
DOCKED: ATOM      4  C   UNL     1      28.428 -12.161   1.059 -0.10 -0.00    +0.000 A 
DOCKED: ATOM      5  C   UNL     1      28.108 -12.633   2.339 -0.20 -0.00    +0.000 A 
DOCKED: ATOM      6  C   UNL     1      28.123 -11.769   3.445 -0.22 +0.00    +0.000 A 
DOCKED: ATOM      7  C   UNL     1      27.807 -12.250   4.726 -0.33 +0.00    +0.000 A 
DOCKED: ATOM      8  C   UNL     1      27.471 -13.602   4.894 -0.45 -0.00    +0.000 A 
DOCKED: ATOM      9  C   UNL     1      27.454 -14.470   3.800 -0.37 -0.00    +0.000 A 
DOCKED: ATOM     10  C   UNL     1      27.769 -13.996   2.518 -0.31 -0.00    +0.000 A 
DOCKED: ATOM     11  C   UNL     1      27.753 -14.859   1.413 -0.18 -0.00    +0.000 A 
DOCKED: BRANCH   7  12
DOCKED: ATOM     12  C   UNL     1      27.803 -11.323   5.913 -0.30 +0.00    +0.000 C 
DOCKED: BRANCH  12  13
DOCKED: ATOM     13  N   UNL     1      29.050 -11.487   6.691 -0.30 +0.00    +0.000 N 
DOCKED: ATOM     14  H   UNL     1      29.659 -12.127   6.180 +0.00 -0.00    +0.000 HD
DOCKED: BRANCH  13  15
DOCKED: ATOM     15  C   UNL     1      28.791 -12.140   7.996 -0.40 -0.00    +0.000 C 
DOCKED: ATOM     16  C   UNL     1      29.309 -13.577   8.028 -0.39 -0.00    +0.000 C 
DOCKED: ENDBRANCH  13  15
DOCKED: BRANCH  13  17
DOCKED: ATOM     17  C   UNL     1      29.820 -10.222   6.785 -0.20 +0.00    +0.000 C 
DOCKED: ATOM     18  C   UNL     1      29.535  -9.403   8.052 -0.25 +0.00    +0.000 C 
DOCKED: ENDBRANCH  13  17
DOCKED: ENDBRANCH  12  13
DOCKED: ENDBRANCH   7  12
DOCKED: ENDBRANCH   1   2
DOCKED: BRANCH   1  19
DOCKED: ATOM     19  O   UNL     1      27.055 -14.944  -1.958 -0.28 -0.00    +0.000 OA
DOCKED: BRANCH  19  21
DOCKED: ATOM     20  O   UNL     1      24.915 -15.177  -2.786 -0.56 -0.00    +0.000 OA
DOCKED: ATOM     21  C   UNL     1      25.788 -15.532  -1.948 -0.48 -0.00    +0.000 C 
DOCKED: ATOM     22  N   UNL     1      25.484 -16.513  -0.946 -0.50 -0.00    +0.000 N 
DOCKED: ATOM     23  H   UNL     1      26.134 -16.643  -0.219 -0.02 -0.00    +0.000 HD
DOCKED: BRANCH  22  24
DOCKED: ATOM     24  C   UNL     1      24.293 -17.318  -0.935 -0.63 -0.00    +0.000 A 
DOCKED: ATOM     25  C   UNL     1      23.071 -16.732  -0.580 -0.32 -0.00    +0.000 A 
DOCKED: ATOM     26  C   UNL     1      21.901 -17.496  -0.539 -0.62 -0.00    +0.000 A 
DOCKED: ATOM     27  C   UNL     1      21.931 -18.867  -0.846 -0.75 -0.00    +0.000 A 
DOCKED: ATOM     28  C   UNL     1      23.166 -19.462  -1.168 -0.53 -0.00    +0.000 A 
DOCKED: ATOM     29  C   UNL     1      24.334 -18.695  -1.209 -0.51 -0.00    +0.000 A 
DOCKED: BRANCH  27  30
DOCKED: ATOM     30  C   UNL     1      20.683 -19.667  -0.796 -0.86 -0.00    +0.000 C 
DOCKED: ATOM     31  N   UNL     1      20.304 -20.386   0.385 -0.69 -0.00    +0.000 N 
DOCKED: ATOM     32  O   UNL     1      19.943 -19.729  -1.815 -1.87 -0.00    +0.000 OA
DOCKED: ATOM     33  H   UNL     1      20.914 -20.416   1.157 -0.54 -0.00    +0.000 HD
DOCKED: BRANCH  31  34
DOCKED: ATOM     34  O   UNL     1      19.112 -21.025   0.441 -0.76 -0.00    +0.000 OA
DOCKED: ATOM     35  H   UNL     1      18.705 -21.030  -0.440 -0.32 -0.00    +0.000 HD
DOCKED: ENDBRANCH  31  34
DOCKED: ENDBRANCH  27  30
DOCKED: ENDBRANCH  22  24
DOCKED: ENDBRANCH  19  21
DOCKED: ENDBRANCH   1  19
DOCKED: TORSDOF 10
DOCKED: TER
DOCKED: ENDMDL
________________________________________________________________________________


	BEGINNING GENETIC ALGORITHM DOCKING 48 of 100
Run: 48 Seed: 1926593807 1091651281 [ Run 48 of 100 GA/GALS ]
Beginning LAMARCKIAN GENETIC ALGORITHM (LGA), with a maximum of 2500000 energy evaluations.

Final-Value: -17.008


	FINAL GENETIC ALGORITHM DOCKED STATE
	_______________________________________________


Detailed state:  trans 27.339 -16.158 -1.231 quatxyzw -0.694990 0.427832 -0.561017 0.138594 center 1.857 0.216 -0.019 ntor 10 7.6626 -94.7323 17.1351 -4.8016 -72.3981 64.8510 108.7858 78.6995 -76.4564 -83.1232
State:	 27.339 -16.158  -1.231  -0.702  0.432 -0.566 164.067      7.66  -94.73   17.14   -4.80  -72.40   64.85  108.79   78.70  -76.46  -83.12

DOCKED: MODEL       48
DOCKED: USER    Run = 48
DOCKED: USER    DPF = ligand_dock.biased.dpf
DOCKED: USER  
DOCKED: USER    Estimated Free Energy of Binding    =  -12.05 kcal/mol  [=(1)+(2)+(3)-(4)]
DOCKED: USER    Estimated Inhibition Constant, Ki   =    1.47 nM (nanomolar)  [Temperature = 298.15 K]
DOCKED: USER    
DOCKED: USER    (1) Final Intermolecular Energy     =  -15.03 kcal/mol
DOCKED: USER        vdW + Hbond + desolv Energy     =  -15.03 kcal/mol
DOCKED: USER        Electrostatic Energy            =   +0.00 kcal/mol
DOCKED: USER    (2) Final Total Internal Energy     =   -1.98 kcal/mol
DOCKED: USER    (3) Torsional Free Energy           =   +2.98 kcal/mol
DOCKED: USER    (4) Unbound System's Energy  [=(2)] =   -1.98 kcal/mol
DOCKED: USER    
DOCKED: USER    
DOCKED: USER    NEWDPF move ligand.pdbqt
DOCKED: USER    NEWDPF about 1.857000 0.216000 -0.019000
DOCKED: USER    NEWDPF tran0 27.338890 -16.157515 -1.231212
DOCKED: USER    NEWDPF quaternion0 -0.694990 0.427832 -0.561017 0.138594
DOCKED: USER    NEWDPF axisangle0 -0.701763 0.432001 -0.566484 164.067012
DOCKED: USER    NEWDPF quat0 -0.701763 0.432001 -0.566484 164.067012
DOCKED: USER    NEWDPF dihe0 7.66 -94.73 17.14 -4.80 -72.40 64.85 108.79 78.70 -76.46 -83.12 
DOCKED: USER  keepresnum = 1 
DOCKED: USER  
DOCKED: REMARK  Name = 
DOCKED: REMARK  12 active torsions:
DOCKED: REMARK  status: ('A' for Active; 'I' for Inactive)
DOCKED: REMARK    1  A    between atoms: C_2  and  O_3
DOCKED: REMARK    2  A    between atoms: O_3  and  C_4
DOCKED: REMARK    3  A    between atoms: C_4  and  C_5
DOCKED: REMARK    4  A    between atoms: C_10  and  C_11
DOCKED: REMARK    5  A    between atoms: C_11  and  N_12
DOCKED: REMARK    6  A    between atoms: N_12  and  C_13
DOCKED: REMARK    7  A    between atoms: N_12  and  C_15
DOCKED: REMARK    8  A    between atoms: C_13  and  C_14
DOCKED: REMARK    9  A    between atoms: C_15  and  C_16
DOCKED: REMARK   10  A    between atoms: N_21  and  C_22
DOCKED: REMARK   11  A    between atoms: C_25  and  C_26
DOCKED: REMARK   12  A    between atoms: N_27  and  O_28
DOCKED: REMARK                            x       y       z     vdW  Elec       q    Type
DOCKED: REMARK                         _______ _______ _______ _____ _____    ______ ____
DOCKED: USER                              x       y       z     vdW  Elec       q    Type
DOCKED: USER                           _______ _______ _______ _____ _____    ______ ____
DOCKED: ROOT
DOCKED: ATOM      1  C   UNL     1      28.825 -16.713  -1.686 -0.30 -0.00    +0.000 C 
DOCKED: ENDROOT
DOCKED: BRANCH   1   2
DOCKED: ATOM      2  C   UNL     1      28.554 -15.680  -2.741 -0.21 -0.00    +0.000 A 
DOCKED: ATOM      3  C   UNL     1      27.661 -14.628  -2.487 -0.20 -0.00    +0.000 A 
DOCKED: ATOM      4  C   UNL     1      27.377 -13.685  -3.480 -0.21 -0.00    +0.000 A 
DOCKED: ATOM      5  C   UNL     1      27.973 -13.790  -4.744 -0.23 -0.00    +0.000 A 
DOCKED: ATOM      6  C   UNL     1      27.693 -12.849  -5.747 -0.20 -0.00    +0.000 A 
DOCKED: ATOM      7  C   UNL     1      28.289 -12.962  -7.013 -0.19 -0.00    +0.000 A 
DOCKED: ATOM      8  C   UNL     1      29.169 -14.023  -7.271 -0.28 -0.00    +0.000 A 
DOCKED: ATOM      9  C   UNL     1      29.453 -14.966  -6.280 -0.31 -0.00    +0.000 A 
DOCKED: ATOM     10  C   UNL     1      28.861 -14.859  -5.013 -0.26 -0.00    +0.000 A 
DOCKED: ATOM     11  C   UNL     1      29.141 -15.799  -4.011 -0.23 -0.00    +0.000 A 
DOCKED: BRANCH   7  12
DOCKED: ATOM     12  C   UNL     1      28.007 -11.943  -8.087 -0.23 -0.00    +0.000 C 
DOCKED: BRANCH  12  13
DOCKED: ATOM     13  N   UNL     1      28.819 -12.235  -9.288 -0.25 -0.00    +0.000 N 
DOCKED: ATOM     14  H   UNL     1      28.967 -13.243  -9.334 -0.59 -0.00    +0.000 HD
DOCKED: BRANCH  13  15
DOCKED: ATOM     15  C   UNL     1      30.171 -11.637  -9.185 -0.14 -0.00    +0.000 C 
DOCKED: ATOM     16  C   UNL     1      31.069 -12.054 -10.350 -0.15 -0.00    +0.000 C 
DOCKED: ENDBRANCH  13  15
DOCKED: BRANCH  13  17
DOCKED: ATOM     17  C   UNL     1      28.100 -11.898 -10.542 -0.35 -0.00    +0.000 C 
DOCKED: ATOM     18  C   UNL     1      26.571 -11.986 -10.437 -0.46 -0.00    +0.000 C 
DOCKED: ENDBRANCH  13  17
DOCKED: ENDBRANCH  12  13
DOCKED: ENDBRANCH   7  12
DOCKED: ENDBRANCH   1   2
DOCKED: BRANCH   1  19
DOCKED: ATOM     19  O   UNL     1      27.840 -16.607  -0.663 -0.39 -0.00    +0.000 OA
DOCKED: BRANCH  19  21
DOCKED: ATOM     20  O   UNL     1      26.789 -18.611  -0.212 -0.66 -0.00    +0.000 OA
DOCKED: ATOM     21  C   UNL     1      26.705 -17.421  -0.623 -0.56 -0.00    +0.000 C 
DOCKED: ATOM     22  N   UNL     1      25.455 -16.896  -1.093 -0.54 -0.00    +0.000 N 
DOCKED: ATOM     23  H   UNL     1      25.466 -16.025  -1.551 -0.01 -0.00    +0.000 HD
DOCKED: BRANCH  22  24
DOCKED: ATOM     24  C   UNL     1      24.189 -17.560  -0.941 -0.66 -0.00    +0.000 A 
DOCKED: ATOM     25  C   UNL     1      24.118 -18.951  -1.091 -0.56 -0.00    +0.000 A 
DOCKED: ATOM     26  C   UNL     1      22.896 -19.618  -0.970 -0.36 -0.00    +0.000 A 
DOCKED: ATOM     27  C   UNL     1      21.715 -18.905  -0.703 -0.77 -0.00    +0.000 A 
DOCKED: ATOM     28  C   UNL     1      21.781 -17.504  -0.588 -0.61 -0.00    +0.000 A 
DOCKED: ATOM     29  C   UNL     1      23.005 -16.838  -0.709 -0.45 -0.00    +0.000 A 
DOCKED: BRANCH  27  30
DOCKED: ATOM     30  C   UNL     1      20.425 -19.625  -0.580 -0.88 -0.00    +0.000 C 
DOCKED: ATOM     31  N   UNL     1      20.013 -20.216   0.659 -0.70 -0.00    +0.000 N 
DOCKED: ATOM     32  O   UNL     1      19.677 -19.736  -1.590 -1.68 -0.00    +0.000 OA
DOCKED: ATOM     33  H   UNL     1      20.625 -20.212   1.430 -0.46 -0.00    +0.000 HD
DOCKED: BRANCH  31  34
DOCKED: ATOM     34  O   UNL     1      18.787 -20.779   0.772 -0.79 -0.00    +0.000 OA
DOCKED: ATOM     35  H   UNL     1      18.424 -20.946  -0.112 -0.17 -0.00    +0.000 HD
DOCKED: ENDBRANCH  31  34
DOCKED: ENDBRANCH  27  30
DOCKED: ENDBRANCH  22  24
DOCKED: ENDBRANCH  19  21
DOCKED: ENDBRANCH   1  19
DOCKED: TORSDOF 10
DOCKED: TER
DOCKED: ENDMDL
________________________________________________________________________________


	BEGINNING GENETIC ALGORITHM DOCKING 49 of 100
Run: 49 Seed: 1095198015 59609791 [ Run 49 of 100 GA/GALS ]
Beginning LAMARCKIAN GENETIC ALGORITHM (LGA), with a maximum of 2500000 energy evaluations.

Final-Value: -16.833


	FINAL GENETIC ALGORITHM DOCKED STATE
	_______________________________________________


Detailed state:  trans 27.438 -15.769 0.103 quatxyzw -0.743517 0.525830 0.373977 -0.175576 center 1.857 0.216 -0.019 ntor 10 -166.9064 -152.7598 6.2979 -32.8788 140.4167 -180.0000 -137.4744 -127.6539 88.1638 -90.1935
State:	 27.438 -15.769   0.103  -0.755  0.534  0.380 -159.776   -166.91 -152.76    6.30  -32.88  140.42 -180.00 -137.47 -127.65   88.16  -90.19

DOCKED: MODEL       49
DOCKED: USER    Run = 49
DOCKED: USER    DPF = ligand_dock.biased.dpf
DOCKED: USER  
DOCKED: USER    Estimated Free Energy of Binding    =  -11.61 kcal/mol  [=(1)+(2)+(3)-(4)]
DOCKED: USER    Estimated Inhibition Constant, Ki   =    3.11 nM (nanomolar)  [Temperature = 298.15 K]
DOCKED: USER    
DOCKED: USER    (1) Final Intermolecular Energy     =  -14.59 kcal/mol
DOCKED: USER        vdW + Hbond + desolv Energy     =  -14.59 kcal/mol
DOCKED: USER        Electrostatic Energy            =   +0.00 kcal/mol
DOCKED: USER    (2) Final Total Internal Energy     =   -2.24 kcal/mol
DOCKED: USER    (3) Torsional Free Energy           =   +2.98 kcal/mol
DOCKED: USER    (4) Unbound System's Energy  [=(2)] =   -2.24 kcal/mol
DOCKED: USER    
DOCKED: USER    
DOCKED: USER    NEWDPF move ligand.pdbqt
DOCKED: USER    NEWDPF about 1.857000 0.216000 -0.019000
DOCKED: USER    NEWDPF tran0 27.438416 -15.768854 0.103266
DOCKED: USER    NEWDPF quaternion0 -0.743517 0.525830 0.373977 -0.175576
DOCKED: USER    NEWDPF axisangle0 -0.755249 0.534127 0.379878 -159.775640
DOCKED: USER    NEWDPF quat0 -0.755249 0.534127 0.379878 -159.775640
DOCKED: USER    NEWDPF dihe0 -166.91 -152.76 6.30 -32.88 140.42 -180.00 -137.47 -127.65 88.16 -90.19 
DOCKED: USER  keepresnum = 1 
DOCKED: USER  
DOCKED: REMARK  Name = 
DOCKED: REMARK  12 active torsions:
DOCKED: REMARK  status: ('A' for Active; 'I' for Inactive)
DOCKED: REMARK    1  A    between atoms: C_2  and  O_3
DOCKED: REMARK    2  A    between atoms: O_3  and  C_4
DOCKED: REMARK    3  A    between atoms: C_4  and  C_5
DOCKED: REMARK    4  A    between atoms: C_10  and  C_11
DOCKED: REMARK    5  A    between atoms: C_11  and  N_12
DOCKED: REMARK    6  A    between atoms: N_12  and  C_13
DOCKED: REMARK    7  A    between atoms: N_12  and  C_15
DOCKED: REMARK    8  A    between atoms: C_13  and  C_14
DOCKED: REMARK    9  A    between atoms: C_15  and  C_16
DOCKED: REMARK   10  A    between atoms: N_21  and  C_22
DOCKED: REMARK   11  A    between atoms: C_25  and  C_26
DOCKED: REMARK   12  A    between atoms: N_27  and  O_28
DOCKED: REMARK                            x       y       z     vdW  Elec       q    Type
DOCKED: REMARK                         _______ _______ _______ _____ _____    ______ ____
DOCKED: USER                              x       y       z     vdW  Elec       q    Type
DOCKED: USER                           _______ _______ _______ _____ _____    ______ ____
DOCKED: ROOT
DOCKED: ATOM      1  C   UNL     1      27.449 -14.428  -0.859 -0.24 -0.00    +0.000 C 
DOCKED: ENDROOT
DOCKED: BRANCH   1   2
DOCKED: ATOM      2  C   UNL     1      27.508 -13.816   0.511 -0.22 -0.00    +0.000 A 
DOCKED: ATOM      3  C   UNL     1      27.375 -12.428   0.669 -0.19 -0.00    +0.000 A 
DOCKED: ATOM      4  C   UNL     1      27.467 -11.849   1.938 -0.22 +0.00    +0.000 A 
DOCKED: ATOM      5  C   UNL     1      27.707 -12.649   3.064 -0.28 -0.00    +0.000 A 
DOCKED: ATOM      6  C   UNL     1      27.802 -12.076   4.342 -0.31 +0.00    +0.000 A 
DOCKED: ATOM      7  C   UNL     1      28.047 -12.882   5.465 -0.42 -0.00    +0.000 A 
DOCKED: ATOM      8  C   UNL     1      28.194 -14.268   5.303 -0.42 -0.00    +0.000 A 
DOCKED: ATOM      9  C   UNL     1      28.103 -14.847   4.035 -0.44 -0.00    +0.000 A 
DOCKED: ATOM     10  C   UNL     1      27.859 -14.048   2.909 -0.34 -0.00    +0.000 A 
DOCKED: ATOM     11  C   UNL     1      27.763 -14.620   1.632 -0.21 -0.00    +0.000 A 
DOCKED: BRANCH   7  12
DOCKED: ATOM     12  C   UNL     1      28.130 -12.275   6.841 -0.26 +0.00    +0.000 C 
DOCKED: BRANCH  12  13
DOCKED: ATOM     13  N   UNL     1      29.344 -11.438   6.955 -0.27 -0.00    +0.000 N 
DOCKED: ATOM     14  H   UNL     1      29.818 -11.443   6.052 +0.01 -0.00    +0.000 HD
DOCKED: BRANCH  13  15
DOCKED: ATOM     15  C   UNL     1      30.312 -12.018   7.916 -0.24 -0.00    +0.000 C 
DOCKED: ATOM     16  C   UNL     1      29.789 -13.312   8.540 -0.39 -0.00    +0.000 C 
DOCKED: ENDBRANCH  13  15
DOCKED: BRANCH  13  17
DOCKED: ATOM     17  C   UNL     1      29.017 -10.012   7.206 -0.28 +0.00    +0.000 C 
DOCKED: ATOM     18  C   UNL     1      28.750  -9.192   5.937 -0.25 +0.00    +0.000 C 
DOCKED: ENDBRANCH  13  17
DOCKED: ENDBRANCH  12  13
DOCKED: ENDBRANCH   7  12
DOCKED: ENDBRANCH   1   2
DOCKED: BRANCH   1  19
DOCKED: ATOM     19  O   UNL     1      27.639 -15.835  -0.752 -0.32 -0.00    +0.000 OA
DOCKED: BRANCH  19  21
DOCKED: ATOM     20  O   UNL     1      26.612 -17.581   0.353 -0.59 -0.00    +0.000 OA
DOCKED: ATOM     21  C   UNL     1      26.580 -16.729  -0.577 -0.51 -0.00    +0.000 C 
DOCKED: ATOM     22  N   UNL     1      25.478 -16.690  -1.495 -0.53 -0.00    +0.000 N 
DOCKED: ATOM     23  H   UNL     1      25.566 -16.122  -2.294 -0.02 -0.00    +0.000 HD
DOCKED: BRANCH  22  24
DOCKED: ATOM     24  C   UNL     1      24.254 -17.424  -1.323 -0.64 -0.00    +0.000 A 
DOCKED: ATOM     25  C   UNL     1      23.317 -16.988  -0.377 -0.40 -0.00    +0.000 A 
DOCKED: ATOM     26  C   UNL     1      22.129 -17.695  -0.174 -0.65 -0.00    +0.000 A 
DOCKED: ATOM     27  C   UNL     1      21.856 -18.861  -0.911 -0.75 -0.00    +0.000 A 
DOCKED: ATOM     28  C   UNL     1      22.814 -19.318  -1.835 -0.34 -0.00    +0.000 A 
DOCKED: ATOM     29  C   UNL     1      24.001 -18.608  -2.037 -0.13 -0.00    +0.000 A 
DOCKED: BRANCH  27  30
DOCKED: ATOM     30  C   UNL     1      20.593 -19.604  -0.683 -0.88 -0.00    +0.000 C 
DOCKED: ATOM     31  N   UNL     1      20.290 -20.190   0.589 -0.69 -0.00    +0.000 N 
DOCKED: ATOM     32  O   UNL     1      19.770 -19.736  -1.630 -1.73 -0.00    +0.000 OA
DOCKED: ATOM     33  H   UNL     1      20.960 -20.169   1.310 -0.53 -0.00    +0.000 HD
DOCKED: BRANCH  31  34
DOCKED: ATOM     34  O   UNL     1      19.088 -20.775   0.802 -0.78 -0.00    +0.000 OA
DOCKED: ATOM     35  H   UNL     1      18.587 -20.800  -0.029 -0.14 -0.00    +0.000 HD
DOCKED: ENDBRANCH  31  34
DOCKED: ENDBRANCH  27  30
DOCKED: ENDBRANCH  22  24
DOCKED: ENDBRANCH  19  21
DOCKED: ENDBRANCH   1  19
DOCKED: TORSDOF 10
DOCKED: TER
DOCKED: ENDMDL
________________________________________________________________________________


	BEGINNING GENETIC ALGORITHM DOCKING 50 of 100
Run: 50 Seed: 1697524769 387862177 [ Run 50 of 100 GA/GALS ]
Beginning LAMARCKIAN GENETIC ALGORITHM (LGA), with a maximum of 2500000 energy evaluations.

Final-Value: -17.035


	FINAL GENETIC ALGORITHM DOCKED STATE
	_______________________________________________


Detailed state:  trans 28.223 -15.566 -0.688 quatxyzw -0.863874 0.241737 -0.439254 0.048384 center 1.857 0.216 -0.019 ntor 10 179.7290 -180.0000 21.2026 -78.4183 169.2901 160.5317 18.8987 -124.8196 166.2694 -145.1424
State:	 28.223 -15.566  -0.688  -0.865  0.242 -0.440 174.453    179.73 -180.00   21.20  -78.42  169.29  160.53   18.90 -124.82  166.27 -145.14

DOCKED: MODEL       50
DOCKED: USER    Run = 50
DOCKED: USER    DPF = ligand_dock.biased.dpf
DOCKED: USER  
DOCKED: USER    Estimated Free Energy of Binding    =  -11.37 kcal/mol  [=(1)+(2)+(3)-(4)]
DOCKED: USER    Estimated Inhibition Constant, Ki   =    4.59 nM (nanomolar)  [Temperature = 298.15 K]
DOCKED: USER    
DOCKED: USER    (1) Final Intermolecular Energy     =  -14.36 kcal/mol
DOCKED: USER        vdW + Hbond + desolv Energy     =  -14.36 kcal/mol
DOCKED: USER        Electrostatic Energy            =   +0.00 kcal/mol
DOCKED: USER    (2) Final Total Internal Energy     =   -2.68 kcal/mol
DOCKED: USER    (3) Torsional Free Energy           =   +2.98 kcal/mol
DOCKED: USER    (4) Unbound System's Energy  [=(2)] =   -2.68 kcal/mol
DOCKED: USER    
DOCKED: USER    
DOCKED: USER    NEWDPF move ligand.pdbqt
DOCKED: USER    NEWDPF about 1.857000 0.216000 -0.019000
DOCKED: USER    NEWDPF tran0 28.223294 -15.566382 -0.687859
DOCKED: USER    NEWDPF quaternion0 -0.863874 0.241737 -0.439254 0.048384
DOCKED: USER    NEWDPF axisangle0 -0.864887 0.242021 -0.439769 174.453452
DOCKED: USER    NEWDPF quat0 -0.864887 0.242021 -0.439769 174.453452
DOCKED: USER    NEWDPF dihe0 179.73 -180.00 21.20 -78.42 169.29 160.53 18.90 -124.82 166.27 -145.14 
DOCKED: USER  keepresnum = 1 
DOCKED: USER  
DOCKED: REMARK  Name = 
DOCKED: REMARK  12 active torsions:
DOCKED: REMARK  status: ('A' for Active; 'I' for Inactive)
DOCKED: REMARK    1  A    between atoms: C_2  and  O_3
DOCKED: REMARK    2  A    between atoms: O_3  and  C_4
DOCKED: REMARK    3  A    between atoms: C_4  and  C_5
DOCKED: REMARK    4  A    between atoms: C_10  and  C_11
DOCKED: REMARK    5  A    between atoms: C_11  and  N_12
DOCKED: REMARK    6  A    between atoms: N_12  and  C_13
DOCKED: REMARK    7  A    between atoms: N_12  and  C_15
DOCKED: REMARK    8  A    between atoms: C_13  and  C_14
DOCKED: REMARK    9  A    between atoms: C_15  and  C_16
DOCKED: REMARK   10  A    between atoms: N_21  and  C_22
DOCKED: REMARK   11  A    between atoms: C_25  and  C_26
DOCKED: REMARK   12  A    between atoms: N_27  and  O_28
DOCKED: REMARK                            x       y       z     vdW  Elec       q    Type
DOCKED: REMARK                         _______ _______ _______ _____ _____    ______ ____
DOCKED: USER                              x       y       z     vdW  Elec       q    Type
DOCKED: USER                           _______ _______ _______ _____ _____    ______ ____
DOCKED: ROOT
DOCKED: ATOM      1  C   UNL     1      29.554 -15.379  -1.646 -0.13 -0.00    +0.000 C 
DOCKED: ENDROOT
DOCKED: BRANCH   1   2
DOCKED: ATOM      2  C   UNL     1      28.522 -14.603  -2.411 -0.13 -0.00    +0.000 A 
DOCKED: ATOM      3  C   UNL     1      27.787 -15.222  -3.433 -0.27 -0.00    +0.000 A 
DOCKED: ATOM      4  C   UNL     1      26.851 -14.493  -4.173 -0.38 -0.00    +0.000 A 
DOCKED: ATOM      5  C   UNL     1      26.648 -13.131  -3.910 -0.28 -0.00    +0.000 A 
DOCKED: ATOM      6  C   UNL     1      25.712 -12.391  -4.649 -0.27 -0.00    +0.000 A 
DOCKED: ATOM      7  C   UNL     1      25.517 -11.026  -4.383 -0.25 -0.00    +0.000 A 
DOCKED: ATOM      8  C   UNL     1      26.264 -10.405  -3.371 -0.11 -0.00    +0.000 A 
DOCKED: ATOM      9  C   UNL     1      27.199 -11.132  -2.631 -0.10 -0.00    +0.000 A 
DOCKED: ATOM     10  C   UNL     1      27.399 -12.496  -2.891 -0.14 -0.00    +0.000 A 
DOCKED: ATOM     11  C   UNL     1      28.334 -13.236  -2.153 -0.09 -0.00    +0.000 A 
DOCKED: BRANCH   7  12
DOCKED: ATOM     12  C   UNL     1      24.500 -10.232  -5.159 -0.41 -0.00    +0.000 C 
DOCKED: BRANCH  12  13
DOCKED: ATOM     13  N   UNL     1      25.114  -9.681  -6.387 -0.24 -0.00    +0.000 N 
DOCKED: ATOM     14  H   UNL     1      26.035  -9.315  -6.144 +0.00 -0.00    +0.000 HD
DOCKED: BRANCH  13  15
DOCKED: ATOM     15  C   UNL     1      24.347  -8.521  -6.901 -0.27 -0.00    +0.000 C 
DOCKED: ATOM     16  C   UNL     1      22.969  -8.415  -6.249 -0.44 -0.00    +0.000 C 
DOCKED: ENDBRANCH  13  15
DOCKED: BRANCH  13  17
DOCKED: ATOM     17  C   UNL     1      25.377 -10.733  -7.400 -0.26 -0.00    +0.000 C 
DOCKED: ATOM     18  C   UNL     1      26.865 -10.989  -7.673 -0.20 -0.00    +0.000 C 
DOCKED: ENDBRANCH  13  17
DOCKED: ENDBRANCH  12  13
DOCKED: ENDBRANCH   7  12
DOCKED: ENDBRANCH   1   2
DOCKED: BRANCH   1  19
DOCKED: ATOM     19  O   UNL     1      29.028 -15.726  -0.369 -0.23 -0.00    +0.000 OA
DOCKED: BRANCH  19  21
DOCKED: ATOM     20  O   UNL     1      27.009 -15.423   0.705 -0.33 -0.00    +0.000 OA
DOCKED: ATOM     21  C   UNL     1      27.682 -16.039  -0.167 -0.34 -0.00    +0.000 C 
DOCKED: ATOM     22  N   UNL     1      27.089 -17.096  -0.935 -0.45 -0.00    +0.000 N 
DOCKED: ATOM     23  H   UNL     1      27.686 -17.653  -1.485 -0.04 -0.00    +0.000 HD
DOCKED: BRANCH  22  24
DOCKED: ATOM     24  C   UNL     1      25.683 -17.394  -0.954 -0.56 -0.00    +0.000 A 
DOCKED: ATOM     25  C   UNL     1      25.256 -18.708  -0.717 -0.42 -0.00    +0.000 A 
DOCKED: ATOM     26  C   UNL     1      23.897 -19.030  -0.752 -0.60 -0.00    +0.000 A 
DOCKED: ATOM     27  C   UNL     1      22.935 -18.044  -1.032 -0.71 -0.00    +0.000 A 
DOCKED: ATOM     28  C   UNL     1      23.368 -16.733  -1.304 -0.19 -0.00    +0.000 A 
DOCKED: ATOM     29  C   UNL     1      24.728 -16.413  -1.268 -0.50 -0.00    +0.000 A 
DOCKED: BRANCH  27  30
DOCKED: ATOM     30  C   UNL     1      21.496 -18.401  -1.069 -0.74 -0.00    +0.000 C 
DOCKED: ATOM     31  N   UNL     1      21.057 -19.688  -1.523 -0.72 -0.00    +0.000 N 
DOCKED: ATOM     32  O   UNL     1      20.635 -17.553  -0.708 -2.13 +0.00    +0.000 OA
DOCKED: ATOM     33  H   UNL     1      21.709 -20.327  -1.888 -0.46 -0.00    +0.000 HD
DOCKED: BRANCH  31  34
DOCKED: ATOM     34  O   UNL     1      19.748 -20.027  -1.451 -1.52 -0.00    +0.000 OA
DOCKED: ATOM     35  H   UNL     1      19.207 -19.222  -1.398 -0.43 -0.00    +0.000 HD
DOCKED: ENDBRANCH  31  34
DOCKED: ENDBRANCH  27  30
DOCKED: ENDBRANCH  22  24
DOCKED: ENDBRANCH  19  21
DOCKED: ENDBRANCH   1  19
DOCKED: TORSDOF 10
DOCKED: TER
DOCKED: ENDMDL
________________________________________________________________________________


	BEGINNING GENETIC ALGORITHM DOCKING 51 of 100
Run: 51 Seed: 1413483911 1719588160 [ Run 51 of 100 GA/GALS ]
Beginning LAMARCKIAN GENETIC ALGORITHM (LGA), with a maximum of 2500000 energy evaluations.

Final-Value: -15.414


	FINAL GENETIC ALGORITHM DOCKED STATE
	_______________________________________________


Detailed state:  trans 28.988 -14.376 0.766 quatxyzw 0.635703 -0.548320 -0.224177 0.494947 center 1.857 0.216 -0.019 ntor 10 -20.8438 19.9895 -166.2007 -9.9336 161.9464 80.3542 162.8590 18.8529 159.1287 -117.9828
State:	 28.988 -14.376   0.766   0.732 -0.631 -0.258 120.667    -20.84   19.99 -166.20   -9.93  161.95   80.35  162.86   18.85  159.13 -117.98

DOCKED: MODEL       51
DOCKED: USER    Run = 51
DOCKED: USER    DPF = ligand_dock.biased.dpf
DOCKED: USER  
DOCKED: USER    Estimated Free Energy of Binding    =  -11.00 kcal/mol  [=(1)+(2)+(3)-(4)]
DOCKED: USER    Estimated Inhibition Constant, Ki   =    8.72 nM (nanomolar)  [Temperature = 298.15 K]
DOCKED: USER    
DOCKED: USER    (1) Final Intermolecular Energy     =  -13.98 kcal/mol
DOCKED: USER        vdW + Hbond + desolv Energy     =  -13.98 kcal/mol
DOCKED: USER        Electrostatic Energy            =   +0.00 kcal/mol
DOCKED: USER    (2) Final Total Internal Energy     =   -1.44 kcal/mol
DOCKED: USER    (3) Torsional Free Energy           =   +2.98 kcal/mol
DOCKED: USER    (4) Unbound System's Energy  [=(2)] =   -1.44 kcal/mol
DOCKED: USER    
DOCKED: USER    
DOCKED: USER    NEWDPF move ligand.pdbqt
DOCKED: USER    NEWDPF about 1.857000 0.216000 -0.019000
DOCKED: USER    NEWDPF tran0 28.988352 -14.376254 0.766058
DOCKED: USER    NEWDPF quaternion0 0.635703 -0.548320 -0.224177 0.494947
DOCKED: USER    NEWDPF axisangle0 0.731598 -0.631033 -0.257994 120.667488
DOCKED: USER    NEWDPF quat0 0.731598 -0.631033 -0.257994 120.667488
DOCKED: USER    NEWDPF dihe0 -20.84 19.99 -166.20 -9.93 161.95 80.35 162.86 18.85 159.13 -117.98 
DOCKED: USER  keepresnum = 1 
DOCKED: USER  
DOCKED: REMARK  Name = 
DOCKED: REMARK  12 active torsions:
DOCKED: REMARK  status: ('A' for Active; 'I' for Inactive)
DOCKED: REMARK    1  A    between atoms: C_2  and  O_3
DOCKED: REMARK    2  A    between atoms: O_3  and  C_4
DOCKED: REMARK    3  A    between atoms: C_4  and  C_5
DOCKED: REMARK    4  A    between atoms: C_10  and  C_11
DOCKED: REMARK    5  A    between atoms: C_11  and  N_12
DOCKED: REMARK    6  A    between atoms: N_12  and  C_13
DOCKED: REMARK    7  A    between atoms: N_12  and  C_15
DOCKED: REMARK    8  A    between atoms: C_13  and  C_14
DOCKED: REMARK    9  A    between atoms: C_15  and  C_16
DOCKED: REMARK   10  A    between atoms: N_21  and  C_22
DOCKED: REMARK   11  A    between atoms: C_25  and  C_26
DOCKED: REMARK   12  A    between atoms: N_27  and  O_28
DOCKED: REMARK                            x       y       z     vdW  Elec       q    Type
DOCKED: REMARK                         _______ _______ _______ _____ _____    ______ ____
DOCKED: USER                              x       y       z     vdW  Elec       q    Type
DOCKED: USER                           _______ _______ _______ _____ _____    ______ ____
DOCKED: ROOT
DOCKED: ATOM      1  C   UNL     1      29.930 -13.042   0.530 -0.06 -0.00    +0.000 C 
DOCKED: ENDROOT
DOCKED: BRANCH   1   2
DOCKED: ATOM      2  C   UNL     1      29.477 -12.843   1.947 -0.10 -0.00    +0.000 A 
DOCKED: ATOM      3  C   UNL     1      28.428 -11.956   2.235 -0.14 -0.00    +0.000 A 
DOCKED: ATOM      4  C   UNL     1      28.028 -11.738   3.557 -0.24 +0.00    +0.000 A 
DOCKED: ATOM      5  C   UNL     1      28.680 -12.395   4.609 -0.26 -0.00    +0.000 A 
DOCKED: ATOM      6  C   UNL     1      28.286 -12.182   5.939 -0.37 +0.00    +0.000 A 
DOCKED: ATOM      7  C   UNL     1      28.947 -12.839   6.990 -0.37 -0.00    +0.000 A 
DOCKED: ATOM      8  C   UNL     1      30.005 -13.714   6.702 -0.23 -0.00    +0.000 A 
DOCKED: ATOM      9  C   UNL     1      30.406 -13.931   5.381 -0.24 -0.00    +0.000 A 
DOCKED: ATOM     10  C   UNL     1      29.750 -13.278   4.327 -0.23 -0.00    +0.000 A 
DOCKED: ATOM     11  C   UNL     1      30.144 -13.491   2.998 -0.14 -0.00    +0.000 A 
DOCKED: BRANCH   7  12
DOCKED: ATOM     12  C   UNL     1      28.515 -12.630   8.418 -0.35 -0.00    +0.000 C 
DOCKED: BRANCH  12  13
DOCKED: ATOM     13  N   UNL     1      29.523 -13.193   9.341 -0.35 -0.00    +0.000 N 
DOCKED: ATOM     14  H   UNL     1      30.423 -13.202   8.861 -0.00 -0.00    +0.000 HD
DOCKED: BRANCH  13  15
DOCKED: ATOM     15  C   UNL     1      29.229 -14.610   9.664 -0.50 -0.00    +0.000 C 
DOCKED: ATOM     16  C   UNL     1      30.507 -15.430   9.844 -0.44 -0.00    +0.000 C 
DOCKED: ENDBRANCH  13  15
DOCKED: BRANCH  13  17
DOCKED: ATOM     17  C   UNL     1      29.735 -12.330  10.530 -0.31 -0.00    +0.000 C 
DOCKED: ATOM     18  C   UNL     1      28.763 -12.599  11.687 -0.43 -0.00    +0.000 C 
DOCKED: ENDBRANCH  13  17
DOCKED: ENDBRANCH  12  13
DOCKED: ENDBRANCH   7  12
DOCKED: ENDBRANCH   1   2
DOCKED: BRANCH   1  19
DOCKED: ATOM     19  O   UNL     1      29.564 -14.349   0.100 -0.12 -0.00    +0.000 OA
DOCKED: BRANCH  19  21
DOCKED: ATOM     20  O   UNL     1      27.298 -13.928   0.004 -0.26 -0.00    +0.000 OA
DOCKED: ATOM     21  C   UNL     1      28.235 -14.772   0.021 -0.23 -0.00    +0.000 C 
DOCKED: ATOM     22  N   UNL     1      27.952 -16.178   0.003 -0.31 -0.00    +0.000 N 
DOCKED: ATOM     23  H   UNL     1      28.696 -16.799   0.178 -0.29 -0.00    +0.000 HD
DOCKED: BRANCH  22  24
DOCKED: ATOM     24  C   UNL     1      26.654 -16.741  -0.255 -0.42 -0.00    +0.000 A 
DOCKED: ATOM     25  C   UNL     1      25.656 -15.936  -0.819 -0.40 -0.00    +0.000 A 
DOCKED: ATOM     26  C   UNL     1      24.379 -16.451  -1.059 -0.43 -0.00    +0.000 A 
DOCKED: ATOM     27  C   UNL     1      24.072 -17.783  -0.733 -0.69 -0.00    +0.000 A 
DOCKED: ATOM     28  C   UNL     1      25.065 -18.580  -0.133 -0.46 -0.00    +0.000 A 
DOCKED: ATOM     29  C   UNL     1      26.342 -18.063   0.106 -0.53 -0.00    +0.000 A 
DOCKED: BRANCH  27  30
DOCKED: ATOM     30  C   UNL     1      22.711 -18.315  -0.990 -0.82 -0.00    +0.000 C 
DOCKED: ATOM     31  N   UNL     1      21.541 -17.529  -0.735 -0.71 -0.00    +0.000 N 
DOCKED: ATOM     32  O   UNL     1      22.577 -19.490  -1.430 -0.77 -0.00    +0.000 OA
DOCKED: ATOM     33  H   UNL     1      21.628 -16.645  -0.311 -0.05 -0.00    +0.000 HD
DOCKED: BRANCH  31  34
DOCKED: ATOM     34  O   UNL     1      20.317 -17.998  -1.073 -2.15 -0.00    +0.000 OA
DOCKED: ATOM     35  H   UNL     1      19.671 -17.275  -1.037 -0.58 -0.00    +0.000 HD
DOCKED: ENDBRANCH  31  34
DOCKED: ENDBRANCH  27  30
DOCKED: ENDBRANCH  22  24
DOCKED: ENDBRANCH  19  21
DOCKED: ENDBRANCH   1  19
DOCKED: TORSDOF 10
DOCKED: TER
DOCKED: ENDMDL
________________________________________________________________________________


	BEGINNING GENETIC ALGORITHM DOCKING 52 of 100
Run: 52 Seed: 814309096 1530746861 [ Run 52 of 100 GA/GALS ]
Beginning LAMARCKIAN GENETIC ALGORITHM (LGA), with a maximum of 2500000 energy evaluations.

Final-Value: -16.541


	FINAL GENETIC ALGORITHM DOCKED STATE
	_______________________________________________


Detailed state:  trans 29.737 -15.917 -0.199 quatxyzw 0.309967 0.922664 -0.001989 -0.229366 center 1.857 0.216 -0.019 ntor 10 -98.8847 32.9611 16.6402 -19.8175 -39.2811 -127.7184 -162.3412 -170.2721 46.7270 81.6885
State:	 29.737 -15.917  -0.199   0.318  0.948 -0.002 -153.481    -98.88   32.96   16.64  -19.82  -39.28 -127.72 -162.34 -170.27   46.73   81.69

DOCKED: MODEL       52
DOCKED: USER    Run = 52
DOCKED: USER    DPF = ligand_dock.biased.dpf
DOCKED: USER  
DOCKED: USER    Estimated Free Energy of Binding    =  -11.44 kcal/mol  [=(1)+(2)+(3)-(4)]
DOCKED: USER    Estimated Inhibition Constant, Ki   =    4.10 nM (nanomolar)  [Temperature = 298.15 K]
DOCKED: USER    
DOCKED: USER    (1) Final Intermolecular Energy     =  -14.43 kcal/mol
DOCKED: USER        vdW + Hbond + desolv Energy     =  -14.43 kcal/mol
DOCKED: USER        Electrostatic Energy            =   +0.00 kcal/mol
DOCKED: USER    (2) Final Total Internal Energy     =   -2.12 kcal/mol
DOCKED: USER    (3) Torsional Free Energy           =   +2.98 kcal/mol
DOCKED: USER    (4) Unbound System's Energy  [=(2)] =   -2.12 kcal/mol
DOCKED: USER    
DOCKED: USER    
DOCKED: USER    NEWDPF move ligand.pdbqt
DOCKED: USER    NEWDPF about 1.857000 0.216000 -0.019000
DOCKED: USER    NEWDPF tran0 29.737091 -15.916961 -0.198797
DOCKED: USER    NEWDPF quaternion0 0.309967 0.922664 -0.001989 -0.229366
DOCKED: USER    NEWDPF axisangle0 0.318457 0.947935 -0.002043 -153.480541
DOCKED: USER    NEWDPF quat0 0.318457 0.947935 -0.002043 -153.480541
DOCKED: USER    NEWDPF dihe0 -98.88 32.96 16.64 -19.82 -39.28 -127.72 -162.34 -170.27 46.73 81.69 
DOCKED: USER  keepresnum = 1 
DOCKED: USER  
DOCKED: REMARK  Name = 
DOCKED: REMARK  12 active torsions:
DOCKED: REMARK  status: ('A' for Active; 'I' for Inactive)
DOCKED: REMARK    1  A    between atoms: C_2  and  O_3
DOCKED: REMARK    2  A    between atoms: O_3  and  C_4
DOCKED: REMARK    3  A    between atoms: C_4  and  C_5
DOCKED: REMARK    4  A    between atoms: C_10  and  C_11
DOCKED: REMARK    5  A    between atoms: C_11  and  N_12
DOCKED: REMARK    6  A    between atoms: N_12  and  C_13
DOCKED: REMARK    7  A    between atoms: N_12  and  C_15
DOCKED: REMARK    8  A    between atoms: C_13  and  C_14
DOCKED: REMARK    9  A    between atoms: C_15  and  C_16
DOCKED: REMARK   10  A    between atoms: N_21  and  C_22
DOCKED: REMARK   11  A    between atoms: C_25  and  C_26
DOCKED: REMARK   12  A    between atoms: N_27  and  O_28
DOCKED: REMARK                            x       y       z     vdW  Elec       q    Type
DOCKED: REMARK                         _______ _______ _______ _____ _____    ______ ____
DOCKED: USER                              x       y       z     vdW  Elec       q    Type
DOCKED: USER                           _______ _______ _______ _____ _____    ______ ____
DOCKED: ROOT
DOCKED: ATOM      1  C   UNL     1      30.110 -16.755  -1.571 -0.20 -0.00    +0.000 C 
DOCKED: ENDROOT
DOCKED: BRANCH   1   2
DOCKED: ATOM      2  C   UNL     1      30.813 -17.568  -0.522 -0.16 -0.00    +0.000 A 
DOCKED: ATOM      3  C   UNL     1      30.932 -18.958  -0.670 -0.16 -0.00    +0.000 A 
DOCKED: ATOM      4  C   UNL     1      31.552 -19.724   0.322 -0.14 -0.00    +0.000 A 
DOCKED: ATOM      5  C   UNL     1      32.049 -19.111   1.480 -0.14 -0.00    +0.000 A 
DOCKED: ATOM      6  C   UNL     1      32.672 -19.873   2.481 -0.20 -0.00    +0.000 A 
DOCKED: ATOM      7  C   UNL     1      33.163 -19.253   3.642 -0.29 -0.00    +0.000 A 
DOCKED: ATOM      8  C   UNL     1      33.029 -17.865   3.795 -0.20 -0.00    +0.000 A 
DOCKED: ATOM      9  C   UNL     1      32.409 -17.099   2.805 -0.25 -0.00    +0.000 A 
DOCKED: ATOM     10  C   UNL     1      31.916 -17.711   1.643 -0.13 -0.00    +0.000 A 
DOCKED: ATOM     11  C   UNL     1      31.294 -16.950   0.643 -0.09 -0.00    +0.000 A 
DOCKED: BRANCH   7  12
DOCKED: ATOM     12  C   UNL     1      33.850 -20.063   4.710 -0.34 -0.00    +0.000 C 
DOCKED: BRANCH  12  13
DOCKED: ATOM     13  N   UNL     1      33.557 -21.501   4.526 -0.31 -0.00    +0.000 N 
DOCKED: ATOM     14  H   UNL     1      33.179 -21.629   3.588 -0.07 -0.00    +0.000 HD
DOCKED: BRANCH  13  15
DOCKED: ATOM     15  C   UNL     1      32.493 -21.958   5.451 -0.51 -0.00    +0.000 C 
DOCKED: ATOM     16  C   UNL     1      31.140 -21.330   5.117 -0.73 -0.00    +0.000 C 
DOCKED: ENDBRANCH  13  15
DOCKED: BRANCH  13  17
DOCKED: ATOM     17  C   UNL     1      34.788 -22.329   4.559 -0.17 -0.00    +0.000 C 
DOCKED: ATOM     18  C   UNL     1      35.047 -23.023   5.903 -0.36 -0.00    +0.000 C 
DOCKED: ENDBRANCH  13  17
DOCKED: ENDBRANCH  12  13
DOCKED: ENDBRANCH   7  12
DOCKED: ENDBRANCH   1   2
DOCKED: BRANCH   1  19
DOCKED: ATOM     19  O   UNL     1      29.271 -15.795  -0.936 -0.19 -0.00    +0.000 OA
DOCKED: BRANCH  19  21
DOCKED: ATOM     20  O   UNL     1      27.169 -15.056  -0.338 -0.31 -0.00    +0.000 OA
DOCKED: ATOM     21  C   UNL     1      27.900 -15.996  -0.754 -0.33 -0.00    +0.000 C 
DOCKED: ATOM     22  N   UNL     1      27.347 -17.294  -1.008 -0.44 -0.00    +0.000 N 
DOCKED: ATOM     23  H   UNL     1      27.973 -18.035  -1.175 -0.07 -0.00    +0.000 HD
DOCKED: BRANCH  22  24
DOCKED: ATOM     24  C   UNL     1      25.939 -17.585  -1.034 -0.54 -0.00    +0.000 A 
DOCKED: ATOM     25  C   UNL     1      25.086 -16.785  -1.804 -0.56 -0.00    +0.000 A 
DOCKED: ATOM     26  C   UNL     1      23.710 -17.031  -1.830 -0.04 -0.00    +0.000 A 
DOCKED: ATOM     27  C   UNL     1      23.158 -18.081  -1.077 -0.71 -0.00    +0.000 A 
DOCKED: ATOM     28  C   UNL     1      24.011 -18.861  -0.275 -0.38 -0.00    +0.000 A 
DOCKED: ATOM     29  C   UNL     1      25.387 -18.614  -0.251 -0.50 -0.00    +0.000 A 
DOCKED: BRANCH  27  30
DOCKED: ATOM     30  C   UNL     1      21.696 -18.329  -1.110 -0.68 -0.00    +0.000 C 
DOCKED: ATOM     31  N   UNL     1      21.158 -19.564  -1.598 -0.69 -0.00    +0.000 N 
DOCKED: ATOM     32  O   UNL     1      20.904 -17.430  -0.715 -2.02 +0.00    +0.000 OA
DOCKED: ATOM     33  H   UNL     1      21.759 -20.239  -1.989 -0.50 -0.00    +0.000 HD
DOCKED: BRANCH  31  34
DOCKED: ATOM     34  O   UNL     1      19.828 -19.806  -1.524 -1.68 -0.00    +0.000 OA
DOCKED: ATOM     35  H   UNL     1      19.355 -18.973  -1.369 -0.34 -0.00    +0.000 HD
DOCKED: ENDBRANCH  31  34
DOCKED: ENDBRANCH  27  30
DOCKED: ENDBRANCH  22  24
DOCKED: ENDBRANCH  19  21
DOCKED: ENDBRANCH   1  19
DOCKED: TORSDOF 10
DOCKED: TER
DOCKED: ENDMDL
________________________________________________________________________________


	BEGINNING GENETIC ALGORITHM DOCKING 53 of 100
Run: 53 Seed: 1698550748 897915528 [ Run 53 of 100 GA/GALS ]
Beginning LAMARCKIAN GENETIC ALGORITHM (LGA), with a maximum of 2500000 energy evaluations.

Final-Value: -16.216


	FINAL GENETIC ALGORITHM DOCKED STATE
	_______________________________________________


Detailed state:  trans 29.403 -16.138 -0.051 quatxyzw -0.551436 -0.540239 -0.622978 -0.126330 center 1.857 0.216 -0.019 ntor 10 133.8438 155.5338 -141.4897 -86.7991 -16.0532 101.2169 -172.3161 -101.8267 -127.3838 107.8282
State:	 29.403 -16.138  -0.051  -0.556 -0.545 -0.628 -165.485    133.84  155.53 -141.49  -86.80  -16.05  101.22 -172.32 -101.83 -127.38  107.83

DOCKED: MODEL       53
DOCKED: USER    Run = 53
DOCKED: USER    DPF = ligand_dock.biased.dpf
DOCKED: USER  
DOCKED: USER    Estimated Free Energy of Binding    =  -11.42 kcal/mol  [=(1)+(2)+(3)-(4)]
DOCKED: USER    Estimated Inhibition Constant, Ki   =    4.25 nM (nanomolar)  [Temperature = 298.15 K]
DOCKED: USER    
DOCKED: USER    (1) Final Intermolecular Energy     =  -14.40 kcal/mol
DOCKED: USER        vdW + Hbond + desolv Energy     =  -14.40 kcal/mol
DOCKED: USER        Electrostatic Energy            =   +0.00 kcal/mol
DOCKED: USER    (2) Final Total Internal Energy     =   -1.81 kcal/mol
DOCKED: USER    (3) Torsional Free Energy           =   +2.98 kcal/mol
DOCKED: USER    (4) Unbound System's Energy  [=(2)] =   -1.81 kcal/mol
DOCKED: USER    
DOCKED: USER    
DOCKED: USER    NEWDPF move ligand.pdbqt
DOCKED: USER    NEWDPF about 1.857000 0.216000 -0.019000
DOCKED: USER    NEWDPF tran0 29.403179 -16.138332 -0.051069
DOCKED: USER    NEWDPF quaternion0 -0.551436 -0.540239 -0.622978 -0.126330
DOCKED: USER    NEWDPF axisangle0 -0.555889 -0.544602 -0.628009 -165.484870
DOCKED: USER    NEWDPF quat0 -0.555889 -0.544602 -0.628009 -165.484870
DOCKED: USER    NEWDPF dihe0 133.84 155.53 -141.49 -86.80 -16.05 101.22 -172.32 -101.83 -127.38 107.83 
DOCKED: USER  keepresnum = 1 
DOCKED: USER  
DOCKED: REMARK  Name = 
DOCKED: REMARK  12 active torsions:
DOCKED: REMARK  status: ('A' for Active; 'I' for Inactive)
DOCKED: REMARK    1  A    between atoms: C_2  and  O_3
DOCKED: REMARK    2  A    between atoms: O_3  and  C_4
DOCKED: REMARK    3  A    between atoms: C_4  and  C_5
DOCKED: REMARK    4  A    between atoms: C_10  and  C_11
DOCKED: REMARK    5  A    between atoms: C_11  and  N_12
DOCKED: REMARK    6  A    between atoms: N_12  and  C_13
DOCKED: REMARK    7  A    between atoms: N_12  and  C_15
DOCKED: REMARK    8  A    between atoms: C_13  and  C_14
DOCKED: REMARK    9  A    between atoms: C_15  and  C_16
DOCKED: REMARK   10  A    between atoms: N_21  and  C_22
DOCKED: REMARK   11  A    between atoms: C_25  and  C_26
DOCKED: REMARK   12  A    between atoms: N_27  and  O_28
DOCKED: REMARK                            x       y       z     vdW  Elec       q    Type
DOCKED: REMARK                         _______ _______ _______ _____ _____    ______ ____
DOCKED: USER                              x       y       z     vdW  Elec       q    Type
DOCKED: USER                           _______ _______ _______ _____ _____    ______ ____
DOCKED: ROOT
DOCKED: ATOM      1  C   UNL     1      29.798 -14.732  -0.819 -0.10 -0.00    +0.000 C 
DOCKED: ENDROOT
DOCKED: BRANCH   1   2
DOCKED: ATOM      2  C   UNL     1      29.933 -15.730  -1.932 -0.11 -0.00    +0.000 A 
DOCKED: ATOM      3  C   UNL     1      30.244 -17.068  -1.646 -0.18 -0.00    +0.000 A 
DOCKED: ATOM      4  C   UNL     1      30.408 -17.993  -2.682 -0.07 -0.00    +0.000 A 
DOCKED: ATOM      5  C   UNL     1      30.276 -17.589  -4.017 -0.20 -0.00    +0.000 A 
DOCKED: ATOM      6  C   UNL     1      30.440 -18.511  -5.063 -0.28 -0.00    +0.000 A 
DOCKED: ATOM      7  C   UNL     1      30.311 -18.098  -6.399 -0.30 -0.00    +0.000 A 
DOCKED: ATOM      8  C   UNL     1      30.015 -16.756  -6.684 -0.24 -0.00    +0.000 A 
DOCKED: ATOM      9  C   UNL     1      29.852 -15.832  -5.650 -0.27 -0.00    +0.000 A 
DOCKED: ATOM     10  C   UNL     1      29.979 -16.237  -4.313 -0.20 -0.00    +0.000 A 
DOCKED: ATOM     11  C   UNL     1      29.815 -15.316  -3.268 -0.12 -0.00    +0.000 A 
DOCKED: BRANCH   7  12
DOCKED: ATOM     12  C   UNL     1      30.466 -19.087  -7.525 -0.36 -0.00    +0.000 C 
DOCKED: BRANCH  12  13
DOCKED: ATOM     13  N   UNL     1      31.058 -18.423  -8.707 -0.36 -0.00    +0.000 N 
DOCKED: ATOM     14  H   UNL     1      30.510 -17.586  -8.907 -0.03 -0.00    +0.000 HD
DOCKED: BRANCH  13  15
DOCKED: ATOM     15  C   UNL     1      30.944 -19.272  -9.917 -0.40 -0.00    +0.000 C 
DOCKED: ATOM     16  C   UNL     1      31.660 -20.611  -9.742 -0.24 -0.00    +0.000 C 
DOCKED: ENDBRANCH  13  15
DOCKED: BRANCH  13  17
DOCKED: ATOM     17  C   UNL     1      32.430 -17.925  -8.439 -0.20 -0.00    +0.000 C 
DOCKED: ATOM     18  C   UNL     1      32.718 -16.529  -9.008 -0.19 -0.00    +0.000 C 
DOCKED: ENDBRANCH  13  17
DOCKED: ENDBRANCH  12  13
DOCKED: ENDBRANCH   7  12
DOCKED: ENDBRANCH   1   2
DOCKED: BRANCH   1  19
DOCKED: ATOM     19  O   UNL     1      29.189 -15.361   0.304 -0.22 -0.00    +0.000 OA
DOCKED: BRANCH  19  21
DOCKED: ATOM     20  O   UNL     1      27.007 -15.009   0.967 -0.29 -0.00    +0.000 OA
DOCKED: ATOM     21  C   UNL     1      27.837 -15.714   0.329 -0.27 -0.00    +0.000 C 
DOCKED: ATOM     22  N   UNL     1      27.416 -16.908  -0.345 -0.41 -0.00    +0.000 N 
DOCKED: ATOM     23  H   UNL     1      28.114 -17.509  -0.692 -0.09 -0.00    +0.000 HD
DOCKED: BRANCH  22  24
DOCKED: ATOM     24  C   UNL     1      26.043 -17.284  -0.547 -0.53 -0.00    +0.000 A 
DOCKED: ATOM     25  C   UNL     1      25.104 -16.302  -0.886 -0.45 -0.00    +0.000 A 
DOCKED: ATOM     26  C   UNL     1      23.759 -16.636  -1.065 -0.34 -0.00    +0.000 A 
DOCKED: ATOM     27  C   UNL     1      23.323 -17.963  -0.903 -0.71 -0.00    +0.000 A 
DOCKED: ATOM     28  C   UNL     1      24.262 -18.942  -0.527 -0.42 -0.00    +0.000 A 
DOCKED: ATOM     29  C   UNL     1      25.607 -18.605  -0.348 -0.54 -0.00    +0.000 A 
DOCKED: BRANCH  27  30
DOCKED: ATOM     30  C   UNL     1      21.892 -18.303  -1.093 -0.73 -0.00    +0.000 C 
DOCKED: ATOM     31  N   UNL     1      21.493 -19.522  -1.730 -0.54 -0.00    +0.000 N 
DOCKED: ATOM     32  O   UNL     1      21.005 -17.497  -0.700 -2.06 -0.00    +0.000 OA
DOCKED: ATOM     33  H   UNL     1      22.173 -20.118  -2.119 -0.54 -0.00    +0.000 HD
DOCKED: BRANCH  31  34
DOCKED: ATOM     34  O   UNL     1      20.183 -19.858  -1.802 -1.81 -0.00    +0.000 OA
DOCKED: ATOM     35  H   UNL     1      20.085 -20.814  -1.669 -0.58 -0.00    +0.000 HD
DOCKED: ENDBRANCH  31  34
DOCKED: ENDBRANCH  27  30
DOCKED: ENDBRANCH  22  24
DOCKED: ENDBRANCH  19  21
DOCKED: ENDBRANCH   1  19
DOCKED: TORSDOF 10
DOCKED: TER
DOCKED: ENDMDL
________________________________________________________________________________


	BEGINNING GENETIC ALGORITHM DOCKING 54 of 100
Run: 54 Seed: 453438899 645467259 [ Run 54 of 100 GA/GALS ]
Beginning LAMARCKIAN GENETIC ALGORITHM (LGA), with a maximum of 2500000 energy evaluations.

Final-Value: -15.366


	FINAL GENETIC ALGORITHM DOCKED STATE
	_______________________________________________


Detailed state:  trans 28.226 -15.207 -0.790 quatxyzw 0.767491 -0.332366 0.503339 -0.217116 center 1.857 0.216 -0.019 ntor 10 -47.2452 100.7194 35.7828 68.8579 9.5588 -27.1410 175.6003 -148.2902 174.6607 -116.7697
State:	 28.226 -15.207  -0.790   0.786 -0.340  0.516 -154.921    -47.25  100.72   35.78   68.86    9.56  -27.14  175.60 -148.29  174.66 -116.77

DOCKED: MODEL       54
DOCKED: USER    Run = 54
DOCKED: USER    DPF = ligand_dock.biased.dpf
DOCKED: USER  
DOCKED: USER    Estimated Free Energy of Binding    =  -10.31 kcal/mol  [=(1)+(2)+(3)-(4)]
DOCKED: USER    Estimated Inhibition Constant, Ki   =   27.54 nM (nanomolar)  [Temperature = 298.15 K]
DOCKED: USER    
DOCKED: USER    (1) Final Intermolecular Energy     =  -13.30 kcal/mol
DOCKED: USER        vdW + Hbond + desolv Energy     =  -13.30 kcal/mol
DOCKED: USER        Electrostatic Energy            =   +0.00 kcal/mol
DOCKED: USER    (2) Final Total Internal Energy     =   -2.07 kcal/mol
DOCKED: USER    (3) Torsional Free Energy           =   +2.98 kcal/mol
DOCKED: USER    (4) Unbound System's Energy  [=(2)] =   -2.07 kcal/mol
DOCKED: USER    
DOCKED: USER    
DOCKED: USER    NEWDPF move ligand.pdbqt
DOCKED: USER    NEWDPF about 1.857000 0.216000 -0.019000
DOCKED: USER    NEWDPF tran0 28.225512 -15.206949 -0.790424
DOCKED: USER    NEWDPF quaternion0 0.767491 -0.332366 0.503339 -0.217116
DOCKED: USER    NEWDPF axisangle0 0.786247 -0.340488 0.515640 -154.920642
DOCKED: USER    NEWDPF quat0 0.786247 -0.340488 0.515640 -154.920642
DOCKED: USER    NEWDPF dihe0 -47.25 100.72 35.78 68.86 9.56 -27.14 175.60 -148.29 174.66 -116.77 
DOCKED: USER  keepresnum = 1 
DOCKED: USER  
DOCKED: REMARK  Name = 
DOCKED: REMARK  12 active torsions:
DOCKED: REMARK  status: ('A' for Active; 'I' for Inactive)
DOCKED: REMARK    1  A    between atoms: C_2  and  O_3
DOCKED: REMARK    2  A    between atoms: O_3  and  C_4
DOCKED: REMARK    3  A    between atoms: C_4  and  C_5
DOCKED: REMARK    4  A    between atoms: C_10  and  C_11
DOCKED: REMARK    5  A    between atoms: C_11  and  N_12
DOCKED: REMARK    6  A    between atoms: N_12  and  C_13
DOCKED: REMARK    7  A    between atoms: N_12  and  C_15
DOCKED: REMARK    8  A    between atoms: C_13  and  C_14
DOCKED: REMARK    9  A    between atoms: C_15  and  C_16
DOCKED: REMARK   10  A    between atoms: N_21  and  C_22
DOCKED: REMARK   11  A    between atoms: C_25  and  C_26
DOCKED: REMARK   12  A    between atoms: N_27  and  O_28
DOCKED: REMARK                            x       y       z     vdW  Elec       q    Type
DOCKED: REMARK                         _______ _______ _______ _____ _____    ______ ____
DOCKED: USER                              x       y       z     vdW  Elec       q    Type
DOCKED: USER                           _______ _______ _______ _____ _____    ______ ____
DOCKED: ROOT
DOCKED: ATOM      1  C   UNL     1      29.605 -15.720  -1.536 -0.16 -0.00    +0.000 C 
DOCKED: ENDROOT
DOCKED: BRANCH   1   2
DOCKED: ATOM      2  C   UNL     1      28.974 -14.887  -2.613 -0.12 -0.00    +0.000 A 
DOCKED: ATOM      3  C   UNL     1      28.013 -15.449  -3.468 -0.26 -0.00    +0.000 A 
DOCKED: ATOM      4  C   UNL     1      27.450 -14.688  -4.497 -0.35 -0.00    +0.000 A 
DOCKED: ATOM      5  C   UNL     1      27.851 -13.359  -4.693 -0.20 -0.00    +0.000 A 
DOCKED: ATOM      6  C   UNL     1      27.292 -12.589  -5.724 -0.17 -0.00    +0.000 A 
DOCKED: ATOM      7  C   UNL     1      27.701 -11.260  -5.919 -0.13 -0.00    +0.000 A 
DOCKED: ATOM      8  C   UNL     1      28.673 -10.704  -5.074 -0.05 -0.00    +0.000 A 
DOCKED: ATOM      9  C   UNL     1      29.237 -11.464  -4.046 -0.04 -0.00    +0.000 A 
DOCKED: ATOM     10  C   UNL     1      28.832 -12.792  -3.846 -0.08 -0.00    +0.000 A 
DOCKED: ATOM     11  C   UNL     1      29.391 -13.562  -2.815 -0.05 -0.00    +0.000 A 
DOCKED: BRANCH   7  12
DOCKED: ATOM     12  C   UNL     1      27.090 -10.421  -7.011 -0.15 -0.00    +0.000 C 
DOCKED: BRANCH  12  13
DOCKED: ATOM     13  N   UNL     1      25.826  -9.815  -6.540 -0.18 -0.00    +0.000 N 
DOCKED: ATOM     14  H   UNL     1      26.002  -8.831  -6.338 +0.01 -0.00    +0.000 HD
DOCKED: BRANCH  13  15
DOCKED: ATOM     15  C   UNL     1      25.385 -10.413  -5.257 -0.34 -0.00    +0.000 C 
DOCKED: ATOM     16  C   UNL     1      25.308  -9.372  -4.141 -0.28 -0.00    +0.000 C 
DOCKED: ENDBRANCH  13  15
DOCKED: BRANCH  13  17
DOCKED: ATOM     17  C   UNL     1      24.783  -9.807  -7.597 -0.34 -0.00    +0.000 C 
DOCKED: ATOM     18  C   UNL     1      23.373  -9.476  -7.090 -0.42 -0.00    +0.000 C 
DOCKED: ENDBRANCH  13  17
DOCKED: ENDBRANCH  12  13
DOCKED: ENDBRANCH   7  12
DOCKED: ENDBRANCH   1   2
DOCKED: BRANCH   1  19
DOCKED: ATOM     19  O   UNL     1      28.896 -15.526  -0.317 -0.22 -0.00    +0.000 OA
DOCKED: BRANCH  19  21
DOCKED: ATOM     20  O   UNL     1      26.811 -15.238   0.627 -0.25 -0.00    +0.000 OA
DOCKED: ATOM     21  C   UNL     1      27.556 -15.887  -0.158 -0.35 -0.00    +0.000 C 
DOCKED: ATOM     22  N   UNL     1      27.054 -17.028  -0.867 -0.45 -0.00    +0.000 N 
DOCKED: ATOM     23  H   UNL     1      27.703 -17.597  -1.341 -0.04 -0.00    +0.000 HD
DOCKED: BRANCH  22  24
DOCKED: ATOM     24  C   UNL     1      25.665 -17.395  -0.933 -0.56 -0.00    +0.000 A 
DOCKED: ATOM     25  C   UNL     1      24.685 -16.401  -0.824 -0.42 -0.00    +0.000 A 
DOCKED: ATOM     26  C   UNL     1      23.328 -16.733  -0.861 -0.39 -0.00    +0.000 A 
DOCKED: ATOM     27  C   UNL     1      22.922 -18.071  -1.002 -0.72 -0.00    +0.000 A 
DOCKED: ATOM     28  C   UNL     1      23.908 -19.073  -1.075 -0.58 -0.00    +0.000 A 
DOCKED: ATOM     29  C   UNL     1      25.265 -18.738  -1.038 -0.01 -0.00    +0.000 A 
DOCKED: BRANCH  27  30
DOCKED: ATOM     30  C   UNL     1      21.479 -18.409  -1.037 -0.75 -0.00    +0.000 C 
DOCKED: ATOM     31  N   UNL     1      21.025 -19.704  -1.450 -0.75 -0.00    +0.000 N 
DOCKED: ATOM     32  O   UNL     1      20.628 -17.537  -0.711 -2.11 +0.00    +0.000 OA
DOCKED: ATOM     33  H   UNL     1      21.671 -20.365  -1.789 -0.42 -0.00    +0.000 HD
DOCKED: BRANCH  31  34
DOCKED: ATOM     34  O   UNL     1      19.711 -20.022  -1.377 -1.47 -0.00    +0.000 OA
DOCKED: ATOM     35  H   UNL     1      19.176 -19.239  -1.584 -0.49 -0.00    +0.000 HD
DOCKED: ENDBRANCH  31  34
DOCKED: ENDBRANCH  27  30
DOCKED: ENDBRANCH  22  24
DOCKED: ENDBRANCH  19  21
DOCKED: ENDBRANCH   1  19
DOCKED: TORSDOF 10
DOCKED: TER
DOCKED: ENDMDL
________________________________________________________________________________


	BEGINNING GENETIC ALGORITHM DOCKING 55 of 100
Run: 55 Seed: 1400660138 400986364 [ Run 55 of 100 GA/GALS ]
Beginning LAMARCKIAN GENETIC ALGORITHM (LGA), with a maximum of 2500000 energy evaluations.

Final-Value: -16.950


	FINAL GENETIC ALGORITHM DOCKED STATE
	_______________________________________________


Detailed state:  trans 28.557 -15.842 -0.667 quatxyzw 0.815080 -0.090992 0.534417 0.204360 center 1.857 0.216 -0.019 ntor 10 126.1290 180.0000 15.8858 -27.1198 145.2625 125.1313 20.7904 -77.0676 -160.0482 171.2833
State:	 28.557 -15.842  -0.667   0.833 -0.093  0.546 156.416    126.13  180.00   15.89  -27.12  145.26  125.13   20.79  -77.07 -160.05  171.28

DOCKED: MODEL       55
DOCKED: USER    Run = 55
DOCKED: USER    DPF = ligand_dock.biased.dpf
DOCKED: USER  
DOCKED: USER    Estimated Free Energy of Binding    =  -11.38 kcal/mol  [=(1)+(2)+(3)-(4)]
DOCKED: USER    Estimated Inhibition Constant, Ki   =    4.53 nM (nanomolar)  [Temperature = 298.15 K]
DOCKED: USER    
DOCKED: USER    (1) Final Intermolecular Energy     =  -14.37 kcal/mol
DOCKED: USER        vdW + Hbond + desolv Energy     =  -14.37 kcal/mol
DOCKED: USER        Electrostatic Energy            =   +0.00 kcal/mol
DOCKED: USER    (2) Final Total Internal Energy     =   -2.58 kcal/mol
DOCKED: USER    (3) Torsional Free Energy           =   +2.98 kcal/mol
DOCKED: USER    (4) Unbound System's Energy  [=(2)] =   -2.58 kcal/mol
DOCKED: USER    
DOCKED: USER    
DOCKED: USER    NEWDPF move ligand.pdbqt
DOCKED: USER    NEWDPF about 1.857000 0.216000 -0.019000
DOCKED: USER    NEWDPF tran0 28.556742 -15.842444 -0.666551
DOCKED: USER    NEWDPF quaternion0 0.815080 -0.090992 0.534417 0.204360
DOCKED: USER    NEWDPF axisangle0 0.832653 -0.092954 0.545938 156.415927
DOCKED: USER    NEWDPF quat0 0.832653 -0.092954 0.545938 156.415927
DOCKED: USER    NEWDPF dihe0 126.13 180.00 15.89 -27.12 145.26 125.13 20.79 -77.07 -160.05 171.28 
DOCKED: USER  keepresnum = 1 
DOCKED: USER  
DOCKED: REMARK  Name = 
DOCKED: REMARK  12 active torsions:
DOCKED: REMARK  status: ('A' for Active; 'I' for Inactive)
DOCKED: REMARK    1  A    between atoms: C_2  and  O_3
DOCKED: REMARK    2  A    between atoms: O_3  and  C_4
DOCKED: REMARK    3  A    between atoms: C_4  and  C_5
DOCKED: REMARK    4  A    between atoms: C_10  and  C_11
DOCKED: REMARK    5  A    between atoms: C_11  and  N_12
DOCKED: REMARK    6  A    between atoms: N_12  and  C_13
DOCKED: REMARK    7  A    between atoms: N_12  and  C_15
DOCKED: REMARK    8  A    between atoms: C_13  and  C_14
DOCKED: REMARK    9  A    between atoms: C_15  and  C_16
DOCKED: REMARK   10  A    between atoms: N_21  and  C_22
DOCKED: REMARK   11  A    between atoms: C_25  and  C_26
DOCKED: REMARK   12  A    between atoms: N_27  and  O_28
DOCKED: REMARK                            x       y       z     vdW  Elec       q    Type
DOCKED: REMARK                         _______ _______ _______ _____ _____    ______ ____
DOCKED: USER                              x       y       z     vdW  Elec       q    Type
DOCKED: USER                           _______ _______ _______ _____ _____    ______ ____
DOCKED: ROOT
DOCKED: ATOM      1  C   UNL     1      29.815 -14.841  -1.038 -0.10 -0.00    +0.000 C 
DOCKED: ENDROOT
DOCKED: BRANCH   1   2
DOCKED: ATOM      2  C   UNL     1      28.754 -14.352  -1.980 -0.10 -0.00    +0.000 A 
DOCKED: ATOM      3  C   UNL     1      28.197 -15.223  -2.930 -0.21 -0.00    +0.000 A 
DOCKED: ATOM      4  C   UNL     1      27.236 -14.762  -3.835 -0.33 -0.00    +0.000 A 
DOCKED: ATOM      5  C   UNL     1      26.829 -13.421  -3.810 -0.27 -0.00    +0.000 A 
DOCKED: ATOM      6  C   UNL     1      25.866 -12.950  -4.716 -0.17 -0.00    +0.000 A 
DOCKED: ATOM      7  C   UNL     1      25.465 -11.604  -4.690 -0.32 -0.00    +0.000 A 
DOCKED: ATOM      8  C   UNL     1      26.034 -10.731  -3.750 -0.11 -0.00    +0.000 A 
DOCKED: ATOM      9  C   UNL     1      26.995 -11.190  -2.846 -0.10 -0.00    +0.000 A 
DOCKED: ATOM     10  C   UNL     1      27.399 -12.533  -2.866 -0.14 -0.00    +0.000 A 
DOCKED: ATOM     11  C   UNL     1      28.361 -13.004  -1.962 -0.08 -0.00    +0.000 A 
DOCKED: BRANCH   7  12
DOCKED: ATOM     12  C   UNL     1      24.417 -11.097  -5.646 -0.38 -0.00    +0.000 C 
DOCKED: BRANCH  12  13
DOCKED: ATOM     13  N   UNL     1      24.952  -9.965  -6.433 -0.30 -0.00    +0.000 N 
DOCKED: ATOM     14  H   UNL     1      25.950  -9.885  -6.235 +0.00 -0.00    +0.000 HD
DOCKED: BRANCH  13  15
DOCKED: ATOM     15  C   UNL     1      24.355  -8.678  -6.004 -0.31 -0.00    +0.000 C 
DOCKED: ATOM     16  C   UNL     1      22.868  -8.599  -6.345 -0.43 -0.00    +0.000 C 
DOCKED: ENDBRANCH  13  15
DOCKED: BRANCH  13  17
DOCKED: ATOM     17  C   UNL     1      24.873 -10.215  -7.894 -0.34 -0.00    +0.000 C 
DOCKED: ATOM     18  C   UNL     1      26.236 -10.361  -8.585 -0.24 -0.00    +0.000 C 
DOCKED: ENDBRANCH  13  17
DOCKED: ENDBRANCH  12  13
DOCKED: ENDBRANCH   7  12
DOCKED: ENDBRANCH   1   2
DOCKED: BRANCH   1  19
DOCKED: ATOM     19  O   UNL     1      29.235 -15.754  -0.111 -0.22 -0.00    +0.000 OA
DOCKED: BRANCH  19  21
DOCKED: ATOM     20  O   UNL     1      27.124 -15.129   0.578 -0.35 -0.00    +0.000 OA
DOCKED: ATOM     21  C   UNL     1      27.856 -15.963  -0.022 -0.32 -0.00    +0.000 C 
DOCKED: ATOM     22  N   UNL     1      27.295 -17.158  -0.583 -0.45 -0.00    +0.000 N 
DOCKED: ATOM     23  H   UNL     1      27.917 -17.853  -0.898 -0.09 -0.00    +0.000 HD
DOCKED: BRANCH  22  24
DOCKED: ATOM     24  C   UNL     1      25.885 -17.406  -0.717 -0.56 -0.00    +0.000 A 
DOCKED: ATOM     25  C   UNL     1      25.343 -18.587  -0.194 -0.49 -0.00    +0.000 A 
DOCKED: ATOM     26  C   UNL     1      23.980 -18.864  -0.330 -0.46 -0.00    +0.000 A 
DOCKED: ATOM     27  C   UNL     1      23.130 -17.967  -0.999 -0.71 -0.00    +0.000 A 
DOCKED: ATOM     28  C   UNL     1      23.683 -16.798  -1.555 -0.23 -0.00    +0.000 A 
DOCKED: ATOM     29  C   UNL     1      25.047 -16.522  -1.417 -0.54 -0.00    +0.000 A 
DOCKED: BRANCH  27  30
DOCKED: ATOM     30  C   UNL     1      21.686 -18.275  -1.138 -0.61 -0.00    +0.000 C 
DOCKED: ATOM     31  N   UNL     1      21.238 -19.481  -1.770 -0.63 -0.00    +0.000 N 
DOCKED: ATOM     32  O   UNL     1      20.831 -17.455  -0.706 -2.04 +0.00    +0.000 OA
DOCKED: ATOM     33  H   UNL     1      21.891 -20.087  -2.188 -0.56 -0.00    +0.000 HD
DOCKED: BRANCH  31  34
DOCKED: ATOM     34  O   UNL     1      19.919 -19.789  -1.794 -1.84 -0.00    +0.000 OA
DOCKED: ATOM     35  H   UNL     1      19.398 -18.999  -1.576 -0.36 -0.00    +0.000 HD
DOCKED: ENDBRANCH  31  34
DOCKED: ENDBRANCH  27  30
DOCKED: ENDBRANCH  22  24
DOCKED: ENDBRANCH  19  21
DOCKED: ENDBRANCH   1  19
DOCKED: TORSDOF 10
DOCKED: TER
DOCKED: ENDMDL
________________________________________________________________________________


	BEGINNING GENETIC ALGORITHM DOCKING 56 of 100
Run: 56 Seed: 1121530838 1539736224 [ Run 56 of 100 GA/GALS ]
Beginning LAMARCKIAN GENETIC ALGORITHM (LGA), with a maximum of 2500000 energy evaluations.

Final-Value: -15.648


	FINAL GENETIC ALGORITHM DOCKED STATE
	_______________________________________________


Detailed state:  trans 29.830 -15.177 0.037 quatxyzw 0.602270 -0.549893 -0.302779 0.493166 center 1.857 0.216 -0.019 ntor 10 -97.7393 179.5608 -138.3604 -93.8365 163.4847 -60.5523 93.2507 83.5446 -45.6838 -100.4604
State:	 29.830 -15.177   0.037   0.692 -0.632 -0.348 120.902    -97.74  179.56 -138.36  -93.84  163.48  -60.55   93.25   83.54  -45.68 -100.46

DOCKED: MODEL       56
DOCKED: USER    Run = 56
DOCKED: USER    DPF = ligand_dock.biased.dpf
DOCKED: USER  
DOCKED: USER    Estimated Free Energy of Binding    =  -10.80 kcal/mol  [=(1)+(2)+(3)-(4)]
DOCKED: USER    Estimated Inhibition Constant, Ki   =   12.13 nM (nanomolar)  [Temperature = 298.15 K]
DOCKED: USER    
DOCKED: USER    (1) Final Intermolecular Energy     =  -13.78 kcal/mol
DOCKED: USER        vdW + Hbond + desolv Energy     =  -13.78 kcal/mol
DOCKED: USER        Electrostatic Energy            =   +0.00 kcal/mol
DOCKED: USER    (2) Final Total Internal Energy     =   -1.87 kcal/mol
DOCKED: USER    (3) Torsional Free Energy           =   +2.98 kcal/mol
DOCKED: USER    (4) Unbound System's Energy  [=(2)] =   -1.87 kcal/mol
DOCKED: USER    
DOCKED: USER    
DOCKED: USER    NEWDPF move ligand.pdbqt
DOCKED: USER    NEWDPF about 1.857000 0.216000 -0.019000
DOCKED: USER    NEWDPF tran0 29.830460 -15.176548 0.036848
DOCKED: USER    NEWDPF quaternion0 0.602270 -0.549893 -0.302779 0.493166
DOCKED: USER    NEWDPF axisangle0 0.692316 -0.632108 -0.348048 120.902190
DOCKED: USER    NEWDPF quat0 0.692316 -0.632108 -0.348048 120.902190
DOCKED: USER    NEWDPF dihe0 -97.74 179.56 -138.36 -93.84 163.48 -60.55 93.25 83.54 -45.68 -100.46 
DOCKED: USER  keepresnum = 1 
DOCKED: USER  
DOCKED: REMARK  Name = 
DOCKED: REMARK  12 active torsions:
DOCKED: REMARK  status: ('A' for Active; 'I' for Inactive)
DOCKED: REMARK    1  A    between atoms: C_2  and  O_3
DOCKED: REMARK    2  A    between atoms: O_3  and  C_4
DOCKED: REMARK    3  A    between atoms: C_4  and  C_5
DOCKED: REMARK    4  A    between atoms: C_10  and  C_11
DOCKED: REMARK    5  A    between atoms: C_11  and  N_12
DOCKED: REMARK    6  A    between atoms: N_12  and  C_13
DOCKED: REMARK    7  A    between atoms: N_12  and  C_15
DOCKED: REMARK    8  A    between atoms: C_13  and  C_14
DOCKED: REMARK    9  A    between atoms: C_15  and  C_16
DOCKED: REMARK   10  A    between atoms: N_21  and  C_22
DOCKED: REMARK   11  A    between atoms: C_25  and  C_26
DOCKED: REMARK   12  A    between atoms: N_27  and  O_28
DOCKED: REMARK                            x       y       z     vdW  Elec       q    Type
DOCKED: REMARK                         _______ _______ _______ _____ _____    ______ ____
DOCKED: USER                              x       y       z     vdW  Elec       q    Type
DOCKED: USER                           _______ _______ _______ _____ _____    ______ ____
DOCKED: ROOT
DOCKED: ATOM      1  C   UNL     1      30.692 -13.782  -0.147 -0.05 -0.00    +0.000 C 
DOCKED: ENDROOT
DOCKED: BRANCH   1   2
DOCKED: ATOM      2  C   UNL     1      30.407 -13.766   1.327 -0.08 -0.00    +0.000 A 
DOCKED: ATOM      3  C   UNL     1      30.763 -14.863   2.126 -0.13 -0.00    +0.000 A 
DOCKED: ATOM      4  C   UNL     1      30.466 -14.869   3.492 -0.22 -0.00    +0.000 A 
DOCKED: ATOM      5  C   UNL     1      29.795 -13.784   4.074 -0.27 -0.00    +0.000 A 
DOCKED: ATOM      6  C   UNL     1      29.492 -13.783   5.444 -0.34 -0.00    +0.000 A 
DOCKED: ATOM      7  C   UNL     1      28.815 -12.695   6.020 -0.36 -0.00    +0.000 A 
DOCKED: ATOM      8  C   UNL     1      28.445 -11.606   5.216 -0.30 +0.00    +0.000 A 
DOCKED: ATOM      9  C   UNL     1      28.742 -11.599   3.851 -0.17 +0.00    +0.000 A 
DOCKED: ATOM     10  C   UNL     1      29.417 -12.682   3.270 -0.13 -0.00    +0.000 A 
DOCKED: ATOM     11  C   UNL     1      29.721 -12.684   1.900 -0.07 -0.00    +0.000 A 
DOCKED: BRANCH   7  12
DOCKED: ATOM     12  C   UNL     1      28.504 -12.679   7.494 -0.37 -0.00    +0.000 C 
DOCKED: BRANCH  12  13
DOCKED: ATOM     13  N   UNL     1      29.726 -12.972   8.274 -0.33 -0.00    +0.000 N 
DOCKED: ATOM     14  H   UNL     1      30.074 -13.887   7.985 -0.12 -0.00    +0.000 HD
DOCKED: BRANCH  13  15
DOCKED: ATOM     15  C   UNL     1      29.425 -13.099   9.720 -0.41 -0.00    +0.000 C 
DOCKED: ATOM     16  C   UNL     1      28.598 -14.348  10.023 -0.52 -0.00    +0.000 C 
DOCKED: ENDBRANCH  13  15
DOCKED: BRANCH  13  17
DOCKED: ATOM     17  C   UNL     1      30.828 -12.028   7.963 -0.19 -0.00    +0.000 C 
DOCKED: ATOM     18  C   UNL     1      32.035 -12.674   7.268 -0.17 -0.00    +0.000 C 
DOCKED: ENDBRANCH  13  17
DOCKED: ENDBRANCH  12  13
DOCKED: ENDBRANCH   7  12
DOCKED: ENDBRANCH   1   2
DOCKED: BRANCH   1  19
DOCKED: ATOM     19  O   UNL     1      30.320 -15.047  -0.683 -0.10 -0.00    +0.000 OA
DOCKED: BRANCH  19  21
DOCKED: ATOM     20  O   UNL     1      28.486 -15.016  -2.081 -0.17 -0.00    +0.000 OA
DOCKED: ATOM     21  C   UNL     1      28.997 -15.378  -0.986 -0.18 -0.00    +0.000 C 
DOCKED: ATOM     22  N   UNL     1      28.220 -16.097  -0.018 -0.28 -0.00    +0.000 N 
DOCKED: ATOM     23  H   UNL     1      28.605 -16.218   0.880 -0.65 -0.00    +0.000 HD
DOCKED: BRANCH  22  24
DOCKED: ATOM     24  C   UNL     1      26.918 -16.651  -0.273 -0.41 -0.00    +0.000 A 
DOCKED: ATOM     25  C   UNL     1      25.904 -15.822  -0.769 -0.39 -0.00    +0.000 A 
DOCKED: ATOM     26  C   UNL     1      24.623 -16.329  -1.004 -0.41 -0.00    +0.000 A 
DOCKED: ATOM     27  C   UNL     1      24.328 -17.678  -0.741 -0.67 -0.00    +0.000 A 
DOCKED: ATOM     28  C   UNL     1      25.339 -18.501  -0.209 -0.53 -0.00    +0.000 A 
DOCKED: ATOM     29  C   UNL     1      26.620 -17.991   0.025 -0.51 -0.00    +0.000 A 
DOCKED: BRANCH  27  30
DOCKED: ATOM     30  C   UNL     1      22.964 -18.202  -0.992 -0.82 -0.00    +0.000 C 
DOCKED: ATOM     31  N   UNL     1      21.798 -17.423  -0.697 -0.73 -0.00    +0.000 N 
DOCKED: ATOM     32  O   UNL     1      22.821 -19.364  -1.463 -0.84 -0.00    +0.000 OA
DOCKED: ATOM     33  H   UNL     1      21.892 -16.551  -0.250 -0.05 -0.00    +0.000 HD
DOCKED: BRANCH  31  34
DOCKED: ATOM     34  O   UNL     1      20.568 -17.882  -1.029 -2.23 -0.00    +0.000 OA
DOCKED: ATOM     35  H   UNL     1      20.036 -17.153  -1.388 -0.60 -0.00    +0.000 HD
DOCKED: ENDBRANCH  31  34
DOCKED: ENDBRANCH  27  30
DOCKED: ENDBRANCH  22  24
DOCKED: ENDBRANCH  19  21
DOCKED: ENDBRANCH   1  19
DOCKED: TORSDOF 10
DOCKED: TER
DOCKED: ENDMDL
________________________________________________________________________________


	BEGINNING GENETIC ALGORITHM DOCKING 57 of 100
Run: 57 Seed: 932283854 149515495 [ Run 57 of 100 GA/GALS ]
Beginning LAMARCKIAN GENETIC ALGORITHM (LGA), with a maximum of 2500000 energy evaluations.

Final-Value: -15.536


	FINAL GENETIC ALGORITHM DOCKED STATE
	_______________________________________________


Detailed state:  trans 27.981 -14.962 -2.001 quatxyzw 0.642096 -0.454369 0.509260 -0.349164 center 1.857 0.216 -0.019 ntor 10 46.2091 -152.6022 -7.1092 -20.0499 33.7550 -170.4506 -175.8451 -160.7486 166.9653 -82.1947
State:	 27.981 -14.962  -2.001   0.685 -0.485  0.543 -139.128     46.21 -152.60   -7.11  -20.05   33.75 -170.45 -175.85 -160.75  166.97  -82.19

DOCKED: MODEL       57
DOCKED: USER    Run = 57
DOCKED: USER    DPF = ligand_dock.biased.dpf
DOCKED: USER  
DOCKED: USER    Estimated Free Energy of Binding    =  -10.44 kcal/mol  [=(1)+(2)+(3)-(4)]
DOCKED: USER    Estimated Inhibition Constant, Ki   =   22.11 nM (nanomolar)  [Temperature = 298.15 K]
DOCKED: USER    
DOCKED: USER    (1) Final Intermolecular Energy     =  -13.43 kcal/mol
DOCKED: USER        vdW + Hbond + desolv Energy     =  -13.43 kcal/mol
DOCKED: USER        Electrostatic Energy            =   +0.00 kcal/mol
DOCKED: USER    (2) Final Total Internal Energy     =   -2.11 kcal/mol
DOCKED: USER    (3) Torsional Free Energy           =   +2.98 kcal/mol
DOCKED: USER    (4) Unbound System's Energy  [=(2)] =   -2.11 kcal/mol
DOCKED: USER    
DOCKED: USER    
DOCKED: USER    NEWDPF move ligand.pdbqt
DOCKED: USER    NEWDPF about 1.857000 0.216000 -0.019000
DOCKED: USER    NEWDPF tran0 27.981202 -14.962011 -2.001161
DOCKED: USER    NEWDPF quaternion0 0.642096 -0.454369 0.509260 -0.349164
DOCKED: USER    NEWDPF axisangle0 0.685223 -0.484887 0.543464 -139.127637
DOCKED: USER    NEWDPF quat0 0.685223 -0.484887 0.543464 -139.127637
DOCKED: USER    NEWDPF dihe0 46.21 -152.60 -7.11 -20.05 33.75 -170.45 -175.85 -160.75 166.97 -82.19 
DOCKED: USER  keepresnum = 1 
DOCKED: USER  
DOCKED: REMARK  Name = 
DOCKED: REMARK  12 active torsions:
DOCKED: REMARK  status: ('A' for Active; 'I' for Inactive)
DOCKED: REMARK    1  A    between atoms: C_2  and  O_3
DOCKED: REMARK    2  A    between atoms: O_3  and  C_4
DOCKED: REMARK    3  A    between atoms: C_4  and  C_5
DOCKED: REMARK    4  A    between atoms: C_10  and  C_11
DOCKED: REMARK    5  A    between atoms: C_11  and  N_12
DOCKED: REMARK    6  A    between atoms: N_12  and  C_13
DOCKED: REMARK    7  A    between atoms: N_12  and  C_15
DOCKED: REMARK    8  A    between atoms: C_13  and  C_14
DOCKED: REMARK    9  A    between atoms: C_15  and  C_16
DOCKED: REMARK   10  A    between atoms: N_21  and  C_22
DOCKED: REMARK   11  A    between atoms: C_25  and  C_26
DOCKED: REMARK   12  A    between atoms: N_27  and  O_28
DOCKED: REMARK                            x       y       z     vdW  Elec       q    Type
DOCKED: REMARK                         _______ _______ _______ _____ _____    ______ ____
DOCKED: USER                              x       y       z     vdW  Elec       q    Type
DOCKED: USER                           _______ _______ _______ _____ _____    ______ ____
DOCKED: ROOT
DOCKED: ATOM      1  C   UNL     1      29.091 -16.075  -2.503 -0.23 -0.00    +0.000 C 
DOCKED: ENDROOT
DOCKED: BRANCH   1   2
DOCKED: ATOM      2  C   UNL     1      28.921 -15.241  -3.740 -0.19 -0.00    +0.000 A 
DOCKED: ATOM      3  C   UNL     1      27.985 -15.611  -4.717 -0.33 -0.00    +0.000 A 
DOCKED: ATOM      4  C   UNL     1      27.850 -14.859  -5.888 -0.34 -0.00    +0.000 A 
DOCKED: ATOM      5  C   UNL     1      28.659 -13.736  -6.103 -0.26 -0.00    +0.000 A 
DOCKED: ATOM      6  C   UNL     1      28.531 -12.976  -7.276 -0.24 -0.00    +0.000 A 
DOCKED: ATOM      7  C   UNL     1      29.348 -11.854  -7.488 -0.13 -0.00    +0.000 A 
DOCKED: ATOM      8  C   UNL     1      30.296 -11.494  -6.517 -0.04 -0.00    +0.000 A 
DOCKED: ATOM      9  C   UNL     1      30.432 -12.245  -5.347 -0.04 -0.00    +0.000 A 
DOCKED: ATOM     10  C   UNL     1      29.618 -13.367  -5.129 -0.10 -0.00    +0.000 A 
DOCKED: ATOM     11  C   UNL     1      29.746 -14.126  -3.957 -0.08 -0.00    +0.000 A 
DOCKED: BRANCH   7  12
DOCKED: ATOM     12  C   UNL     1      29.202 -11.023  -8.736 -0.13 -0.00    +0.000 C 
DOCKED: BRANCH  12  13
DOCKED: ATOM     13  N   UNL     1      29.428 -11.860  -9.934 -0.20 -0.00    +0.000 N 
DOCKED: ATOM     14  H   UNL     1      29.380 -12.839  -9.650 -0.53 -0.00    +0.000 HD
DOCKED: BRANCH  13  15
DOCKED: ATOM     15  C   UNL     1      30.795 -11.670 -10.476 -0.16 -0.00    +0.000 C 
DOCKED: ATOM     16  C   UNL     1      30.830 -11.819 -11.996 -0.16 -0.00    +0.000 C 
DOCKED: ENDBRANCH  13  15
DOCKED: BRANCH  13  17
DOCKED: ATOM     17  C   UNL     1      28.348 -11.700 -10.939 -0.31 -0.00    +0.000 C 
DOCKED: ATOM     18  C   UNL     1      27.133 -12.610 -10.710 -0.47 +0.00    +0.000 C 
DOCKED: ENDBRANCH  13  17
DOCKED: ENDBRANCH  12  13
DOCKED: ENDBRANCH   7  12
DOCKED: ENDBRANCH   1   2
DOCKED: BRANCH   1  19
DOCKED: ATOM     19  O   UNL     1      28.434 -15.436  -1.413 -0.20 -0.00    +0.000 OA
DOCKED: BRANCH  19  21
DOCKED: ATOM     20  O   UNL     1      26.475 -15.008  -0.274 -0.37 -0.00    +0.000 OA
DOCKED: ATOM     21  C   UNL     1      27.151 -15.795  -0.991 -0.37 -0.00    +0.000 C 
DOCKED: ATOM     22  N   UNL     1      26.635 -17.084  -1.350 -0.46 -0.00    +0.000 N 
DOCKED: ATOM     23  H   UNL     1      27.253 -17.725  -1.771 -0.04 -0.00    +0.000 HD
DOCKED: BRANCH  22  24
DOCKED: ATOM     24  C   UNL     1      25.276 -17.502  -1.136 -0.60 -0.00    +0.000 A 
DOCKED: ATOM     25  C   UNL     1      24.239 -16.574  -1.293 -0.45 -0.00    +0.000 A 
DOCKED: ATOM     26  C   UNL     1      22.911 -16.947  -1.069 -0.37 -0.00    +0.000 A 
DOCKED: ATOM     27  C   UNL     1      22.593 -18.259  -0.676 -0.75 -0.00    +0.000 A 
DOCKED: ATOM     28  C   UNL     1      23.639 -19.180  -0.484 -0.37 -0.00    +0.000 A 
DOCKED: ATOM     29  C   UNL     1      24.967 -18.804  -0.709 -0.41 -0.00    +0.000 A 
DOCKED: BRANCH  27  30
DOCKED: ATOM     30  C   UNL     1      21.180 -18.640  -0.438 -0.79 -0.00    +0.000 C 
DOCKED: ATOM     31  N   UNL     1      20.837 -19.883   0.186 -0.67 -0.00    +0.000 N 
DOCKED: ATOM     32  O   UNL     1      20.257 -17.863  -0.805 -2.20 -0.00    +0.000 OA
DOCKED: ATOM     33  H   UNL     1      21.542 -20.536   0.398 -0.59 -0.00    +0.000 HD
DOCKED: BRANCH  31  34
DOCKED: ATOM     34  O   UNL     1      19.546 -20.164   0.484 -0.80 -0.00    +0.000 OA
DOCKED: ATOM     35  H   UNL     1      18.997 -19.381   0.317 -0.05 -0.00    +0.000 HD
DOCKED: ENDBRANCH  31  34
DOCKED: ENDBRANCH  27  30
DOCKED: ENDBRANCH  22  24
DOCKED: ENDBRANCH  19  21
DOCKED: ENDBRANCH   1  19
DOCKED: TORSDOF 10
DOCKED: TER
DOCKED: ENDMDL
________________________________________________________________________________


	BEGINNING GENETIC ALGORITHM DOCKING 58 of 100
Run: 58 Seed: 1920247925 70106516 [ Run 58 of 100 GA/GALS ]
Beginning LAMARCKIAN GENETIC ALGORITHM (LGA), with a maximum of 2500000 energy evaluations.

Final-Value: -15.938


	FINAL GENETIC ALGORITHM DOCKED STATE
	_______________________________________________


Detailed state:  trans 29.589 -16.227 -0.276 quatxyzw 0.520479 0.626988 0.560281 0.148568 center 1.857 0.216 -0.019 ntor 10 -52.0055 -179.9784 16.6748 -76.7767 159.3240 104.8338 25.3090 -130.1591 -123.9726 101.5684
State:	 29.589 -16.227  -0.276   0.526  0.634  0.567 162.912    -52.01 -179.98   16.67  -76.78  159.32  104.83   25.31 -130.16 -123.97  101.57

DOCKED: MODEL       58
DOCKED: USER    Run = 58
DOCKED: USER    DPF = ligand_dock.biased.dpf
DOCKED: USER  
DOCKED: USER    Estimated Free Energy of Binding    =  -10.60 kcal/mol  [=(1)+(2)+(3)-(4)]
DOCKED: USER    Estimated Inhibition Constant, Ki   =   16.94 nM (nanomolar)  [Temperature = 298.15 K]
DOCKED: USER    
DOCKED: USER    (1) Final Intermolecular Energy     =  -13.58 kcal/mol
DOCKED: USER        vdW + Hbond + desolv Energy     =  -13.58 kcal/mol
DOCKED: USER        Electrostatic Energy            =   +0.00 kcal/mol
DOCKED: USER    (2) Final Total Internal Energy     =   -2.35 kcal/mol
DOCKED: USER    (3) Torsional Free Energy           =   +2.98 kcal/mol
DOCKED: USER    (4) Unbound System's Energy  [=(2)] =   -2.35 kcal/mol
DOCKED: USER    
DOCKED: USER    
DOCKED: USER    NEWDPF move ligand.pdbqt
DOCKED: USER    NEWDPF about 1.857000 0.216000 -0.019000
DOCKED: USER    NEWDPF tran0 29.588552 -16.227168 -0.275730
DOCKED: USER    NEWDPF quaternion0 0.520479 0.626988 0.560281 0.148568
DOCKED: USER    NEWDPF axisangle0 0.526320 0.634024 0.566569 162.912116
DOCKED: USER    NEWDPF quat0 0.526320 0.634024 0.566569 162.912116
DOCKED: USER    NEWDPF dihe0 -52.01 -179.98 16.67 -76.78 159.32 104.83 25.31 -130.16 -123.97 101.57 
DOCKED: USER  keepresnum = 1 
DOCKED: USER  
DOCKED: REMARK  Name = 
DOCKED: REMARK  12 active torsions:
DOCKED: REMARK  status: ('A' for Active; 'I' for Inactive)
DOCKED: REMARK    1  A    between atoms: C_2  and  O_3
DOCKED: REMARK    2  A    between atoms: O_3  and  C_4
DOCKED: REMARK    3  A    between atoms: C_4  and  C_5
DOCKED: REMARK    4  A    between atoms: C_10  and  C_11
DOCKED: REMARK    5  A    between atoms: C_11  and  N_12
DOCKED: REMARK    6  A    between atoms: N_12  and  C_13
DOCKED: REMARK    7  A    between atoms: N_12  and  C_15
DOCKED: REMARK    8  A    between atoms: C_13  and  C_14
DOCKED: REMARK    9  A    between atoms: C_15  and  C_16
DOCKED: REMARK   10  A    between atoms: N_21  and  C_22
DOCKED: REMARK   11  A    between atoms: C_25  and  C_26
DOCKED: REMARK   12  A    between atoms: N_27  and  O_28
DOCKED: REMARK                            x       y       z     vdW  Elec       q    Type
DOCKED: REMARK                         _______ _______ _______ _____ _____    ______ ____
DOCKED: USER                              x       y       z     vdW  Elec       q    Type
DOCKED: USER                           _______ _______ _______ _____ _____    ______ ____
DOCKED: ROOT
DOCKED: ATOM      1  C   UNL     1      29.717 -14.901  -1.249 -0.10 -0.00    +0.000 C 
DOCKED: ENDROOT
DOCKED: BRANCH   1   2
DOCKED: ATOM      2  C   UNL     1      30.001 -16.013  -2.217 -0.13 -0.00    +0.000 A 
DOCKED: ATOM      3  C   UNL     1      30.479 -17.248  -1.753 -0.17 -0.00    +0.000 A 
DOCKED: ATOM      4  C   UNL     1      30.781 -18.274  -2.654 -0.12 -0.00    +0.000 A 
DOCKED: ATOM      5  C   UNL     1      30.622 -18.074  -4.031 -0.18 -0.00    +0.000 A 
DOCKED: ATOM      6  C   UNL     1      30.923 -19.097  -4.943 -0.25 -0.00    +0.000 A 
DOCKED: ATOM      7  C   UNL     1      30.766 -18.889  -6.322 -0.34 -0.00    +0.000 A 
DOCKED: ATOM      8  C   UNL     1      30.303 -17.648  -6.786 -0.22 -0.00    +0.000 A 
DOCKED: ATOM      9  C   UNL     1      30.002 -16.622  -5.887 -0.31 -0.00    +0.000 A 
DOCKED: ATOM     10  C   UNL     1      30.156 -16.824  -4.508 -0.23 -0.00    +0.000 A 
DOCKED: ATOM     11  C   UNL     1      29.855 -15.801  -3.597 -0.15 -0.00    +0.000 A 
DOCKED: BRANCH   7  12
DOCKED: ATOM     12  C   UNL     1      31.069 -19.990  -7.304 -0.37 -0.00    +0.000 C 
DOCKED: BRANCH  12  13
DOCKED: ATOM     13  N   UNL     1      31.671 -19.426  -8.532 -0.25 -0.00    +0.000 N 
DOCKED: ATOM     14  H   UNL     1      31.166 -18.572  -8.768 -0.02 -0.00    +0.000 HD
DOCKED: BRANCH  13  15
DOCKED: ATOM     15  C   UNL     1      31.487 -20.333  -9.690 -0.29 -0.00    +0.000 C 
DOCKED: ATOM     16  C   UNL     1      30.580 -19.717 -10.756 -0.44 -0.00    +0.000 C 
DOCKED: ENDBRANCH  13  15
DOCKED: BRANCH  13  17
DOCKED: ATOM     17  C   UNL     1      33.074 -18.992  -8.317 -0.10 -0.00    +0.000 C 
DOCKED: ATOM     18  C   UNL     1      33.289 -17.476  -8.417 -0.10 -0.00    +0.000 C 
DOCKED: ENDBRANCH  13  17
DOCKED: ENDBRANCH  12  13
DOCKED: ENDBRANCH   7  12
DOCKED: ENDBRANCH   1   2
DOCKED: BRANCH   1  19
DOCKED: ATOM     19  O   UNL     1      29.249 -15.455  -0.024 -0.21 -0.00    +0.000 OA
DOCKED: BRANCH  19  21
DOCKED: ATOM     20  O   UNL     1      27.268 -15.548   1.153 -0.20 -0.00    +0.000 OA
DOCKED: ATOM     21  C   UNL     1      27.939 -15.907   0.147 -0.27 -0.00    +0.000 C 
DOCKED: ATOM     22  N   UNL     1      27.385 -16.817  -0.813 -0.41 -0.00    +0.000 N 
DOCKED: ATOM     23  H   UNL     1      27.992 -17.195  -1.491 -0.02 -0.00    +0.000 HD
DOCKED: BRANCH  22  24
DOCKED: ATOM     24  C   UNL     1      26.004 -17.214  -0.853 -0.53 -0.00    +0.000 A 
DOCKED: ATOM     25  C   UNL     1      25.676 -18.572  -0.759 -0.43 -0.00    +0.000 A 
DOCKED: ATOM     26  C   UNL     1      24.343 -18.987  -0.818 -0.48 -0.00    +0.000 A 
DOCKED: ATOM     27  C   UNL     1      23.308 -18.050  -0.978 -0.72 -0.00    +0.000 A 
DOCKED: ATOM     28  C   UNL     1      23.641 -16.689  -1.108 -0.37 -0.00    +0.000 A 
DOCKED: ATOM     29  C   UNL     1      24.976 -16.276  -1.049 -0.46 -0.00    +0.000 A 
DOCKED: BRANCH  27  30
DOCKED: ATOM     30  C   UNL     1      21.897 -18.504  -1.042 -0.80 -0.00    +0.000 C 
DOCKED: ATOM     31  N   UNL     1      21.517 -19.653  -1.810 -0.40 -0.00    +0.000 N 
DOCKED: ATOM     32  O   UNL     1      21.009 -17.862  -0.419 -1.99 -0.00    +0.000 OA
DOCKED: ATOM     33  H   UNL     1      22.184 -20.111  -2.369 -0.59 -0.00    +0.000 HD
DOCKED: BRANCH  31  34
DOCKED: ATOM     34  O   UNL     1      20.242 -20.108  -1.771 -1.76 -0.00    +0.000 OA
DOCKED: ATOM     35  H   UNL     1      19.663 -19.420  -1.404 -0.15 -0.00    +0.000 HD
DOCKED: ENDBRANCH  31  34
DOCKED: ENDBRANCH  27  30
DOCKED: ENDBRANCH  22  24
DOCKED: ENDBRANCH  19  21
DOCKED: ENDBRANCH   1  19
DOCKED: TORSDOF 10
DOCKED: TER
DOCKED: ENDMDL
________________________________________________________________________________


	BEGINNING GENETIC ALGORITHM DOCKING 59 of 100
Run: 59 Seed: 271877774 1935025197 [ Run 59 of 100 GA/GALS ]
Beginning LAMARCKIAN GENETIC ALGORITHM (LGA), with a maximum of 2500000 energy evaluations.

Final-Value: -15.321


	FINAL GENETIC ALGORITHM DOCKED STATE
	_______________________________________________


Detailed state:  trans 29.193 -15.807 -1.576 quatxyzw -0.509510 -0.031695 -0.755326 -0.410947 center 1.857 0.216 -0.019 ntor 10 165.5747 -41.2020 15.5430 -7.2331 -57.7488 -39.1940 178.9932 12.8279 60.5081 114.7956
State:	 29.193 -15.807  -1.576  -0.559 -0.035 -0.829 -131.471    165.57  -41.20   15.54   -7.23  -57.75  -39.19  178.99   12.83   60.51  114.80

DOCKED: MODEL       59
DOCKED: USER    Run = 59
DOCKED: USER    DPF = ligand_dock.biased.dpf
DOCKED: USER  
DOCKED: USER    Estimated Free Energy of Binding    =  -10.21 kcal/mol  [=(1)+(2)+(3)-(4)]
DOCKED: USER    Estimated Inhibition Constant, Ki   =   32.75 nM (nanomolar)  [Temperature = 298.15 K]
DOCKED: USER    
DOCKED: USER    (1) Final Intermolecular Energy     =  -13.19 kcal/mol
DOCKED: USER        vdW + Hbond + desolv Energy     =  -13.19 kcal/mol
DOCKED: USER        Electrostatic Energy            =   +0.00 kcal/mol
DOCKED: USER    (2) Final Total Internal Energy     =   -2.13 kcal/mol
DOCKED: USER    (3) Torsional Free Energy           =   +2.98 kcal/mol
DOCKED: USER    (4) Unbound System's Energy  [=(2)] =   -2.13 kcal/mol
DOCKED: USER    
DOCKED: USER    
DOCKED: USER    NEWDPF move ligand.pdbqt
DOCKED: USER    NEWDPF about 1.857000 0.216000 -0.019000
DOCKED: USER    NEWDPF tran0 29.193193 -15.807359 -1.576148
DOCKED: USER    NEWDPF quaternion0 -0.509510 -0.031695 -0.755326 -0.410947
DOCKED: USER    NEWDPF axisangle0 -0.558882 -0.034766 -0.828518 -131.471326
DOCKED: USER    NEWDPF quat0 -0.558882 -0.034766 -0.828518 -131.471326
DOCKED: USER    NEWDPF dihe0 165.57 -41.20 15.54 -7.23 -57.75 -39.19 178.99 12.83 60.51 114.80 
DOCKED: USER  keepresnum = 1 
DOCKED: USER  
DOCKED: REMARK  Name = 
DOCKED: REMARK  12 active torsions:
DOCKED: REMARK  status: ('A' for Active; 'I' for Inactive)
DOCKED: REMARK    1  A    between atoms: C_2  and  O_3
DOCKED: REMARK    2  A    between atoms: O_3  and  C_4
DOCKED: REMARK    3  A    between atoms: C_4  and  C_5
DOCKED: REMARK    4  A    between atoms: C_10  and  C_11
DOCKED: REMARK    5  A    between atoms: C_11  and  N_12
DOCKED: REMARK    6  A    between atoms: N_12  and  C_13
DOCKED: REMARK    7  A    between atoms: N_12  and  C_15
DOCKED: REMARK    8  A    between atoms: C_13  and  C_14
DOCKED: REMARK    9  A    between atoms: C_15  and  C_16
DOCKED: REMARK   10  A    between atoms: N_21  and  C_22
DOCKED: REMARK   11  A    between atoms: C_25  and  C_26
DOCKED: REMARK   12  A    between atoms: N_27  and  O_28
DOCKED: REMARK                            x       y       z     vdW  Elec       q    Type
DOCKED: REMARK                         _______ _______ _______ _____ _____    ______ ____
DOCKED: USER                              x       y       z     vdW  Elec       q    Type
DOCKED: USER                           _______ _______ _______ _____ _____    ______ ____
DOCKED: ROOT
DOCKED: ATOM      1  C   UNL     1      29.910 -14.580  -0.738 -0.09 -0.00    +0.000 C 
DOCKED: ENDROOT
DOCKED: BRANCH   1   2
DOCKED: ATOM      2  C   UNL     1      29.651 -13.926  -2.065 -0.05 -0.00    +0.000 A 
DOCKED: ATOM      3  C   UNL     1      29.638 -12.527  -2.171 -0.03 -0.00    +0.000 A 
DOCKED: ATOM      4  C   UNL     1      29.359 -11.914  -3.396 -0.03 -0.00    +0.000 A 
DOCKED: ATOM      5  C   UNL     1      29.077 -12.692  -4.528 -0.08 -0.00    +0.000 A 
DOCKED: ATOM      6  C   UNL     1      28.795 -12.084  -5.761 -0.11 -0.00    +0.000 A 
DOCKED: ATOM      7  C   UNL     1      28.508 -12.869  -6.890 -0.23 -0.00    +0.000 A 
DOCKED: ATOM      8  C   UNL     1      28.505 -14.268  -6.778 -0.28 -0.00    +0.000 A 
DOCKED: ATOM      9  C   UNL     1      28.783 -14.881  -5.554 -0.32 -0.00    +0.000 A 
DOCKED: ATOM     10  C   UNL     1      29.071 -14.103  -4.423 -0.13 -0.00    +0.000 A 
DOCKED: ATOM     11  C   UNL     1      29.353 -14.710  -3.190 -0.11 -0.00    +0.000 A 
DOCKED: BRANCH   7  12
DOCKED: ATOM     12  C   UNL     1      28.224 -12.223  -8.221 -0.25 -0.00    +0.000 C 
DOCKED: BRANCH  12  13
DOCKED: ATOM     13  N   UNL     1      29.470 -11.668  -8.792 -0.15 -0.00    +0.000 N 
DOCKED: ATOM     14  H   UNL     1      30.253 -12.218  -8.438 -0.02 -0.00    +0.000 HD
DOCKED: BRANCH  13  15
DOCKED: ATOM     15  C   UNL     1      29.711 -10.283  -8.321 -0.06 -0.00    +0.000 C 
DOCKED: ATOM     16  C   UNL     1      28.406  -9.560  -7.987 -0.05 -0.00    +0.000 C 
DOCKED: ENDBRANCH  13  15
DOCKED: BRANCH  13  17
DOCKED: ATOM     17  C   UNL     1      29.528 -11.827 -10.266 -0.19 -0.00    +0.000 C 
DOCKED: ATOM     18  C   UNL     1      28.155 -11.926 -10.945 -0.36 -0.00    +0.000 C 
DOCKED: ENDBRANCH  13  17
DOCKED: ENDBRANCH  12  13
DOCKED: ENDBRANCH   7  12
DOCKED: ENDBRANCH   1   2
DOCKED: BRANCH   1  19
DOCKED: ATOM     19  O   UNL     1      29.246 -15.839  -0.698 -0.21 -0.00    +0.000 OA
DOCKED: BRANCH  19  21
DOCKED: ATOM     20  O   UNL     1      27.137 -14.962  -1.026 -0.28 -0.00    +0.000 OA
DOCKED: ATOM     21  C   UNL     1      27.854 -15.958  -0.733 -0.33 -0.00    +0.000 C 
DOCKED: ATOM     22  N   UNL     1      27.254 -17.215  -0.391 -0.46 -0.00    +0.000 N 
DOCKED: ATOM     23  H   UNL     1      27.837 -17.915  -0.017 -0.40 -0.00    +0.000 HD
DOCKED: BRANCH  22  24
DOCKED: ATOM     24  C   UNL     1      25.860 -17.521  -0.560 -0.57 -0.00    +0.000 A 
DOCKED: ATOM     25  C   UNL     1      25.148 -16.928  -1.612 -0.56 -0.00    +0.000 A 
DOCKED: ATOM     26  C   UNL     1      23.787 -17.190  -1.785 -0.26 -0.00    +0.000 A 
DOCKED: ATOM     27  C   UNL     1      23.105 -18.047  -0.904 -0.72 -0.00    +0.000 A 
DOCKED: ATOM     28  C   UNL     1      23.812 -18.613   0.173 -0.36 -0.00    +0.000 A 
DOCKED: ATOM     29  C   UNL     1      25.175 -18.350   0.344 -0.31 -0.00    +0.000 A 
DOCKED: BRANCH  27  30
DOCKED: ATOM     30  C   UNL     1      21.659 -18.314  -1.098 -0.70 -0.00    +0.000 C 
DOCKED: ATOM     31  N   UNL     1      21.199 -19.511  -1.738 -0.64 -0.00    +0.000 N 
DOCKED: ATOM     32  O   UNL     1      20.813 -17.465  -0.707 -2.06 +0.00    +0.000 OA
DOCKED: ATOM     33  H   UNL     1      21.849 -20.140  -2.125 -0.55 -0.00    +0.000 HD
DOCKED: BRANCH  31  34
DOCKED: ATOM     34  O   UNL     1      19.874 -19.779  -1.813 -1.86 -0.00    +0.000 OA
DOCKED: ATOM     35  H   UNL     1      19.369 -18.973  -1.616 -0.39 -0.00    +0.000 HD
DOCKED: ENDBRANCH  31  34
DOCKED: ENDBRANCH  27  30
DOCKED: ENDBRANCH  22  24
DOCKED: ENDBRANCH  19  21
DOCKED: ENDBRANCH   1  19
DOCKED: TORSDOF 10
DOCKED: TER
DOCKED: ENDMDL
________________________________________________________________________________


	BEGINNING GENETIC ALGORITHM DOCKING 60 of 100
Run: 60 Seed: 1311374035 361534572 [ Run 60 of 100 GA/GALS ]
Beginning LAMARCKIAN GENETIC ALGORITHM (LGA), with a maximum of 2500000 energy evaluations.

Final-Value: -14.485


	FINAL GENETIC ALGORITHM DOCKED STATE
	_______________________________________________


Detailed state:  trans 27.445 -15.381 -3.507 quatxyzw 0.335496 -0.501848 0.728210 -0.324500 center 1.857 0.216 -0.019 ntor 10 158.1352 -68.3473 -6.1585 -23.8733 63.8174 -51.8235 124.8085 -163.8573 -68.1636 -38.5976
State:	 27.445 -15.381  -3.507   0.355 -0.531  0.770 -142.129    158.14  -68.35   -6.16  -23.87   63.82  -51.82  124.81 -163.86  -68.16  -38.60

DOCKED: MODEL       60
DOCKED: USER    Run = 60
DOCKED: USER    DPF = ligand_dock.biased.dpf
DOCKED: USER  
DOCKED: USER    Estimated Free Energy of Binding    =   -9.65 kcal/mol  [=(1)+(2)+(3)-(4)]
DOCKED: USER    Estimated Inhibition Constant, Ki   =   84.58 nM (nanomolar)  [Temperature = 298.15 K]
DOCKED: USER    
DOCKED: USER    (1) Final Intermolecular Energy     =  -12.63 kcal/mol
DOCKED: USER        vdW + Hbond + desolv Energy     =  -12.63 kcal/mol
DOCKED: USER        Electrostatic Energy            =   +0.00 kcal/mol
DOCKED: USER    (2) Final Total Internal Energy     =   -1.85 kcal/mol
DOCKED: USER    (3) Torsional Free Energy           =   +2.98 kcal/mol
DOCKED: USER    (4) Unbound System's Energy  [=(2)] =   -1.85 kcal/mol
DOCKED: USER    
DOCKED: USER    
DOCKED: USER    NEWDPF move ligand.pdbqt
DOCKED: USER    NEWDPF about 1.857000 0.216000 -0.019000
DOCKED: USER    NEWDPF tran0 27.444842 -15.380754 -3.506697
DOCKED: USER    NEWDPF quaternion0 0.335496 -0.501848 0.728210 -0.324500
DOCKED: USER    NEWDPF axisangle0 0.354690 -0.530559 0.769872 -142.129383
DOCKED: USER    NEWDPF quat0 0.354690 -0.530559 0.769872 -142.129383
DOCKED: USER    NEWDPF dihe0 158.14 -68.35 -6.16 -23.87 63.82 -51.82 124.81 -163.86 -68.16 -38.60 
DOCKED: USER  keepresnum = 1 
DOCKED: USER  
DOCKED: REMARK  Name = 
DOCKED: REMARK  12 active torsions:
DOCKED: REMARK  status: ('A' for Active; 'I' for Inactive)
DOCKED: REMARK    1  A    between atoms: C_2  and  O_3
DOCKED: REMARK    2  A    between atoms: O_3  and  C_4
DOCKED: REMARK    3  A    between atoms: C_4  and  C_5
DOCKED: REMARK    4  A    between atoms: C_10  and  C_11
DOCKED: REMARK    5  A    between atoms: C_11  and  N_12
DOCKED: REMARK    6  A    between atoms: N_12  and  C_13
DOCKED: REMARK    7  A    between atoms: N_12  and  C_15
DOCKED: REMARK    8  A    between atoms: C_13  and  C_14
DOCKED: REMARK    9  A    between atoms: C_15  and  C_16
DOCKED: REMARK   10  A    between atoms: N_21  and  C_22
DOCKED: REMARK   11  A    between atoms: C_25  and  C_26
DOCKED: REMARK   12  A    between atoms: N_27  and  O_28
DOCKED: REMARK                            x       y       z     vdW  Elec       q    Type
DOCKED: REMARK                         _______ _______ _______ _____ _____    ______ ____
DOCKED: USER                              x       y       z     vdW  Elec       q    Type
DOCKED: USER                           _______ _______ _______ _____ _____    ______ ____
DOCKED: ROOT
DOCKED: ATOM      1  C   UNL     1      28.308 -16.645  -2.892 -0.15 -0.00    +0.000 C 
DOCKED: ENDROOT
DOCKED: BRANCH   1   2
DOCKED: ATOM      2  C   UNL     1      29.103 -16.309  -4.120 -0.23 -0.00    +0.000 A 
DOCKED: ATOM      3  C   UNL     1      29.174 -14.982  -4.573 -0.20 -0.00    +0.000 A 
DOCKED: ATOM      4  C   UNL     1      29.881 -14.670  -5.738 -0.20 -0.00    +0.000 A 
DOCKED: ATOM      5  C   UNL     1      30.516 -15.681  -6.472 -0.26 -0.00    +0.000 A 
DOCKED: ATOM      6  C   UNL     1      31.227 -15.376  -7.642 -0.21 -0.00    +0.000 A 
DOCKED: ATOM      7  C   UNL     1      31.856 -16.395  -8.376 -0.21 -0.00    +0.000 A 
DOCKED: ATOM      8  C   UNL     1      31.771 -17.723  -7.931 -0.24 -0.00    +0.000 A 
DOCKED: ATOM      9  C   UNL     1      31.063 -18.036  -6.768 -0.29 -0.00    +0.000 A 
DOCKED: ATOM     10  C   UNL     1      30.433 -17.023  -6.030 -0.30 -0.00    +0.000 A 
DOCKED: ATOM     11  C   UNL     1      29.722 -17.328  -4.860 -0.20 -0.00    +0.000 A 
DOCKED: BRANCH   7  12
DOCKED: ATOM     12  C   UNL     1      32.638 -16.071  -9.623 -0.20 -0.00    +0.000 C 
DOCKED: BRANCH  12  13
DOCKED: ATOM     13  N   UNL     1      33.743 -15.142  -9.303 -0.08 -0.00    +0.000 N 
DOCKED: ATOM     14  H   UNL     1      33.829 -15.090  -8.287 +0.00 -0.00    +0.000 HD
DOCKED: BRANCH  13  15
DOCKED: ATOM     15  C   UNL     1      33.435 -13.762  -9.748 -0.11 -0.00    +0.000 C 
DOCKED: ATOM     16  C   UNL     1      32.644 -13.749 -11.056 -0.16 -0.00    +0.000 C 
DOCKED: ENDBRANCH  13  15
DOCKED: BRANCH  13  17
DOCKED: ATOM     17  C   UNL     1      35.055 -15.654  -9.770 -0.04 -0.00    +0.000 C 
DOCKED: ATOM     18  C   UNL     1      34.993 -17.033 -10.440 -0.04 -0.00    +0.000 C 
DOCKED: ENDBRANCH  13  17
DOCKED: ENDBRANCH  12  13
DOCKED: ENDBRANCH   7  12
DOCKED: ENDBRANCH   1   2
DOCKED: BRANCH   1  19
DOCKED: ATOM     19  O   UNL     1      27.336 -15.629  -2.669 -0.32 -0.00    +0.000 OA
DOCKED: BRANCH  19  21
DOCKED: ATOM     20  O   UNL     1      25.138 -15.035  -2.300 -0.47 -0.00    +0.000 OA
DOCKED: ATOM     21  C   UNL     1      26.045 -15.907  -2.214 -0.50 -0.00    +0.000 C 
DOCKED: ATOM     22  N   UNL     1      25.778 -17.182  -1.612 -0.53 -0.00    +0.000 N 
DOCKED: ATOM     23  H   UNL     1      26.545 -17.768  -1.421 -0.04 -0.00    +0.000 HD
DOCKED: BRANCH  22  24
DOCKED: ATOM     24  C   UNL     1      24.466 -17.659  -1.271 -0.65 -0.00    +0.000 A 
DOCKED: ATOM     25  C   UNL     1      23.430 -16.736  -1.068 -0.40 -0.00    +0.000 A 
DOCKED: ATOM     26  C   UNL     1      22.151 -17.171  -0.713 -0.60 -0.00    +0.000 A 
DOCKED: ATOM     27  C   UNL     1      21.881 -18.541  -0.546 -0.76 -0.00    +0.000 A 
DOCKED: ATOM     28  C   UNL     1      22.930 -19.463  -0.715 -0.55 -0.00    +0.000 A 
DOCKED: ATOM     29  C   UNL     1      24.210 -19.026  -1.070 -0.45 -0.00    +0.000 A 
DOCKED: BRANCH  27  30
DOCKED: ATOM     30  C   UNL     1      20.519 -18.987  -0.166 -0.72 -0.00    +0.000 C 
DOCKED: ATOM     31  N   UNL     1      20.316 -20.031   0.795 -0.68 -0.00    +0.000 N 
DOCKED: ATOM     32  O   UNL     1      19.515 -18.450  -0.707 -1.48 -0.00    +0.000 OA
DOCKED: ATOM     33  H   UNL     1      21.089 -20.518   1.161 -0.57 -0.00    +0.000 HD
DOCKED: BRANCH  31  34
DOCKED: ATOM     34  O   UNL     1      19.064 -20.351   1.201 -0.76 -0.00    +0.000 OA
DOCKED: ATOM     35  H   UNL     1      18.430 -19.720   0.824 -0.03 -0.00    +0.000 HD
DOCKED: ENDBRANCH  31  34
DOCKED: ENDBRANCH  27  30
DOCKED: ENDBRANCH  22  24
DOCKED: ENDBRANCH  19  21
DOCKED: ENDBRANCH   1  19
DOCKED: TORSDOF 10
DOCKED: TER
DOCKED: ENDMDL
________________________________________________________________________________


	BEGINNING GENETIC ALGORITHM DOCKING 61 of 100
Run: 61 Seed: 414018268 1130255665 [ Run 61 of 100 GA/GALS ]
Beginning LAMARCKIAN GENETIC ALGORITHM (LGA), with a maximum of 2500000 energy evaluations.

Final-Value: -15.464


	FINAL GENETIC ALGORITHM DOCKED STATE
	_______________________________________________


Detailed state:  trans 29.953 -15.820 -3.352 quatxyzw 0.492380 0.782993 0.324319 -0.198244 center 1.857 0.216 -0.019 ntor 10 107.0273 130.0764 -170.6614 21.3422 -180.0000 16.4778 103.9882 -49.3222 -152.9199 117.8667
State:	 29.953 -15.820  -3.352   0.502  0.799  0.331 -157.131    107.03  130.08 -170.66   21.34 -180.00   16.48  103.99  -49.32 -152.92  117.87

DOCKED: MODEL       61
DOCKED: USER    Run = 61
DOCKED: USER    DPF = ligand_dock.biased.dpf
DOCKED: USER  
DOCKED: USER    Estimated Free Energy of Binding    =  -10.71 kcal/mol  [=(1)+(2)+(3)-(4)]
DOCKED: USER    Estimated Inhibition Constant, Ki   =   14.07 nM (nanomolar)  [Temperature = 298.15 K]
DOCKED: USER    
DOCKED: USER    (1) Final Intermolecular Energy     =  -13.69 kcal/mol
DOCKED: USER        vdW + Hbond + desolv Energy     =  -13.69 kcal/mol
DOCKED: USER        Electrostatic Energy            =   +0.00 kcal/mol
DOCKED: USER    (2) Final Total Internal Energy     =   -1.77 kcal/mol
DOCKED: USER    (3) Torsional Free Energy           =   +2.98 kcal/mol
DOCKED: USER    (4) Unbound System's Energy  [=(2)] =   -1.77 kcal/mol
DOCKED: USER    
DOCKED: USER    
DOCKED: USER    NEWDPF move ligand.pdbqt
DOCKED: USER    NEWDPF about 1.857000 0.216000 -0.019000
DOCKED: USER    NEWDPF tran0 29.952502 -15.819626 -3.352425
DOCKED: USER    NEWDPF quaternion0 0.492380 0.782993 0.324319 -0.198244
DOCKED: USER    NEWDPF axisangle0 0.502350 0.798848 0.330887 -157.131426
DOCKED: USER    NEWDPF quat0 0.502350 0.798848 0.330887 -157.131426
DOCKED: USER    NEWDPF dihe0 107.03 130.08 -170.66 21.34 -180.00 16.48 103.99 -49.32 -152.92 117.87 
DOCKED: USER  keepresnum = 1 
DOCKED: USER  
DOCKED: REMARK  Name = 
DOCKED: REMARK  12 active torsions:
DOCKED: REMARK  status: ('A' for Active; 'I' for Inactive)
DOCKED: REMARK    1  A    between atoms: C_2  and  O_3
DOCKED: REMARK    2  A    between atoms: O_3  and  C_4
DOCKED: REMARK    3  A    between atoms: C_4  and  C_5
DOCKED: REMARK    4  A    between atoms: C_10  and  C_11
DOCKED: REMARK    5  A    between atoms: C_11  and  N_12
DOCKED: REMARK    6  A    between atoms: N_12  and  C_13
DOCKED: REMARK    7  A    between atoms: N_12  and  C_15
DOCKED: REMARK    8  A    between atoms: C_13  and  C_14
DOCKED: REMARK    9  A    between atoms: C_15  and  C_16
DOCKED: REMARK   10  A    between atoms: N_21  and  C_22
DOCKED: REMARK   11  A    between atoms: C_25  and  C_26
DOCKED: REMARK   12  A    between atoms: N_27  and  O_28
DOCKED: REMARK                            x       y       z     vdW  Elec       q    Type
DOCKED: REMARK                         _______ _______ _______ _____ _____    ______ ____
DOCKED: USER                              x       y       z     vdW  Elec       q    Type
DOCKED: USER                           _______ _______ _______ _____ _____    ______ ____
DOCKED: ROOT
DOCKED: ATOM      1  C   UNL     1      30.551 -15.690  -4.884 -0.17 -0.00    +0.000 C 
DOCKED: ENDROOT
DOCKED: BRANCH   1   2
DOCKED: ATOM      2  C   UNL     1      30.764 -17.149  -4.602 -0.20 -0.00    +0.000 A 
DOCKED: ATOM      3  C   UNL     1      31.444 -17.551  -3.442 -0.12 -0.00    +0.000 A 
DOCKED: ATOM      4  C   UNL     1      31.678 -18.906  -3.193 -0.13 -0.00    +0.000 A 
DOCKED: ATOM      5  C   UNL     1      31.247 -19.877  -4.108 -0.17 -0.00    +0.000 A 
DOCKED: ATOM      6  C   UNL     1      31.478 -21.240  -3.867 -0.17 -0.00    +0.000 A 
DOCKED: ATOM      7  C   UNL     1      31.048 -22.207  -4.790 -0.25 -0.00    +0.000 A 
DOCKED: ATOM      8  C   UNL     1      30.382 -21.802  -5.957 -0.20 -0.00    +0.000 A 
DOCKED: ATOM      9  C   UNL     1      30.149 -20.448  -6.206 -0.41 -0.00    +0.000 A 
DOCKED: ATOM     10  C   UNL     1      30.575 -19.477  -5.288 -0.31 -0.00    +0.000 A 
DOCKED: ATOM     11  C   UNL     1      30.344 -18.115  -5.529 -0.31 -0.00    +0.000 A 
DOCKED: BRANCH   7  12
DOCKED: ATOM     12  C   UNL     1      31.276 -23.673  -4.527 -0.19 -0.00    +0.000 C 
DOCKED: BRANCH  12  13
DOCKED: ATOM     13  N   UNL     1      30.006 -24.418  -4.665 -0.27 -0.00    +0.000 N 
DOCKED: ATOM     14  H   UNL     1      29.634 -24.238  -5.598 -0.48 -0.00    +0.000 HD
DOCKED: BRANCH  13  15
DOCKED: ATOM     15  C   UNL     1      28.979 -23.914  -3.722 -0.34 -0.00    +0.000 C 
DOCKED: ATOM     16  C   UNL     1      29.076 -24.595  -2.357 -0.40 -0.00    +0.000 C 
DOCKED: ENDBRANCH  13  15
DOCKED: BRANCH  13  17
DOCKED: ATOM     17  C   UNL     1      30.212 -25.887  -4.613 -0.20 -0.00    +0.000 C 
DOCKED: ATOM     18  C   UNL     1      29.032 -26.709  -5.146 -0.32 -0.00    +0.000 C 
DOCKED: ENDBRANCH  13  17
DOCKED: ENDBRANCH  12  13
DOCKED: ENDBRANCH   7  12
DOCKED: ENDBRANCH   1   2
DOCKED: BRANCH   1  19
DOCKED: ATOM     19  O   UNL     1      29.749 -15.124  -3.853 -0.14 -0.00    +0.000 OA
DOCKED: BRANCH  19  21
DOCKED: ATOM     20  O   UNL     1      27.605 -15.630  -4.537 -0.55 -0.00    +0.000 OA
DOCKED: ATOM     21  C   UNL     1      28.442 -15.547  -3.598 -0.28 -0.00    +0.000 C 
DOCKED: ATOM     22  N   UNL     1      28.057 -15.842  -2.248 -0.25 -0.00    +0.000 N 
DOCKED: ATOM     23  H   UNL     1      28.689 -15.613  -1.529 +0.00 -0.00    +0.000 HD
DOCKED: BRANCH  22  24
DOCKED: ATOM     24  C   UNL     1      26.810 -16.453  -1.875 -0.38 -0.00    +0.000 A 
DOCKED: ATOM     25  C   UNL     1      25.624 -16.018  -2.482 -0.49 -0.00    +0.000 A 
DOCKED: ATOM     26  C   UNL     1      24.395 -16.578  -2.123 -0.21 -0.00    +0.000 A 
DOCKED: ATOM     27  C   UNL     1      24.326 -17.582  -1.141 -0.66 -0.00    +0.000 A 
DOCKED: ATOM     28  C   UNL     1      25.513 -17.992  -0.507 -0.61 -0.00    +0.000 A 
DOCKED: ATOM     29  C   UNL     1      26.742 -17.430  -0.869 -0.48 -0.00    +0.000 A 
DOCKED: BRANCH  27  30
DOCKED: ATOM     30  C   UNL     1      23.014 -18.165  -0.767 -0.83 -0.00    +0.000 C 
DOCKED: ATOM     31  N   UNL     1      21.790 -17.456  -0.993 -0.62 -0.00    +0.000 N 
DOCKED: ATOM     32  O   UNL     1      22.972 -19.303  -0.225 -0.73 -0.00    +0.000 OA
DOCKED: ATOM     33  H   UNL     1      21.814 -16.533  -1.335 -0.03 -0.00    +0.000 HD
DOCKED: BRANCH  31  34
DOCKED: ATOM     34  O   UNL     1      20.600 -18.050  -0.737 -2.27 -0.00    +0.000 OA
DOCKED: ATOM     35  H   UNL     1      19.881 -17.495  -1.079 -0.54 -0.00    +0.000 HD
DOCKED: ENDBRANCH  31  34
DOCKED: ENDBRANCH  27  30
DOCKED: ENDBRANCH  22  24
DOCKED: ENDBRANCH  19  21
DOCKED: ENDBRANCH   1  19
DOCKED: TORSDOF 10
DOCKED: TER
DOCKED: ENDMDL
________________________________________________________________________________


	BEGINNING GENETIC ALGORITHM DOCKING 62 of 100
Run: 62 Seed: 333804295 182008004 [ Run 62 of 100 GA/GALS ]
Beginning LAMARCKIAN GENETIC ALGORITHM (LGA), with a maximum of 2500000 energy evaluations.

Final-Value: -16.341


	FINAL GENETIC ALGORITHM DOCKED STATE
	_______________________________________________


Detailed state:  trans 27.314 -15.825 -1.975 quatxyzw -0.697877 0.389552 -0.588036 0.124222 center 1.857 0.216 -0.019 ntor 10 -7.5885 -150.6851 8.6065 -41.1778 -45.7825 -53.2985 -136.9260 -20.2655 137.3457 -113.6007
State:	 27.314 -15.825  -1.975  -0.703  0.393 -0.593 165.728     -7.59 -150.69    8.61  -41.18  -45.78  -53.30 -136.93  -20.27  137.35 -113.60

DOCKED: MODEL       62
DOCKED: USER    Run = 62
DOCKED: USER    DPF = ligand_dock.biased.dpf
DOCKED: USER  
DOCKED: USER    Estimated Free Energy of Binding    =  -11.14 kcal/mol  [=(1)+(2)+(3)-(4)]
DOCKED: USER    Estimated Inhibition Constant, Ki   =    6.79 nM (nanomolar)  [Temperature = 298.15 K]
DOCKED: USER    
DOCKED: USER    (1) Final Intermolecular Energy     =  -14.13 kcal/mol
DOCKED: USER        vdW + Hbond + desolv Energy     =  -14.13 kcal/mol
DOCKED: USER        Electrostatic Energy            =   +0.00 kcal/mol
DOCKED: USER    (2) Final Total Internal Energy     =   -2.21 kcal/mol
DOCKED: USER    (3) Torsional Free Energy           =   +2.98 kcal/mol
DOCKED: USER    (4) Unbound System's Energy  [=(2)] =   -2.21 kcal/mol
DOCKED: USER    
DOCKED: USER    
DOCKED: USER    NEWDPF move ligand.pdbqt
DOCKED: USER    NEWDPF about 1.857000 0.216000 -0.019000
DOCKED: USER    NEWDPF tran0 27.314048 -15.824568 -1.975287
DOCKED: USER    NEWDPF quaternion0 -0.697877 0.389552 -0.588036 0.124222
DOCKED: USER    NEWDPF axisangle0 -0.703325 0.392593 -0.592626 165.728385
DOCKED: USER    NEWDPF quat0 -0.703325 0.392593 -0.592626 165.728385
DOCKED: USER    NEWDPF dihe0 -7.59 -150.69 8.61 -41.18 -45.78 -53.30 -136.93 -20.27 137.35 -113.60 
DOCKED: USER  keepresnum = 1 
DOCKED: USER  
DOCKED: REMARK  Name = 
DOCKED: REMARK  12 active torsions:
DOCKED: REMARK  status: ('A' for Active; 'I' for Inactive)
DOCKED: REMARK    1  A    between atoms: C_2  and  O_3
DOCKED: REMARK    2  A    between atoms: O_3  and  C_4
DOCKED: REMARK    3  A    between atoms: C_4  and  C_5
DOCKED: REMARK    4  A    between atoms: C_10  and  C_11
DOCKED: REMARK    5  A    between atoms: C_11  and  N_12
DOCKED: REMARK    6  A    between atoms: N_12  and  C_13
DOCKED: REMARK    7  A    between atoms: N_12  and  C_15
DOCKED: REMARK    8  A    between atoms: C_13  and  C_14
DOCKED: REMARK    9  A    between atoms: C_15  and  C_16
DOCKED: REMARK   10  A    between atoms: N_21  and  C_22
DOCKED: REMARK   11  A    between atoms: C_25  and  C_26
DOCKED: REMARK   12  A    between atoms: N_27  and  O_28
DOCKED: REMARK                            x       y       z     vdW  Elec       q    Type
DOCKED: REMARK                         _______ _______ _______ _____ _____    ______ ____
DOCKED: USER                              x       y       z     vdW  Elec       q    Type
DOCKED: USER                           _______ _______ _______ _____ _____    ______ ____
DOCKED: ROOT
DOCKED: ATOM      1  C   UNL     1      28.855 -16.279  -2.353 -0.25 -0.00    +0.000 C 
DOCKED: ENDROOT
DOCKED: BRANCH   1   2
DOCKED: ATOM      2  C   UNL     1      28.544 -15.318  -3.464 -0.21 -0.00    +0.000 A 
DOCKED: ATOM      3  C   UNL     1      28.625 -15.736  -4.801 -0.30 -0.00    +0.000 A 
DOCKED: ATOM      4  C   UNL     1      28.373 -14.835  -5.840 -0.36 -0.00    +0.000 A 
DOCKED: ATOM      5  C   UNL     1      28.052 -13.501  -5.555 -0.24 -0.00    +0.000 A 
DOCKED: ATOM      6  C   UNL     1      27.799 -12.589  -6.592 -0.15 -0.00    +0.000 A 
DOCKED: ATOM      7  C   UNL     1      27.483 -11.253  -6.301 -0.14 -0.00    +0.000 A 
DOCKED: ATOM      8  C   UNL     1      27.418 -10.832  -4.963 -0.11 -0.00    +0.000 A 
DOCKED: ATOM      9  C   UNL     1      27.670 -11.732  -3.925 -0.12 -0.00    +0.000 A 
DOCKED: ATOM     10  C   UNL     1      27.986 -13.068  -4.209 -0.16 -0.00    +0.000 A 
DOCKED: ATOM     11  C   UNL     1      28.238 -13.979  -3.173 -0.14 -0.00    +0.000 A 
DOCKED: BRANCH   7  12
DOCKED: ATOM     12  C   UNL     1      27.191 -10.274  -7.409 -0.14 -0.00    +0.000 C 
DOCKED: BRANCH  12  13
DOCKED: ATOM     13  N   UNL     1      26.057 -10.756  -8.226 -0.25 -0.00    +0.000 N 
DOCKED: ATOM     14  H   UNL     1      25.807 -11.691  -7.902 +0.00 -0.00    +0.000 HD
DOCKED: BRANCH  13  15
DOCKED: ATOM     15  C   UNL     1      26.446 -10.918  -9.648 -0.31 -0.00    +0.000 C 
DOCKED: ATOM     16  C   UNL     1      25.510 -11.874 -10.389 -0.44 -0.00    +0.000 C 
DOCKED: ENDBRANCH  13  15
DOCKED: BRANCH  13  17
DOCKED: ATOM     17  C   UNL     1      24.834  -9.941  -8.020 -0.32 -0.00    +0.000 C 
DOCKED: ATOM     18  C   UNL     1      23.998 -10.353  -6.800 -0.48 -0.00    +0.000 C 
DOCKED: ENDBRANCH  13  17
DOCKED: ENDBRANCH  12  13
DOCKED: ENDBRANCH   7  12
DOCKED: ENDBRANCH   1   2
DOCKED: BRANCH   1  19
DOCKED: ATOM     19  O   UNL     1      27.827 -16.208  -1.370 -0.32 -0.00    +0.000 OA
DOCKED: BRANCH  19  21
DOCKED: ATOM     20  O   UNL     1      26.086 -16.692  -2.805 -0.46 -0.00    +0.000 OA
DOCKED: ATOM     21  C   UNL     1      26.515 -16.618  -1.621 -0.48 -0.00    +0.000 C 
DOCKED: ATOM     22  N   UNL     1      25.654 -16.912  -0.512 -0.51 -0.00    +0.000 N 
DOCKED: ATOM     23  H   UNL     1      25.976 -16.689   0.391 -0.02 -0.00    +0.000 HD
DOCKED: BRANCH  22  24
DOCKED: ATOM     24  C   UNL     1      24.352 -17.511  -0.632 -0.64 -0.00    +0.000 A 
DOCKED: ATOM     25  C   UNL     1      24.249 -18.882  -0.902 -0.55 -0.00    +0.000 A 
DOCKED: ATOM     26  C   UNL     1      22.996 -19.485  -1.046 -0.51 -0.00    +0.000 A 
DOCKED: ATOM     27  C   UNL     1      21.819 -18.726  -0.931 -0.74 -0.00    +0.000 A 
DOCKED: ATOM     28  C   UNL     1      21.925 -17.342  -0.696 -0.62 -0.00    +0.000 A 
DOCKED: ATOM     29  C   UNL     1      23.179 -16.741  -0.552 -0.32 -0.00    +0.000 A 
DOCKED: BRANCH  27  30
DOCKED: ATOM     30  C   UNL     1      20.497 -19.379  -1.090 -0.90 -0.00    +0.000 C 
DOCKED: ATOM     31  N   UNL     1      19.598 -19.525   0.016 -0.76 -0.00    +0.000 N 
DOCKED: ATOM     32  O   UNL     1      20.158 -19.828  -2.219 -1.86 -0.00    +0.000 OA
DOCKED: ATOM     33  H   UNL     1      19.884 -19.257   0.919 -0.10 -0.00    +0.000 HD
DOCKED: BRANCH  31  34
DOCKED: ATOM     34  O   UNL     1      18.357 -20.032  -0.175 -0.83 -0.00    +0.000 OA
DOCKED: ATOM     35  H   UNL     1      18.281 -20.369  -1.082 -0.39 -0.00    +0.000 HD
DOCKED: ENDBRANCH  31  34
DOCKED: ENDBRANCH  27  30
DOCKED: ENDBRANCH  22  24
DOCKED: ENDBRANCH  19  21
DOCKED: ENDBRANCH   1  19
DOCKED: TORSDOF 10
DOCKED: TER
DOCKED: ENDMDL
________________________________________________________________________________


	BEGINNING GENETIC ALGORITHM DOCKING 63 of 100
Run: 63 Seed: 25441532 573532865 [ Run 63 of 100 GA/GALS ]
Beginning LAMARCKIAN GENETIC ALGORITHM (LGA), with a maximum of 2500000 energy evaluations.

Final-Value: -16.263


	FINAL GENETIC ALGORITHM DOCKED STATE
	_______________________________________________


Detailed state:  trans 29.833 -15.859 0.237 quatxyzw -0.316077 -0.919421 -0.120305 0.200715 center 1.857 0.216 -0.019 ntor 10 152.0455 -82.4465 7.4951 10.6045 -57.3668 35.3551 -178.4894 -122.0991 55.5394 72.1567
State:	 29.833 -15.859   0.237  -0.323 -0.939 -0.123 156.842    152.05  -82.45    7.50   10.60  -57.37   35.36 -178.49 -122.10   55.54   72.16

DOCKED: MODEL       63
DOCKED: USER    Run = 63
DOCKED: USER    DPF = ligand_dock.biased.dpf
DOCKED: USER  
DOCKED: USER    Estimated Free Energy of Binding    =  -11.14 kcal/mol  [=(1)+(2)+(3)-(4)]
DOCKED: USER    Estimated Inhibition Constant, Ki   =    6.85 nM (nanomolar)  [Temperature = 298.15 K]
DOCKED: USER    
DOCKED: USER    (1) Final Intermolecular Energy     =  -14.12 kcal/mol
DOCKED: USER        vdW + Hbond + desolv Energy     =  -14.12 kcal/mol
DOCKED: USER        Electrostatic Energy            =   +0.00 kcal/mol
DOCKED: USER    (2) Final Total Internal Energy     =   -2.14 kcal/mol
DOCKED: USER    (3) Torsional Free Energy           =   +2.98 kcal/mol
DOCKED: USER    (4) Unbound System's Energy  [=(2)] =   -2.14 kcal/mol
DOCKED: USER    
DOCKED: USER    
DOCKED: USER    NEWDPF move ligand.pdbqt
DOCKED: USER    NEWDPF about 1.857000 0.216000 -0.019000
DOCKED: USER    NEWDPF tran0 29.832864 -15.859323 0.236856
DOCKED: USER    NEWDPF quaternion0 -0.316077 -0.919421 -0.120305 0.200715
DOCKED: USER    NEWDPF axisangle0 -0.322643 -0.938520 -0.122804 156.842407
DOCKED: USER    NEWDPF quat0 -0.322643 -0.938520 -0.122804 156.842407
DOCKED: USER    NEWDPF dihe0 152.05 -82.45 7.50 10.60 -57.37 35.36 -178.49 -122.10 55.54 72.16 
DOCKED: USER  keepresnum = 1 
DOCKED: USER  
DOCKED: REMARK  Name = 
DOCKED: REMARK  12 active torsions:
DOCKED: REMARK  status: ('A' for Active; 'I' for Inactive)
DOCKED: REMARK    1  A    between atoms: C_2  and  O_3
DOCKED: REMARK    2  A    between atoms: O_3  and  C_4
DOCKED: REMARK    3  A    between atoms: C_4  and  C_5
DOCKED: REMARK    4  A    between atoms: C_10  and  C_11
DOCKED: REMARK    5  A    between atoms: C_11  and  N_12
DOCKED: REMARK    6  A    between atoms: N_12  and  C_13
DOCKED: REMARK    7  A    between atoms: N_12  and  C_15
DOCKED: REMARK    8  A    between atoms: C_13  and  C_14
DOCKED: REMARK    9  A    between atoms: C_15  and  C_16
DOCKED: REMARK   10  A    between atoms: N_21  and  C_22
DOCKED: REMARK   11  A    between atoms: C_25  and  C_26
DOCKED: REMARK   12  A    between atoms: N_27  and  O_28
DOCKED: REMARK                            x       y       z     vdW  Elec       q    Type
DOCKED: REMARK                         _______ _______ _______ _____ _____    ______ ____
DOCKED: USER                              x       y       z     vdW  Elec       q    Type
DOCKED: USER                           _______ _______ _______ _____ _____    ______ ____
DOCKED: ROOT
DOCKED: ATOM      1  C   UNL     1      30.269 -16.320  -1.286 -0.16 -0.00    +0.000 C 
DOCKED: ENDROOT
DOCKED: BRANCH   1   2
DOCKED: ATOM      2  C   UNL     1      30.988 -17.337  -0.447 -0.15 -0.00    +0.000 A 
DOCKED: ATOM      3  C   UNL     1      31.336 -18.582  -0.992 -0.16 -0.00    +0.000 A 
DOCKED: ATOM      4  C   UNL     1      31.972 -19.546  -0.204 -0.13 -0.00    +0.000 A 
DOCKED: ATOM      5  C   UNL     1      32.255 -19.283   1.143 -0.14 -0.00    +0.000 A 
DOCKED: ATOM      6  C   UNL     1      32.892 -20.245   1.942 -0.15 -0.00    +0.000 A 
DOCKED: ATOM      7  C   UNL     1      33.169 -19.976   3.292 -0.23 -0.00    +0.000 A 
DOCKED: ATOM      8  C   UNL     1      32.806 -18.736   3.840 -0.33 -0.00    +0.000 A 
DOCKED: ATOM      9  C   UNL     1      32.170 -17.773   3.053 -0.25 -0.00    +0.000 A 
DOCKED: ATOM     10  C   UNL     1      31.891 -18.035   1.704 -0.11 -0.00    +0.000 A 
DOCKED: ATOM     11  C   UNL     1      31.255 -17.073   0.905 +0.02 -0.00    +0.000 A 
DOCKED: BRANCH   7  12
DOCKED: ATOM     12  C   UNL     1      33.870 -20.998   4.149 -0.26 -0.00    +0.000 C 
DOCKED: BRANCH  12  13
DOCKED: ATOM     13  N   UNL     1      34.726 -20.322   5.148 -0.25 -0.00    +0.000 N 
DOCKED: ATOM     14  H   UNL     1      34.185 -19.565   5.567 -0.32 -0.00    +0.000 HD
DOCKED: BRANCH  13  15
DOCKED: ATOM     15  C   UNL     1      35.893 -19.671   4.508 -0.13 -0.00    +0.000 C 
DOCKED: ATOM     16  C   UNL     1      36.511 -20.551   3.422 -0.04 -0.00    +0.000 C 
DOCKED: ENDBRANCH  13  15
DOCKED: BRANCH  13  17
DOCKED: ATOM     17  C   UNL     1      35.073 -21.215   6.281 -0.31 -0.00    +0.000 C 
DOCKED: ATOM     18  C   UNL     1      34.199 -22.473   6.385 -0.47 -0.00    +0.000 C 
DOCKED: ENDBRANCH  13  17
DOCKED: ENDBRANCH  12  13
DOCKED: ENDBRANCH   7  12
DOCKED: ENDBRANCH   1   2
DOCKED: BRANCH   1  19
DOCKED: ATOM     19  O   UNL     1      29.376 -15.579  -0.462 -0.19 -0.00    +0.000 OA
DOCKED: BRANCH  19  21
DOCKED: ATOM     20  O   UNL     1      27.243 -14.752  -0.758 -0.27 -0.00    +0.000 OA
DOCKED: ATOM     21  C   UNL     1      27.989 -15.741  -0.518 -0.30 -0.00    +0.000 C 
DOCKED: ATOM     22  N   UNL     1      27.427 -17.035  -0.258 -0.42 -0.00    +0.000 N 
DOCKED: ATOM     23  H   UNL     1      28.029 -17.737   0.080 -0.43 -0.00    +0.000 HD
DOCKED: BRANCH  22  24
DOCKED: ATOM     24  C   UNL     1      26.045 -17.374  -0.459 -0.54 -0.00    +0.000 A 
DOCKED: ATOM     25  C   UNL     1      25.338 -16.781  -1.513 -0.54 -0.00    +0.000 A 
DOCKED: ATOM     26  C   UNL     1      23.987 -17.076  -1.717 -0.44 -0.00    +0.000 A 
DOCKED: ATOM     27  C   UNL     1      23.312 -17.966  -0.864 -0.72 -0.00    +0.000 A 
DOCKED: ATOM     28  C   UNL     1      24.014 -18.532   0.216 -0.33 -0.00    +0.000 A 
DOCKED: ATOM     29  C   UNL     1      25.365 -18.236   0.418 -0.40 -0.00    +0.000 A 
DOCKED: BRANCH  27  30
DOCKED: ATOM     30  C   UNL     1      21.877 -18.266  -1.091 -0.73 -0.00    +0.000 C 
DOCKED: ATOM     31  N   UNL     1      21.461 -19.467  -1.752 -0.58 -0.00    +0.000 N 
DOCKED: ATOM     32  O   UNL     1      21.002 -17.444  -0.707 -2.04 -0.00    +0.000 OA
DOCKED: ATOM     33  H   UNL     1      22.135 -20.076  -2.133 -0.55 -0.00    +0.000 HD
DOCKED: BRANCH  31  34
DOCKED: ATOM     34  O   UNL     1      20.145 -19.768  -1.857 -1.85 -0.00    +0.000 OA
DOCKED: ATOM     35  H   UNL     1      19.615 -19.019  -1.540 -0.22 -0.00    +0.000 HD
DOCKED: ENDBRANCH  31  34
DOCKED: ENDBRANCH  27  30
DOCKED: ENDBRANCH  22  24
DOCKED: ENDBRANCH  19  21
DOCKED: ENDBRANCH   1  19
DOCKED: TORSDOF 10
DOCKED: TER
DOCKED: ENDMDL
________________________________________________________________________________


	BEGINNING GENETIC ALGORITHM DOCKING 64 of 100
Run: 64 Seed: 2127858595 1540906489 [ Run 64 of 100 GA/GALS ]
Beginning LAMARCKIAN GENETIC ALGORITHM (LGA), with a maximum of 2500000 energy evaluations.

Final-Value: -15.280


	FINAL GENETIC ALGORITHM DOCKED STATE
	_______________________________________________


Detailed state:  trans 29.799 -17.396 -0.796 quatxyzw 0.576260 0.352367 0.708290 0.205153 center 1.857 0.216 -0.019 ntor 10 -154.2189 -147.1116 16.0203 179.4302 -8.8665 -2.3265 -26.2711 115.1731 21.5659 135.3020
State:	 29.799 -17.396  -0.796   0.589  0.360  0.724 156.323   -154.22 -147.11   16.02  179.43   -8.87   -2.33  -26.27  115.17   21.57  135.30

DOCKED: MODEL       64
DOCKED: USER    Run = 64
DOCKED: USER    DPF = ligand_dock.biased.dpf
DOCKED: USER  
DOCKED: USER    Estimated Free Energy of Binding    =   -9.95 kcal/mol  [=(1)+(2)+(3)-(4)]
DOCKED: USER    Estimated Inhibition Constant, Ki   =   50.53 nM (nanomolar)  [Temperature = 298.15 K]
DOCKED: USER    
DOCKED: USER    (1) Final Intermolecular Energy     =  -12.94 kcal/mol
DOCKED: USER        vdW + Hbond + desolv Energy     =  -12.94 kcal/mol
DOCKED: USER        Electrostatic Energy            =   +0.00 kcal/mol
DOCKED: USER    (2) Final Total Internal Energy     =   -2.34 kcal/mol
DOCKED: USER    (3) Torsional Free Energy           =   +2.98 kcal/mol
DOCKED: USER    (4) Unbound System's Energy  [=(2)] =   -2.34 kcal/mol
DOCKED: USER    
DOCKED: USER    
DOCKED: USER    NEWDPF move ligand.pdbqt
DOCKED: USER    NEWDPF about 1.857000 0.216000 -0.019000
DOCKED: USER    NEWDPF tran0 29.799299 -17.396488 -0.796421
DOCKED: USER    NEWDPF quaternion0 0.576260 0.352367 0.708290 0.205153
DOCKED: USER    NEWDPF axisangle0 0.588783 0.360025 0.723683 156.323144
DOCKED: USER    NEWDPF quat0 0.588783 0.360025 0.723683 156.323144
DOCKED: USER    NEWDPF dihe0 -154.22 -147.11 16.02 179.43 -8.87 -2.33 -26.27 115.17 21.57 135.30 
DOCKED: USER  keepresnum = 1 
DOCKED: USER  
DOCKED: REMARK  Name = 
DOCKED: REMARK  12 active torsions:
DOCKED: REMARK  status: ('A' for Active; 'I' for Inactive)
DOCKED: REMARK    1  A    between atoms: C_2  and  O_3
DOCKED: REMARK    2  A    between atoms: O_3  and  C_4
DOCKED: REMARK    3  A    between atoms: C_4  and  C_5
DOCKED: REMARK    4  A    between atoms: C_10  and  C_11
DOCKED: REMARK    5  A    between atoms: C_11  and  N_12
DOCKED: REMARK    6  A    between atoms: N_12  and  C_13
DOCKED: REMARK    7  A    between atoms: N_12  and  C_15
DOCKED: REMARK    8  A    between atoms: C_13  and  C_14
DOCKED: REMARK    9  A    between atoms: C_15  and  C_16
DOCKED: REMARK   10  A    between atoms: N_21  and  C_22
DOCKED: REMARK   11  A    between atoms: C_25  and  C_26
DOCKED: REMARK   12  A    between atoms: N_27  and  O_28
DOCKED: REMARK                            x       y       z     vdW  Elec       q    Type
DOCKED: REMARK                         _______ _______ _______ _____ _____    ______ ____
DOCKED: USER                              x       y       z     vdW  Elec       q    Type
DOCKED: USER                           _______ _______ _______ _____ _____    ______ ____
DOCKED: ROOT
DOCKED: ATOM      1  C   UNL     1      30.396 -15.870  -0.988 -0.13 -0.00    +0.000 C 
DOCKED: ENDROOT
DOCKED: BRANCH   1   2
DOCKED: ATOM      2  C   UNL     1      30.322 -16.344  -2.410 -0.13 -0.00    +0.000 A 
DOCKED: ATOM      3  C   UNL     1      29.557 -15.638  -3.351 -0.16 -0.00    +0.000 A 
DOCKED: ATOM      4  C   UNL     1      29.454 -16.097  -4.667 -0.26 -0.00    +0.000 A 
DOCKED: ATOM      5  C   UNL     1      30.105 -17.275  -5.058 -0.28 -0.00    +0.000 A 
DOCKED: ATOM      6  C   UNL     1      30.006 -17.743  -6.377 -0.18 -0.00    +0.000 A 
DOCKED: ATOM      7  C   UNL     1      30.656 -18.927  -6.761 -0.36 -0.00    +0.000 A 
DOCKED: ATOM      8  C   UNL     1      31.409 -19.641  -5.815 -0.24 -0.00    +0.000 A 
DOCKED: ATOM      9  C   UNL     1      31.511 -19.184  -4.499 -0.18 -0.00    +0.000 A 
DOCKED: ATOM     10  C   UNL     1      30.864 -18.002  -4.110 -0.20 -0.00    +0.000 A 
DOCKED: ATOM     11  C   UNL     1      30.963 -17.534  -2.791 -0.14 -0.00    +0.000 A 
DOCKED: BRANCH   7  12
DOCKED: ATOM     12  C   UNL     1      30.570 -19.424  -8.180 -0.34 -0.00    +0.000 C 
DOCKED: BRANCH  12  13
DOCKED: ATOM     13  N   UNL     1      31.876 -19.259  -8.856 -0.22 -0.00    +0.000 N 
DOCKED: ATOM     14  H   UNL     1      31.699 -19.034  -9.835 -0.01 -0.00    +0.000 HD
DOCKED: BRANCH  13  15
DOCKED: ATOM     15  C   UNL     1      32.641 -20.528  -8.871 -0.13 -0.00    +0.000 C 
DOCKED: ATOM     16  C   UNL     1      31.775 -21.720  -8.460 -0.22 -0.00    +0.000 C 
DOCKED: ENDBRANCH  13  15
DOCKED: BRANCH  13  17
DOCKED: ATOM     17  C   UNL     1      32.634 -18.098  -8.328 -0.16 -0.00    +0.000 C 
DOCKED: ATOM     18  C   UNL     1      32.192 -16.743  -8.897 -0.23 -0.00    +0.000 C 
DOCKED: ENDBRANCH  13  17
DOCKED: ENDBRANCH  12  13
DOCKED: ENDBRANCH   7  12
DOCKED: ENDBRANCH   1   2
DOCKED: BRANCH   1  19
DOCKED: ATOM     19  O   UNL     1      29.731 -16.806  -0.146 -0.24 -0.00    +0.000 OA
DOCKED: BRANCH  19  21
DOCKED: ATOM     20  O   UNL     1      28.388 -18.596  -0.707 -0.14 -0.00    +0.000 OA
DOCKED: ATOM     21  C   UNL     1      28.490 -17.361  -0.470 -0.11 -0.00    +0.000 C 
DOCKED: ATOM     22  N   UNL     1      27.347 -16.501  -0.568 -0.38 -0.00    +0.000 N 
DOCKED: ATOM     23  H   UNL     1      27.499 -15.529  -0.533 -0.00 -0.00    +0.000 HD
DOCKED: BRANCH  22  24
DOCKED: ATOM     24  C   UNL     1      25.994 -16.964  -0.715 -0.51 -0.00    +0.000 A 
DOCKED: ATOM     25  C   UNL     1      24.968 -16.034  -0.931 -0.35 -0.00    +0.000 A 
DOCKED: ATOM     26  C   UNL     1      23.641 -16.455  -1.054 +0.03 -0.00    +0.000 A 
DOCKED: ATOM     27  C   UNL     1      23.311 -17.818  -0.956 -0.70 -0.00    +0.000 A 
DOCKED: ATOM     28  C   UNL     1      24.337 -18.747  -0.702 -0.62 -0.00    +0.000 A 
DOCKED: ATOM     29  C   UNL     1      25.664 -18.324  -0.580 -0.57 -0.00    +0.000 A 
DOCKED: BRANCH  27  30
DOCKED: ATOM     30  C   UNL     1      21.898 -18.250  -1.085 -0.74 -0.00    +0.000 C 
DOCKED: ATOM     31  N   UNL     1      21.555 -19.525  -1.643 -0.56 -0.00    +0.000 N 
DOCKED: ATOM     32  O   UNL     1      20.975 -17.477  -0.710 -2.07 -0.00    +0.000 OA
DOCKED: ATOM     33  H   UNL     1      22.259 -20.101  -2.018 -0.51 -0.00    +0.000 HD
DOCKED: BRANCH  31  34
DOCKED: ATOM     34  O   UNL     1      20.265 -19.938  -1.657 -1.73 -0.00    +0.000 OA
DOCKED: ATOM     35  H   UNL     1      19.680 -19.181  -1.494 -0.17 -0.00    +0.000 HD
DOCKED: ENDBRANCH  31  34
DOCKED: ENDBRANCH  27  30
DOCKED: ENDBRANCH  22  24
DOCKED: ENDBRANCH  19  21
DOCKED: ENDBRANCH   1  19
DOCKED: TORSDOF 10
DOCKED: TER
DOCKED: ENDMDL
________________________________________________________________________________


	BEGINNING GENETIC ALGORITHM DOCKING 65 of 100
Run: 65 Seed: 1822541888 1723979230 [ Run 65 of 100 GA/GALS ]
Beginning LAMARCKIAN GENETIC ALGORITHM (LGA), with a maximum of 2500000 energy evaluations.

Final-Value: -15.513


	FINAL GENETIC ALGORITHM DOCKED STATE
	_______________________________________________


Detailed state:  trans 28.609 -15.167 -0.338 quatxyzw -0.488138 0.190359 -0.738470 0.424438 center 1.857 0.216 -0.019 ntor 10 -179.9090 -163.0648 11.8364 -38.0300 -49.1633 179.2518 -158.3933 -180.0000 164.9051 -107.4101
State:	 28.609 -15.167  -0.338  -0.539  0.210 -0.816 129.770   -179.91 -163.06   11.84  -38.03  -49.16  179.25 -158.39 -180.00  164.91 -107.41

DOCKED: MODEL       65
DOCKED: USER    Run = 65
DOCKED: USER    DPF = ligand_dock.biased.dpf
DOCKED: USER  
DOCKED: USER    Estimated Free Energy of Binding    =  -10.13 kcal/mol  [=(1)+(2)+(3)-(4)]
DOCKED: USER    Estimated Inhibition Constant, Ki   =   37.52 nM (nanomolar)  [Temperature = 298.15 K]
DOCKED: USER    
DOCKED: USER    (1) Final Intermolecular Energy     =  -13.11 kcal/mol
DOCKED: USER        vdW + Hbond + desolv Energy     =  -13.11 kcal/mol
DOCKED: USER        Electrostatic Energy            =   +0.00 kcal/mol
DOCKED: USER    (2) Final Total Internal Energy     =   -2.40 kcal/mol
DOCKED: USER    (3) Torsional Free Energy           =   +2.98 kcal/mol
DOCKED: USER    (4) Unbound System's Energy  [=(2)] =   -2.40 kcal/mol
DOCKED: USER    
DOCKED: USER    
DOCKED: USER    NEWDPF move ligand.pdbqt
DOCKED: USER    NEWDPF about 1.857000 0.216000 -0.019000
DOCKED: USER    NEWDPF tran0 28.608573 -15.167418 -0.337870
DOCKED: USER    NEWDPF quaternion0 -0.488138 0.190359 -0.738470 0.424438
DOCKED: USER    NEWDPF axisangle0 -0.539106 0.210235 -0.815577 129.769841
DOCKED: USER    NEWDPF quat0 -0.539106 0.210235 -0.815577 129.769841
DOCKED: USER    NEWDPF dihe0 -179.91 -163.06 11.84 -38.03 -49.16 179.25 -158.39 -180.00 164.91 -107.41 
DOCKED: USER  keepresnum = 1 
DOCKED: USER  
DOCKED: REMARK  Name = 
DOCKED: REMARK  12 active torsions:
DOCKED: REMARK  status: ('A' for Active; 'I' for Inactive)
DOCKED: REMARK    1  A    between atoms: C_2  and  O_3
DOCKED: REMARK    2  A    between atoms: O_3  and  C_4
DOCKED: REMARK    3  A    between atoms: C_4  and  C_5
DOCKED: REMARK    4  A    between atoms: C_10  and  C_11
DOCKED: REMARK    5  A    between atoms: C_11  and  N_12
DOCKED: REMARK    6  A    between atoms: N_12  and  C_13
DOCKED: REMARK    7  A    between atoms: N_12  and  C_15
DOCKED: REMARK    8  A    between atoms: C_13  and  C_14
DOCKED: REMARK    9  A    between atoms: C_15  and  C_16
DOCKED: REMARK   10  A    between atoms: N_21  and  C_22
DOCKED: REMARK   11  A    between atoms: C_25  and  C_26
DOCKED: REMARK   12  A    between atoms: N_27  and  O_28
DOCKED: REMARK                            x       y       z     vdW  Elec       q    Type
DOCKED: REMARK                         _______ _______ _______ _____ _____    ______ ____
DOCKED: USER                              x       y       z     vdW  Elec       q    Type
DOCKED: USER                           _______ _______ _______ _____ _____    ______ ____
DOCKED: ROOT
DOCKED: ATOM      1  C   UNL     1      30.008 -15.915   0.115 -0.13 -0.00    +0.000 C 
DOCKED: ENDROOT
DOCKED: BRANCH   1   2
DOCKED: ATOM      2  C   UNL     1      30.033 -16.108  -1.373 -0.14 -0.00    +0.000 A 
DOCKED: ATOM      3  C   UNL     1      29.536 -17.292  -1.940 -0.19 -0.00    +0.000 A 
DOCKED: ATOM      4  C   UNL     1      29.592 -17.492  -3.322 +0.02 -0.00    +0.000 A 
DOCKED: ATOM      5  C   UNL     1      30.157 -16.517  -4.155 -0.20 -0.00    +0.000 A 
DOCKED: ATOM      6  C   UNL     1      30.218 -16.711  -5.544 -0.28 -0.00    +0.000 A 
DOCKED: ATOM      7  C   UNL     1      30.791 -15.732  -6.372 -0.22 -0.00    +0.000 A 
DOCKED: ATOM      8  C   UNL     1      31.302 -14.556  -5.803 -0.08 -0.00    +0.000 A 
DOCKED: ATOM      9  C   UNL     1      31.247 -14.355  -4.422 -0.04 -0.00    +0.000 A 
DOCKED: ATOM     10  C   UNL     1      30.676 -15.328  -3.588 -0.07 -0.00    +0.000 A 
DOCKED: ATOM     11  C   UNL     1      30.615 -15.135  -2.201 -0.05 -0.00    +0.000 A 
DOCKED: BRANCH   7  12
DOCKED: ATOM     12  C   UNL     1      30.841 -15.925  -7.865 -0.21 -0.00    +0.000 C 
DOCKED: BRANCH  12  13
DOCKED: ATOM     13  N   UNL     1      31.792 -17.005  -8.206 -0.25 -0.00    +0.000 N 
DOCKED: ATOM     14  H   UNL     1      32.225 -17.330  -7.342 +0.00 -0.00    +0.000 HD
DOCKED: BRANCH  13  15
DOCKED: ATOM     15  C   UNL     1      32.906 -16.500  -9.045 -0.17 -0.00    +0.000 C 
DOCKED: ATOM     16  C   UNL     1      32.610 -15.109  -9.606 -0.18 -0.00    +0.000 C 
DOCKED: ENDBRANCH  13  15
DOCKED: BRANCH  13  17
DOCKED: ATOM     17  C   UNL     1      31.106 -18.198  -8.762 -0.33 -0.00    +0.000 C 
DOCKED: ATOM     18  C   UNL     1      30.819 -19.299  -7.731 -0.41 -0.00    +0.000 C 
DOCKED: ENDBRANCH  13  17
DOCKED: ENDBRANCH  12  13
DOCKED: ENDBRANCH   7  12
DOCKED: ENDBRANCH   1   2
DOCKED: BRANCH   1  19
DOCKED: ATOM     19  O   UNL     1      28.962 -15.010   0.453 -0.22 -0.00    +0.000 OA
DOCKED: BRANCH  19  21
DOCKED: ATOM     20  O   UNL     1      26.721 -14.531   0.722 -0.32 -0.00    +0.000 OA
DOCKED: ATOM     21  C   UNL     1      27.611 -15.363   0.394 -0.31 -0.00    +0.000 C 
DOCKED: ATOM     22  N   UNL     1      27.257 -16.695  -0.003 -0.40 -0.00    +0.000 N 
DOCKED: ATOM     23  H   UNL     1      27.981 -17.355  -0.094 -0.19 -0.00    +0.000 HD
DOCKED: BRANCH  22  24
DOCKED: ATOM     24  C   UNL     1      25.913 -17.129  -0.276 -0.46 -0.00    +0.000 A 
DOCKED: ATOM     25  C   UNL     1      25.140 -16.425  -1.208 -0.52 -0.00    +0.000 A 
DOCKED: ATOM     26  C   UNL     1      23.824 -16.811  -1.475 -0.42 -0.00    +0.000 A 
DOCKED: ATOM     27  C   UNL     1      23.251 -17.909  -0.810 -0.72 -0.00    +0.000 A 
DOCKED: ATOM     28  C   UNL     1      24.017 -18.593   0.152 -0.36 -0.00    +0.000 A 
DOCKED: ATOM     29  C   UNL     1      25.334 -18.205   0.418 -0.37 -0.00    +0.000 A 
DOCKED: BRANCH  27  30
DOCKED: ATOM     30  C   UNL     1      21.852 -18.306  -1.101 -0.72 -0.00    +0.000 C 
DOCKED: ATOM     31  N   UNL     1      21.552 -19.499  -1.836 -0.48 -0.00    +0.000 N 
DOCKED: ATOM     32  O   UNL     1      20.903 -17.573  -0.708 -2.11 -0.00    +0.000 OA
DOCKED: ATOM     33  H   UNL     1      22.282 -20.033  -2.223 -0.55 -0.00    +0.000 HD
DOCKED: BRANCH  31  34
DOCKED: ATOM     34  O   UNL     1      20.267 -19.893  -2.002 -1.83 -0.00    +0.000 OA
DOCKED: ATOM     35  H   UNL     1      19.670 -19.176  -1.731 -0.22 -0.00    +0.000 HD
DOCKED: ENDBRANCH  31  34
DOCKED: ENDBRANCH  27  30
DOCKED: ENDBRANCH  22  24
DOCKED: ENDBRANCH  19  21
DOCKED: ENDBRANCH   1  19
DOCKED: TORSDOF 10
DOCKED: TER
DOCKED: ENDMDL
________________________________________________________________________________


	BEGINNING GENETIC ALGORITHM DOCKING 66 of 100
Run: 66 Seed: 1703108276 481481937 [ Run 66 of 100 GA/GALS ]
Beginning LAMARCKIAN GENETIC ALGORITHM (LGA), with a maximum of 2500000 energy evaluations.

Final-Value: -18.153


	FINAL GENETIC ALGORITHM DOCKED STATE
	_______________________________________________


Detailed state:  trans 27.380 -15.701 0.558 quatxyzw 0.741895 -0.497650 -0.415366 0.171488 center 1.857 0.216 -0.019 ntor 10 106.3493 -100.6188 12.3004 -45.6019 97.8131 61.4299 -90.3193 -136.4120 108.4835 -83.4573
State:	 27.380 -15.701   0.558   0.753 -0.505 -0.422 160.251    106.35 -100.62   12.30  -45.60   97.81   61.43  -90.32 -136.41  108.48  -83.46

DOCKED: MODEL       66
DOCKED: USER    Run = 66
DOCKED: USER    DPF = ligand_dock.biased.dpf
DOCKED: USER  
DOCKED: USER    Estimated Free Energy of Binding    =  -13.18 kcal/mol  [=(1)+(2)+(3)-(4)]
DOCKED: USER    Estimated Inhibition Constant, Ki   =  220.06 pM (picomolar)  [Temperature = 298.15 K]
DOCKED: USER    
DOCKED: USER    (1) Final Intermolecular Energy     =  -16.16 kcal/mol
DOCKED: USER        vdW + Hbond + desolv Energy     =  -16.16 kcal/mol
DOCKED: USER        Electrostatic Energy            =   +0.00 kcal/mol
DOCKED: USER    (2) Final Total Internal Energy     =   -2.00 kcal/mol
DOCKED: USER    (3) Torsional Free Energy           =   +2.98 kcal/mol
DOCKED: USER    (4) Unbound System's Energy  [=(2)] =   -2.00 kcal/mol
DOCKED: USER    
DOCKED: USER    
DOCKED: USER    NEWDPF move ligand.pdbqt
DOCKED: USER    NEWDPF about 1.857000 0.216000 -0.019000
DOCKED: USER    NEWDPF tran0 27.379546 -15.700674 0.557903
DOCKED: USER    NEWDPF quaternion0 0.741895 -0.497650 -0.415366 0.171488
DOCKED: USER    NEWDPF axisangle0 0.753050 -0.505133 -0.421611 160.251354
DOCKED: USER    NEWDPF quat0 0.753050 -0.505133 -0.421611 160.251354
DOCKED: USER    NEWDPF dihe0 106.35 -100.62 12.30 -45.60 97.81 61.43 -90.32 -136.41 108.48 -83.46 
DOCKED: USER  keepresnum = 1 
DOCKED: USER  
DOCKED: REMARK  Name = 
DOCKED: REMARK  12 active torsions:
DOCKED: REMARK  status: ('A' for Active; 'I' for Inactive)
DOCKED: REMARK    1  A    between atoms: C_2  and  O_3
DOCKED: REMARK    2  A    between atoms: O_3  and  C_4
DOCKED: REMARK    3  A    between atoms: C_4  and  C_5
DOCKED: REMARK    4  A    between atoms: C_10  and  C_11
DOCKED: REMARK    5  A    between atoms: C_11  and  N_12
DOCKED: REMARK    6  A    between atoms: N_12  and  C_13
DOCKED: REMARK    7  A    between atoms: N_12  and  C_15
DOCKED: REMARK    8  A    between atoms: C_13  and  C_14
DOCKED: REMARK    9  A    between atoms: C_15  and  C_16
DOCKED: REMARK   10  A    between atoms: N_21  and  C_22
DOCKED: REMARK   11  A    between atoms: C_25  and  C_26
DOCKED: REMARK   12  A    between atoms: N_27  and  O_28
DOCKED: REMARK                            x       y       z     vdW  Elec       q    Type
DOCKED: REMARK                         _______ _______ _______ _____ _____    ______ ____
DOCKED: USER                              x       y       z     vdW  Elec       q    Type
DOCKED: USER                           _______ _______ _______ _____ _____    ______ ____
DOCKED: ROOT
DOCKED: ATOM      1  C   UNL     1      27.258 -14.309  -0.320 -0.27 -0.00    +0.000 C 
DOCKED: ENDROOT
DOCKED: BRANCH   1   2
DOCKED: ATOM      2  C   UNL     1      27.363 -13.773   1.079 -0.26 -0.00    +0.000 A 
DOCKED: ATOM      3  C   UNL     1      26.767 -12.547   1.412 -0.29 -0.00    +0.000 A 
DOCKED: ATOM      4  C   UNL     1      26.894 -12.026   2.703 -0.22 +0.00    +0.000 A 
DOCKED: ATOM      5  C   UNL     1      27.631 -12.718   3.674 -0.31 -0.00    +0.000 A 
DOCKED: ATOM      6  C   UNL     1      27.764 -12.202   4.972 -0.35 +0.00    +0.000 A 
DOCKED: ATOM      7  C   UNL     1      28.508 -12.898   5.940 -0.39 -0.00    +0.000 A 
DOCKED: ATOM      8  C   UNL     1      29.116 -14.116   5.601 -0.28 -0.00    +0.000 A 
DOCKED: ATOM      9  C   UNL     1      28.990 -14.637   4.311 -0.40 -0.00    +0.000 A 
DOCKED: ATOM     10  C   UNL     1      28.249 -13.947   3.340 -0.35 -0.00    +0.000 A 
DOCKED: ATOM     11  C   UNL     1      28.115 -14.463   2.043 -0.23 -0.00    +0.000 A 
DOCKED: BRANCH   7  12
DOCKED: ATOM     12  C   UNL     1      28.638 -12.359   7.340 -0.40 -0.00    +0.000 C 
DOCKED: BRANCH  12  13
DOCKED: ATOM     13  N   UNL     1      29.317 -13.348   8.204 -0.40 -0.00    +0.000 N 
DOCKED: ATOM     14  H   UNL     1      29.379 -14.227   7.691 -0.42 -0.00    +0.000 HD
DOCKED: BRANCH  13  15
DOCKED: ATOM     15  C   UNL     1      28.515 -13.649   9.414 -0.45 -0.00    +0.000 C 
DOCKED: ATOM     16  C   UNL     1      28.812 -12.672  10.552 -0.46 -0.00    +0.000 C 
DOCKED: ENDBRANCH  13  15
DOCKED: BRANCH  13  17
DOCKED: ATOM     17  C   UNL     1      30.725 -12.970   8.486 -0.28 -0.00    +0.000 C 
DOCKED: ATOM     18  C   UNL     1      31.427 -12.244   7.330 -0.17 -0.00    +0.000 C 
DOCKED: ENDBRANCH  13  17
DOCKED: ENDBRANCH  12  13
DOCKED: ENDBRANCH   7  12
DOCKED: ENDBRANCH   1   2
DOCKED: BRANCH   1  19
DOCKED: ATOM     19  O   UNL     1      27.533 -15.706  -0.309 -0.34 -0.00    +0.000 OA
DOCKED: BRANCH  19  21
DOCKED: ATOM     20  O   UNL     1      26.642 -17.682   0.479 -0.58 -0.00    +0.000 OA
DOCKED: ATOM     21  C   UNL     1      26.526 -16.673  -0.269 -0.46 -0.00    +0.000 C 
DOCKED: ATOM     22  N   UNL     1      25.380 -16.521  -1.119 -0.51 -0.00    +0.000 N 
DOCKED: ATOM     23  H   UNL     1      25.404 -15.809  -1.798 -0.01 -0.00    +0.000 HD
DOCKED: BRANCH  22  24
DOCKED: ATOM     24  C   UNL     1      24.201 -17.340  -1.044 -0.64 -0.00    +0.000 A 
DOCKED: ATOM     25  C   UNL     1      22.957 -16.735  -0.819 -0.33 -0.00    +0.000 A 
DOCKED: ATOM     26  C   UNL     1      21.798 -17.509  -0.720 -0.62 -0.00    +0.000 A 
DOCKED: ATOM     27  C   UNL     1      21.860 -18.909  -0.837 -0.75 -0.00    +0.000 A 
DOCKED: ATOM     28  C   UNL     1      23.115 -19.517  -1.027 -0.49 -0.00    +0.000 A 
DOCKED: ATOM     29  C   UNL     1      24.273 -18.741  -1.127 -0.56 -0.00    +0.000 A 
DOCKED: BRANCH  27  30
DOCKED: ATOM     30  C   UNL     1      20.623 -19.718  -0.727 -0.87 -0.00    +0.000 C 
DOCKED: ATOM     31  N   UNL     1      20.329 -20.476   0.454 -0.68 -0.00    +0.000 N 
DOCKED: ATOM     32  O   UNL     1      19.815 -19.754  -1.695 -1.78 -0.00    +0.000 OA
DOCKED: ATOM     33  H   UNL     1      20.990 -20.526   1.181 -0.57 -0.00    +0.000 HD
DOCKED: BRANCH  31  34
DOCKED: ATOM     34  O   UNL     1      19.146 -21.125   0.571 -0.75 -0.00    +0.000 OA
DOCKED: ATOM     35  H   UNL     1      18.698 -21.140  -0.290 -0.28 -0.00    +0.000 HD
DOCKED: ENDBRANCH  31  34
DOCKED: ENDBRANCH  27  30
DOCKED: ENDBRANCH  22  24
DOCKED: ENDBRANCH  19  21
DOCKED: ENDBRANCH   1  19
DOCKED: TORSDOF 10
DOCKED: TER
DOCKED: ENDMDL
________________________________________________________________________________


	BEGINNING GENETIC ALGORITHM DOCKING 67 of 100
Run: 67 Seed: 446617309 1114356895 [ Run 67 of 100 GA/GALS ]
Beginning LAMARCKIAN GENETIC ALGORITHM (LGA), with a maximum of 2500000 energy evaluations.

Final-Value: -15.084


	FINAL GENETIC ALGORITHM DOCKED STATE
	_______________________________________________


Detailed state:  trans 27.845 -16.766 -1.286 quatxyzw 0.371294 -0.069581 0.718237 0.584324 center 1.857 0.216 -0.019 ntor 10 178.8772 166.9249 -2.2830 -46.4858 -180.0000 -154.6373 -176.9184 -72.9706 61.4422 86.2663
State:	 27.845 -16.766  -1.286   0.458 -0.086  0.885 108.490    178.88  166.92   -2.28  -46.49 -180.00 -154.64 -176.92  -72.97   61.44   86.27

DOCKED: MODEL       67
DOCKED: USER    Run = 67
DOCKED: USER    DPF = ligand_dock.biased.dpf
DOCKED: USER  
DOCKED: USER    Estimated Free Energy of Binding    =   -9.84 kcal/mol  [=(1)+(2)+(3)-(4)]
DOCKED: USER    Estimated Inhibition Constant, Ki   =   61.60 nM (nanomolar)  [Temperature = 298.15 K]
DOCKED: USER    
DOCKED: USER    (1) Final Intermolecular Energy     =  -12.82 kcal/mol
DOCKED: USER        vdW + Hbond + desolv Energy     =  -12.82 kcal/mol
DOCKED: USER        Electrostatic Energy            =   +0.00 kcal/mol
DOCKED: USER    (2) Final Total Internal Energy     =   -2.26 kcal/mol
DOCKED: USER    (3) Torsional Free Energy           =   +2.98 kcal/mol
DOCKED: USER    (4) Unbound System's Energy  [=(2)] =   -2.26 kcal/mol
DOCKED: USER    
DOCKED: USER    
DOCKED: USER    NEWDPF move ligand.pdbqt
DOCKED: USER    NEWDPF about 1.857000 0.216000 -0.019000
DOCKED: USER    NEWDPF tran0 27.844620 -16.766073 -1.286085
DOCKED: USER    NEWDPF quaternion0 0.371294 -0.069581 0.718237 0.584324
DOCKED: USER    NEWDPF axisangle0 0.457529 -0.085742 0.885051 108.489548
DOCKED: USER    NEWDPF quat0 0.457529 -0.085742 0.885051 108.489548
DOCKED: USER    NEWDPF dihe0 178.88 166.92 -2.28 -46.49 -180.00 -154.64 -176.92 -72.97 61.44 86.27 
DOCKED: USER  keepresnum = 1 
DOCKED: USER  
DOCKED: REMARK  Name = 
DOCKED: REMARK  12 active torsions:
DOCKED: REMARK  status: ('A' for Active; 'I' for Inactive)
DOCKED: REMARK    1  A    between atoms: C_2  and  O_3
DOCKED: REMARK    2  A    between atoms: O_3  and  C_4
DOCKED: REMARK    3  A    between atoms: C_4  and  C_5
DOCKED: REMARK    4  A    between atoms: C_10  and  C_11
DOCKED: REMARK    5  A    between atoms: C_11  and  N_12
DOCKED: REMARK    6  A    between atoms: N_12  and  C_13
DOCKED: REMARK    7  A    between atoms: N_12  and  C_15
DOCKED: REMARK    8  A    between atoms: C_13  and  C_14
DOCKED: REMARK    9  A    between atoms: C_15  and  C_16
DOCKED: REMARK   10  A    between atoms: N_21  and  C_22
DOCKED: REMARK   11  A    between atoms: C_25  and  C_26
DOCKED: REMARK   12  A    between atoms: N_27  and  O_28
DOCKED: REMARK                            x       y       z     vdW  Elec       q    Type
DOCKED: REMARK                         _______ _______ _______ _____ _____    ______ ____
DOCKED: USER                              x       y       z     vdW  Elec       q    Type
DOCKED: USER                           _______ _______ _______ _____ _____    ______ ____
DOCKED: ROOT
DOCKED: ATOM      1  C   UNL     1      28.263 -15.921   0.068 -0.25 -0.00    +0.000 C 
DOCKED: ENDROOT
DOCKED: BRANCH   1   2
DOCKED: ATOM      2  C   UNL     1      27.914 -14.812  -0.882 -0.19 -0.00    +0.000 A 
DOCKED: ATOM      3  C   UNL     1      27.632 -13.528  -0.393 -0.17 -0.00    +0.000 A 
DOCKED: ATOM      4  C   UNL     1      27.269 -12.501  -1.270 -0.11 -0.00    +0.000 A 
DOCKED: ATOM      5  C   UNL     1      27.171 -12.749  -2.646 -0.14 -0.00    +0.000 A 
DOCKED: ATOM      6  C   UNL     1      26.807 -11.725  -3.534 -0.14 -0.00    +0.000 A 
DOCKED: ATOM      7  C   UNL     1      26.705 -11.982  -4.911 -0.22 -0.00    +0.000 A 
DOCKED: ATOM      8  C   UNL     1      26.973 -13.271  -5.396 -0.09 -0.00    +0.000 A 
DOCKED: ATOM      9  C   UNL     1      27.334 -14.297  -4.520 -0.32 -0.00    +0.000 A 
DOCKED: ATOM     10  C   UNL     1      27.438 -14.048  -3.144 -0.21 -0.00    +0.000 A 
DOCKED: ATOM     11  C   UNL     1      27.802 -15.071  -2.257 -0.21 -0.00    +0.000 A 
DOCKED: BRANCH   7  12
DOCKED: ATOM     12  C   UNL     1      26.334 -10.881  -5.870 -0.23 -0.00    +0.000 C 
DOCKED: BRANCH  12  13
DOCKED: ATOM     13  N   UNL     1      25.226 -10.074  -5.314 -0.29 -0.00    +0.000 N 
DOCKED: ATOM     14  H   UNL     1      24.852 -10.566  -4.503 -0.03 -0.00    +0.000 HD
DOCKED: BRANCH  13  15
DOCKED: ATOM     15  C   UNL     1      24.100  -9.970  -6.272 -0.46 -0.00    +0.000 C 
DOCKED: ATOM     16  C   UNL     1      24.510 -10.396  -7.682 -0.38 -0.00    +0.000 C 
DOCKED: ENDBRANCH  13  15
DOCKED: BRANCH  13  17
DOCKED: ATOM     17  C   UNL     1      25.697  -8.770  -4.785 -0.19 -0.00    +0.000 C 
DOCKED: ATOM     18  C   UNL     1      25.286  -8.492  -3.333 -0.21 -0.00    +0.000 C 
DOCKED: ENDBRANCH  13  17
DOCKED: ENDBRANCH  12  13
DOCKED: ENDBRANCH   7  12
DOCKED: ENDBRANCH   1   2
DOCKED: BRANCH   1  19
DOCKED: ATOM     19  O   UNL     1      27.875 -17.167  -0.502 -0.44 -0.00    +0.000 OA
DOCKED: BRANCH  19  21
DOCKED: ATOM     20  O   UNL     1      26.419 -18.309   0.874 -0.59 -0.00    +0.000 OA
DOCKED: ATOM     21  C   UNL     1      26.639 -17.763  -0.242 -0.58 -0.00    +0.000 C 
DOCKED: ATOM     22  N   UNL     1      25.644 -17.783  -1.274 -0.57 -0.00    +0.000 N 
DOCKED: ATOM     23  H   UNL     1      25.911 -17.491  -2.175 -0.03 -0.00    +0.000 HD
DOCKED: BRANCH  22  24
DOCKED: ATOM     24  C   UNL     1      24.282 -18.200  -1.080 -0.69 -0.00    +0.000 A 
DOCKED: ATOM     25  C   UNL     1      23.642 -17.913   0.133 -0.46 -0.00    +0.000 A 
DOCKED: ATOM     26  C   UNL     1      22.326 -18.327   0.358 -0.54 -0.00    +0.000 A 
DOCKED: ATOM     27  C   UNL     1      21.623 -19.043  -0.627 -0.76 -0.00    +0.000 A 
DOCKED: ATOM     28  C   UNL     1      22.279 -19.361  -1.831 -0.15 -0.00    +0.000 A 
DOCKED: ATOM     29  C   UNL     1      23.596 -18.946  -2.053 -0.17 -0.00    +0.000 A 
DOCKED: BRANCH  27  30
DOCKED: ATOM     30  C   UNL     1      20.228 -19.478  -0.374 -0.88 -0.00    +0.000 C 
DOCKED: ATOM     31  N   UNL     1      19.722 -19.628   0.958 -0.67 -0.00    +0.000 N 
DOCKED: ATOM     32  O   UNL     1      19.472 -19.737  -1.349 -1.47 -0.00    +0.000 OA
DOCKED: ATOM     33  H   UNL     1      20.326 -19.513   1.727 -0.15 -0.00    +0.000 HD
DOCKED: BRANCH  31  34
DOCKED: ATOM     34  O   UNL     1      18.418 -19.928   1.163 -0.75 -0.00    +0.000 OA
DOCKED: ATOM     35  H   UNL     1      17.957 -19.970   0.310 -0.06 -0.00    +0.000 HD
DOCKED: ENDBRANCH  31  34
DOCKED: ENDBRANCH  27  30
DOCKED: ENDBRANCH  22  24
DOCKED: ENDBRANCH  19  21
DOCKED: ENDBRANCH   1  19
DOCKED: TORSDOF 10
DOCKED: TER
DOCKED: ENDMDL
________________________________________________________________________________


	BEGINNING GENETIC ALGORITHM DOCKING 68 of 100
Run: 68 Seed: 645659436 429936441 [ Run 68 of 100 GA/GALS ]
Beginning LAMARCKIAN GENETIC ALGORITHM (LGA), with a maximum of 2500000 energy evaluations.

Final-Value: -15.805


	FINAL GENETIC ALGORITHM DOCKED STATE
	_______________________________________________


Detailed state:  trans 28.103 -14.571 -1.820 quatxyzw 0.036491 -0.658992 0.430408 0.615749 center 1.857 0.216 -0.019 ntor 10 -74.2377 -77.8894 36.0388 -16.8709 52.6806 169.3964 76.3594 -180.0000 -169.7255 96.7598
State:	 28.103 -14.571  -1.820   0.046 -0.836  0.546 103.987    -74.24  -77.89   36.04  -16.87   52.68  169.40   76.36 -180.00 -169.73   96.76

DOCKED: MODEL       68
DOCKED: USER    Run = 68
DOCKED: USER    DPF = ligand_dock.biased.dpf
DOCKED: USER  
DOCKED: USER    Estimated Free Energy of Binding    =  -10.60 kcal/mol  [=(1)+(2)+(3)-(4)]
DOCKED: USER    Estimated Inhibition Constant, Ki   =   16.90 nM (nanomolar)  [Temperature = 298.15 K]
DOCKED: USER    
DOCKED: USER    (1) Final Intermolecular Energy     =  -13.59 kcal/mol
DOCKED: USER        vdW + Hbond + desolv Energy     =  -13.59 kcal/mol
DOCKED: USER        Electrostatic Energy            =   +0.00 kcal/mol
DOCKED: USER    (2) Final Total Internal Energy     =   -2.22 kcal/mol
DOCKED: USER    (3) Torsional Free Energy           =   +2.98 kcal/mol
DOCKED: USER    (4) Unbound System's Energy  [=(2)] =   -2.22 kcal/mol
DOCKED: USER    
DOCKED: USER    
DOCKED: USER    NEWDPF move ligand.pdbqt
DOCKED: USER    NEWDPF about 1.857000 0.216000 -0.019000
DOCKED: USER    NEWDPF tran0 28.103178 -14.570635 -1.820401
DOCKED: USER    NEWDPF quaternion0 0.036491 -0.658992 0.430408 0.615749
DOCKED: USER    NEWDPF axisangle0 0.046312 -0.836346 0.546243 103.987312
DOCKED: USER    NEWDPF quat0 0.046312 -0.836346 0.546243 103.987312
DOCKED: USER    NEWDPF dihe0 -74.24 -77.89 36.04 -16.87 52.68 169.40 76.36 -180.00 -169.73 96.76 
DOCKED: USER  keepresnum = 1 
DOCKED: USER  
DOCKED: REMARK  Name = 
DOCKED: REMARK  12 active torsions:
DOCKED: REMARK  status: ('A' for Active; 'I' for Inactive)
DOCKED: REMARK    1  A    between atoms: C_2  and  O_3
DOCKED: REMARK    2  A    between atoms: O_3  and  C_4
DOCKED: REMARK    3  A    between atoms: C_4  and  C_5
DOCKED: REMARK    4  A    between atoms: C_10  and  C_11
DOCKED: REMARK    5  A    between atoms: C_11  and  N_12
DOCKED: REMARK    6  A    between atoms: N_12  and  C_13
DOCKED: REMARK    7  A    between atoms: N_12  and  C_15
DOCKED: REMARK    8  A    between atoms: C_13  and  C_14
DOCKED: REMARK    9  A    between atoms: C_15  and  C_16
DOCKED: REMARK   10  A    between atoms: N_21  and  C_22
DOCKED: REMARK   11  A    between atoms: C_25  and  C_26
DOCKED: REMARK   12  A    between atoms: N_27  and  O_28
DOCKED: REMARK                            x       y       z     vdW  Elec       q    Type
DOCKED: REMARK                         _______ _______ _______ _____ _____    ______ ____
DOCKED: USER                              x       y       z     vdW  Elec       q    Type
DOCKED: USER                           _______ _______ _______ _____ _____    ______ ____
DOCKED: ROOT
DOCKED: ATOM      1  C   UNL     1      29.097 -15.676  -1.103 -0.20 -0.00    +0.000 C 
DOCKED: ENDROOT
DOCKED: BRANCH   1   2
DOCKED: ATOM      2  C   UNL     1      28.939 -14.660  -0.009 -0.15 -0.00    +0.000 A 
DOCKED: ATOM      3  C   UNL     1      29.519 -13.389  -0.138 -0.06 -0.00    +0.000 A 
DOCKED: ATOM      4  C   UNL     1      29.407 -12.452   0.894 -0.05 -0.00    +0.000 A 
DOCKED: ATOM      5  C   UNL     1      28.724 -12.780   2.074 -0.14 -0.00    +0.000 A 
DOCKED: ATOM      6  C   UNL     1      28.607 -11.846   3.115 -0.16 -0.00    +0.000 A 
DOCKED: ATOM      7  C   UNL     1      27.926 -12.182   4.297 -0.30 +0.00    +0.000 A 
DOCKED: ATOM      8  C   UNL     1      27.360 -13.459   4.430 -0.40 -0.00    +0.000 A 
DOCKED: ATOM      9  C   UNL     1      27.472 -14.395   3.399 -0.25 -0.00    +0.000 A 
DOCKED: ATOM     10  C   UNL     1      28.151 -14.066   2.217 -0.27 -0.00    +0.000 A 
DOCKED: ATOM     11  C   UNL     1      28.267 -14.999   1.176 -0.03 -0.00    +0.000 A 
DOCKED: BRANCH   7  12
DOCKED: ATOM     12  C   UNL     1      27.781 -11.178   5.410 -0.40 +0.00    +0.000 C 
DOCKED: BRANCH  12  13
DOCKED: ATOM     13  N   UNL     1      29.033 -11.102   6.194 -0.26 +0.00    +0.000 N 
DOCKED: ATOM     14  H   UNL     1      29.783 -11.503   5.631 +0.01 -0.00    +0.000 HD
DOCKED: BRANCH  13  15
DOCKED: ATOM     15  C   UNL     1      28.958 -11.941   7.414 -0.39 -0.00    +0.000 C 
DOCKED: ATOM     16  C   UNL     1      29.496 -13.351   7.170 -0.40 -0.00    +0.000 C 
DOCKED: ENDBRANCH  13  15
DOCKED: BRANCH  13  17
DOCKED: ATOM     17  C   UNL     1      29.451  -9.700   6.444 -0.22 +0.00    +0.000 C 
DOCKED: ATOM     18  C   UNL     1      28.676  -8.655   5.630 -0.23 +0.00    +0.000 C 
DOCKED: ENDBRANCH  13  17
DOCKED: ENDBRANCH  12  13
DOCKED: ENDBRANCH   7  12
DOCKED: ENDBRANCH   1   2
DOCKED: BRANCH   1  19
DOCKED: ATOM     19  O   UNL     1      28.178 -15.383  -2.151 -0.22 -0.00    +0.000 OA
DOCKED: BRANCH  19  21
DOCKED: ATOM     20  O   UNL     1      26.063 -15.495  -3.065 -0.49 -0.00    +0.000 OA
DOCKED: ATOM     21  C   UNL     1      26.843 -15.794  -2.120 -0.39 -0.00    +0.000 C 
DOCKED: ATOM     22  N   UNL     1      26.366 -16.524  -0.981 -0.44 -0.00    +0.000 N 
DOCKED: ATOM     23  H   UNL     1      26.961 -16.597  -0.200 -0.02 -0.00    +0.000 HD
DOCKED: BRANCH  22  24
DOCKED: ATOM     24  C   UNL     1      25.076 -17.155  -0.904 -0.58 -0.00    +0.000 A 
DOCKED: ATOM     25  C   UNL     1      23.927 -16.360  -0.798 -0.09 -0.00    +0.000 A 
DOCKED: ATOM     26  C   UNL     1      22.663 -16.948  -0.699 -0.51 -0.00    +0.000 A 
DOCKED: ATOM     27  C   UNL     1      22.522 -18.346  -0.698 -0.75 -0.00    +0.000 A 
DOCKED: ATOM     28  C   UNL     1      23.680 -19.143  -0.769 -0.60 -0.00    +0.000 A 
DOCKED: ATOM     29  C   UNL     1      24.944 -18.553  -0.868 -0.53 -0.00    +0.000 A 
DOCKED: BRANCH  27  30
DOCKED: ATOM     30  C   UNL     1      21.175 -18.957  -0.590 -0.87 -0.00    +0.000 C 
DOCKED: ATOM     31  N   UNL     1      20.981 -20.233   0.033 -0.56 -0.00    +0.000 N 
DOCKED: ATOM     32  O   UNL     1      20.178 -18.349  -1.066 -1.95 -0.00    +0.000 OA
DOCKED: ATOM     33  H   UNL     1      21.759 -20.756   0.331 -0.60 -0.00    +0.000 HD
DOCKED: BRANCH  31  34
DOCKED: ATOM     34  O   UNL     1      19.731 -20.722   0.211 -0.79 -0.00    +0.000 OA
DOCKED: ATOM     35  H   UNL     1      19.173 -20.470  -0.544 -0.29 -0.00    +0.000 HD
DOCKED: ENDBRANCH  31  34
DOCKED: ENDBRANCH  27  30
DOCKED: ENDBRANCH  22  24
DOCKED: ENDBRANCH  19  21
DOCKED: ENDBRANCH   1  19
DOCKED: TORSDOF 10
DOCKED: TER
DOCKED: ENDMDL
________________________________________________________________________________


	BEGINNING GENETIC ALGORITHM DOCKING 69 of 100
Run: 69 Seed: 792347444 1054068286 [ Run 69 of 100 GA/GALS ]
Beginning LAMARCKIAN GENETIC ALGORITHM (LGA), with a maximum of 2500000 energy evaluations.

Final-Value: -16.454


	FINAL GENETIC ALGORITHM DOCKED STATE
	_______________________________________________


Detailed state:  trans 28.844 -16.062 -1.318 quatxyzw -0.361562 0.221900 -0.745370 0.514254 center 1.857 0.216 -0.019 ntor 10 -143.7583 -145.9027 10.3306 174.6573 178.3729 175.7261 -36.5163 175.5138 100.9879 -91.0524
State:	 28.844 -16.062  -1.318  -0.422  0.259 -0.869 118.105   -143.76 -145.90   10.33  174.66  178.37  175.73  -36.52  175.51  100.99  -91.05

DOCKED: MODEL       69
DOCKED: USER    Run = 69
DOCKED: USER    DPF = ligand_dock.biased.dpf
DOCKED: USER  
DOCKED: USER    Estimated Free Energy of Binding    =  -11.25 kcal/mol  [=(1)+(2)+(3)-(4)]
DOCKED: USER    Estimated Inhibition Constant, Ki   =    5.69 nM (nanomolar)  [Temperature = 298.15 K]
DOCKED: USER    
DOCKED: USER    (1) Final Intermolecular Energy     =  -14.23 kcal/mol
DOCKED: USER        vdW + Hbond + desolv Energy     =  -14.23 kcal/mol
DOCKED: USER        Electrostatic Energy            =   +0.00 kcal/mol
DOCKED: USER    (2) Final Total Internal Energy     =   -2.22 kcal/mol
DOCKED: USER    (3) Torsional Free Energy           =   +2.98 kcal/mol
DOCKED: USER    (4) Unbound System's Energy  [=(2)] =   -2.22 kcal/mol
DOCKED: USER    
DOCKED: USER    
DOCKED: USER    NEWDPF move ligand.pdbqt
DOCKED: USER    NEWDPF about 1.857000 0.216000 -0.019000
DOCKED: USER    NEWDPF tran0 28.843550 -16.062018 -1.317747
DOCKED: USER    NEWDPF quaternion0 -0.361562 0.221900 -0.745370 0.514254
DOCKED: USER    NEWDPF axisangle0 -0.421579 0.258734 -0.869096 118.104769
DOCKED: USER    NEWDPF quat0 -0.421579 0.258734 -0.869096 118.104769
DOCKED: USER    NEWDPF dihe0 -143.76 -145.90 10.33 174.66 178.37 175.73 -36.52 175.51 100.99 -91.05 
DOCKED: USER  keepresnum = 1 
DOCKED: USER  
DOCKED: REMARK  Name = 
DOCKED: REMARK  12 active torsions:
DOCKED: REMARK  status: ('A' for Active; 'I' for Inactive)
DOCKED: REMARK    1  A    between atoms: C_2  and  O_3
DOCKED: REMARK    2  A    between atoms: O_3  and  C_4
DOCKED: REMARK    3  A    between atoms: C_4  and  C_5
DOCKED: REMARK    4  A    between atoms: C_10  and  C_11
DOCKED: REMARK    5  A    between atoms: C_11  and  N_12
DOCKED: REMARK    6  A    between atoms: N_12  and  C_13
DOCKED: REMARK    7  A    between atoms: N_12  and  C_15
DOCKED: REMARK    8  A    between atoms: C_13  and  C_14
DOCKED: REMARK    9  A    between atoms: C_15  and  C_16
DOCKED: REMARK   10  A    between atoms: N_21  and  C_22
DOCKED: REMARK   11  A    between atoms: C_25  and  C_26
DOCKED: REMARK   12  A    between atoms: N_27  and  O_28
DOCKED: REMARK                            x       y       z     vdW  Elec       q    Type
DOCKED: REMARK                         _______ _______ _______ _____ _____    ______ ____
DOCKED: USER                              x       y       z     vdW  Elec       q    Type
DOCKED: USER                           _______ _______ _______ _____ _____    ______ ____
DOCKED: ROOT
DOCKED: ATOM      1  C   UNL     1      29.950 -16.973  -0.501 -0.20 -0.00    +0.000 C 
DOCKED: ENDROOT
DOCKED: BRANCH   1   2
DOCKED: ATOM      2  C   UNL     1      30.183 -17.416  -1.917 -0.19 -0.00    +0.000 A 
DOCKED: ATOM      3  C   UNL     1      30.803 -18.647  -2.179 -0.09 -0.00    +0.000 A 
DOCKED: ATOM      4  C   UNL     1      31.056 -19.046  -3.494 -0.08 -0.00    +0.000 A 
DOCKED: ATOM      5  C   UNL     1      30.704 -18.213  -4.565 -0.23 -0.00    +0.000 A 
DOCKED: ATOM      6  C   UNL     1      30.956 -18.605  -5.889 -0.28 -0.00    +0.000 A 
DOCKED: ATOM      7  C   UNL     1      30.605 -17.764  -6.957 -0.30 -0.00    +0.000 A 
DOCKED: ATOM      8  C   UNL     1      30.000 -16.526  -6.693 -0.26 -0.00    +0.000 A 
DOCKED: ATOM      9  C   UNL     1      29.747 -16.126  -5.379 -0.28 -0.00    +0.000 A 
DOCKED: ATOM     10  C   UNL     1      30.094 -16.962  -4.307 -0.23 -0.00    +0.000 A 
DOCKED: ATOM     11  C   UNL     1      29.843 -16.570  -2.984 -0.18 -0.00    +0.000 A 
DOCKED: BRANCH   7  12
DOCKED: ATOM     12  C   UNL     1      30.854 -18.188  -8.381 -0.30 -0.00    +0.000 C 
DOCKED: BRANCH  12  13
DOCKED: ATOM     13  N   UNL     1      32.301 -18.127  -8.684 -0.19 -0.00    +0.000 N 
DOCKED: ATOM     14  H   UNL     1      32.408 -17.922  -9.678 -0.01 -0.00    +0.000 HD
DOCKED: BRANCH  13  15
DOCKED: ATOM     15  C   UNL     1      32.952 -19.443  -8.476 -0.10 -0.00    +0.000 C 
DOCKED: ATOM     16  C   UNL     1      31.949 -20.593  -8.553 -0.22 -0.00    +0.000 C 
DOCKED: ENDBRANCH  13  15
DOCKED: BRANCH  13  17
DOCKED: ATOM     17  C   UNL     1      32.970 -17.001  -7.987 -0.12 -0.00    +0.000 C 
DOCKED: ATOM     18  C   UNL     1      32.766 -15.634  -8.656 -0.16 -0.00    +0.000 C 
DOCKED: ENDBRANCH  13  17
DOCKED: ENDBRANCH  12  13
DOCKED: ENDBRANCH   7  12
DOCKED: ENDBRANCH   1   2
DOCKED: BRANCH   1  19
DOCKED: ATOM     19  O   UNL     1      29.084 -15.843  -0.499 -0.23 -0.00    +0.000 OA
DOCKED: BRANCH  19  21
DOCKED: ATOM     20  O   UNL     1      26.972 -14.930  -0.344 -0.32 -0.00    +0.000 OA
DOCKED: ATOM     21  C   UNL     1      27.693 -15.960  -0.447 -0.34 -0.00    +0.000 C 
DOCKED: ATOM     22  N   UNL     1      27.102 -17.267  -0.470 -0.47 -0.00    +0.000 N 
DOCKED: ATOM     23  H   UNL     1      27.702 -18.043  -0.390 -0.23 -0.00    +0.000 HD
DOCKED: BRANCH  22  24
DOCKED: ATOM     24  C   UNL     1      25.693 -17.517  -0.603 -0.58 -0.00    +0.000 A 
DOCKED: ATOM     25  C   UNL     1      25.236 -18.838  -0.700 -0.31 -0.00    +0.000 A 
DOCKED: ATOM     26  C   UNL     1      23.873 -19.109  -0.852 -0.55 -0.00    +0.000 A 
DOCKED: ATOM     27  C   UNL     1      22.938 -18.062  -0.917 -0.72 -0.00    +0.000 A 
DOCKED: ATOM     28  C   UNL     1      23.403 -16.735  -0.856 -0.41 -0.00    +0.000 A 
DOCKED: ATOM     29  C   UNL     1      24.766 -16.466  -0.703 -0.43 -0.00    +0.000 A 
DOCKED: BRANCH  27  30
DOCKED: ATOM     30  C   UNL     1      21.496 -18.364  -1.083 -0.73 -0.00    +0.000 C 
DOCKED: ATOM     31  N   UNL     1      21.053 -19.591  -1.675 -0.70 -0.00    +0.000 N 
DOCKED: ATOM     32  O   UNL     1      20.637 -17.520  -0.707 -2.11 +0.00    +0.000 OA
DOCKED: ATOM     33  H   UNL     1      21.711 -20.219  -2.051 -0.52 -0.00    +0.000 HD
DOCKED: BRANCH  31  34
DOCKED: ATOM     34  O   UNL     1      19.733 -19.889  -1.723 -1.68 -0.00    +0.000 OA
DOCKED: ATOM     35  H   UNL     1      19.215 -19.108  -1.466 -0.47 -0.00    +0.000 HD
DOCKED: ENDBRANCH  31  34
DOCKED: ENDBRANCH  27  30
DOCKED: ENDBRANCH  22  24
DOCKED: ENDBRANCH  19  21
DOCKED: ENDBRANCH   1  19
DOCKED: TORSDOF 10
DOCKED: TER
DOCKED: ENDMDL
________________________________________________________________________________


	BEGINNING GENETIC ALGORITHM DOCKING 70 of 100
Run: 70 Seed: 289233397 529744402 [ Run 70 of 100 GA/GALS ]
Beginning LAMARCKIAN GENETIC ALGORITHM (LGA), with a maximum of 2500000 energy evaluations.

Final-Value: -16.229


	FINAL GENETIC ALGORITHM DOCKED STATE
	_______________________________________________


Detailed state:  trans 29.151 -16.409 0.382 quatxyzw -0.721039 0.520961 0.245842 -0.385051 center 1.857 0.216 -0.019 ntor 10 -168.4623 100.2140 9.9167 -80.8414 -22.1926 128.9771 -21.4394 166.6942 178.5625 -95.8461
State:	 29.151 -16.409   0.382  -0.781  0.564  0.266 -134.706   -168.46  100.21    9.92  -80.84  -22.19  128.98  -21.44  166.69  178.56  -95.85

DOCKED: MODEL       70
DOCKED: USER    Run = 70
DOCKED: USER    DPF = ligand_dock.biased.dpf
DOCKED: USER  
DOCKED: USER    Estimated Free Energy of Binding    =  -11.12 kcal/mol  [=(1)+(2)+(3)-(4)]
DOCKED: USER    Estimated Inhibition Constant, Ki   =    7.10 nM (nanomolar)  [Temperature = 298.15 K]
DOCKED: USER    
DOCKED: USER    (1) Final Intermolecular Energy     =  -14.10 kcal/mol
DOCKED: USER        vdW + Hbond + desolv Energy     =  -14.10 kcal/mol
DOCKED: USER        Electrostatic Energy            =   +0.00 kcal/mol
DOCKED: USER    (2) Final Total Internal Energy     =   -2.13 kcal/mol
DOCKED: USER    (3) Torsional Free Energy           =   +2.98 kcal/mol
DOCKED: USER    (4) Unbound System's Energy  [=(2)] =   -2.13 kcal/mol
DOCKED: USER    
DOCKED: USER    
DOCKED: USER    NEWDPF move ligand.pdbqt
DOCKED: USER    NEWDPF about 1.857000 0.216000 -0.019000
DOCKED: USER    NEWDPF tran0 29.150638 -16.408732 0.382253
DOCKED: USER    NEWDPF quaternion0 -0.721039 0.520961 0.245842 -0.385051
DOCKED: USER    NEWDPF axisangle0 -0.781280 0.564485 0.266381 -134.706221
DOCKED: USER    NEWDPF quat0 -0.781280 0.564485 0.266381 -134.706221
DOCKED: USER    NEWDPF dihe0 -168.46 100.21 9.92 -80.84 -22.19 128.98 -21.44 166.69 178.56 -95.85 
DOCKED: USER  keepresnum = 1 
DOCKED: USER  
DOCKED: REMARK  Name = 
DOCKED: REMARK  12 active torsions:
DOCKED: REMARK  status: ('A' for Active; 'I' for Inactive)
DOCKED: REMARK    1  A    between atoms: C_2  and  O_3
DOCKED: REMARK    2  A    between atoms: O_3  and  C_4
DOCKED: REMARK    3  A    between atoms: C_4  and  C_5
DOCKED: REMARK    4  A    between atoms: C_10  and  C_11
DOCKED: REMARK    5  A    between atoms: C_11  and  N_12
DOCKED: REMARK    6  A    between atoms: N_12  and  C_13
DOCKED: REMARK    7  A    between atoms: N_12  and  C_15
DOCKED: REMARK    8  A    between atoms: C_13  and  C_14
DOCKED: REMARK    9  A    between atoms: C_15  and  C_16
DOCKED: REMARK   10  A    between atoms: N_21  and  C_22
DOCKED: REMARK   11  A    between atoms: C_25  and  C_26
DOCKED: REMARK   12  A    between atoms: N_27  and  O_28
DOCKED: REMARK                            x       y       z     vdW  Elec       q    Type
DOCKED: REMARK                         _______ _______ _______ _____ _____    ______ ____
DOCKED: USER                              x       y       z     vdW  Elec       q    Type
DOCKED: USER                           _______ _______ _______ _____ _____    ______ ____
DOCKED: ROOT
DOCKED: ATOM      1  C   UNL     1      29.782 -14.992  -0.181 -0.14 -0.00    +0.000 C 
DOCKED: ENDROOT
DOCKED: BRANCH   1   2
DOCKED: ATOM      2  C   UNL     1      29.388 -14.611   1.217 -0.11 -0.00    +0.000 A 
DOCKED: ATOM      3  C   UNL     1      28.057 -14.278   1.509 -0.24 -0.00    +0.000 A 
DOCKED: ATOM      4  C   UNL     1      27.693 -13.885   2.800 -0.32 -0.00    +0.000 A 
DOCKED: ATOM      5  C   UNL     1      28.658 -13.807   3.813 -0.35 -0.00    +0.000 A 
DOCKED: ATOM      6  C   UNL     1      28.301 -13.414   5.112 -0.44 -0.00    +0.000 A 
DOCKED: ATOM      7  C   UNL     1      29.274 -13.333   6.122 -0.36 -0.00    +0.000 A 
DOCKED: ATOM      8  C   UNL     1      30.608 -13.651   5.824 -0.22 -0.00    +0.000 A 
DOCKED: ATOM      9  C   UNL     1      30.973 -14.043   4.534 -0.21 -0.00    +0.000 A 
DOCKED: ATOM     10  C   UNL     1      30.006 -14.126   3.521 -0.25 -0.00    +0.000 A 
DOCKED: ATOM     11  C   UNL     1      30.362 -14.520   2.223 -0.14 -0.00    +0.000 A 
DOCKED: BRANCH   7  12
DOCKED: ATOM     12  C   UNL     1      28.894 -12.930   7.522 -0.43 -0.00    +0.000 C 
DOCKED: BRANCH  12  13
DOCKED: ATOM     13  N   UNL     1      29.615 -11.698   7.910 -0.28 -0.00    +0.000 N 
DOCKED: ATOM     14  H   UNL     1      30.593 -11.805   7.639 +0.01 -0.00    +0.000 HD
DOCKED: BRANCH  13  15
DOCKED: ATOM     15  C   UNL     1      29.627 -11.520   9.382 -0.28 -0.00    +0.000 C 
DOCKED: ATOM     16  C   UNL     1      28.847 -12.624  10.096 -0.46 -0.00    +0.000 C 
DOCKED: ENDBRANCH  13  15
DOCKED: BRANCH  13  17
DOCKED: ATOM     17  C   UNL     1      29.138 -10.512   7.158 -0.31 +0.00    +0.000 C 
DOCKED: ATOM     18  C   UNL     1      29.614  -9.168   7.728 -0.24 +0.00    +0.000 C 
DOCKED: ENDBRANCH  13  17
DOCKED: ENDBRANCH  12  13
DOCKED: ENDBRANCH   7  12
DOCKED: ENDBRANCH   1   2
DOCKED: BRANCH   1  19
DOCKED: ATOM     19  O   UNL     1      29.665 -16.403  -0.332 -0.23 -0.00    +0.000 OA
DOCKED: BRANCH  19  21
DOCKED: ATOM     20  O   UNL     1      28.446 -18.231  -1.036 -0.27 -0.00    +0.000 OA
DOCKED: ATOM     21  C   UNL     1      28.457 -17.030  -0.650 -0.32 -0.00    +0.000 C 
DOCKED: ATOM     22  N   UNL     1      27.240 -16.276  -0.570 -0.37 -0.00    +0.000 N 
DOCKED: ATOM     23  H   UNL     1      27.310 -15.305  -0.421 -0.00 -0.00    +0.000 HD
DOCKED: BRANCH  22  24
DOCKED: ATOM     24  C   UNL     1      25.925 -16.844  -0.694 -0.50 -0.00    +0.000 A 
DOCKED: ATOM     25  C   UNL     1      24.819 -15.994  -0.831 -0.26 -0.00    +0.000 A 
DOCKED: ATOM     26  C   UNL     1      23.528 -16.519  -0.931 -0.01 -0.00    +0.000 A 
DOCKED: ATOM     27  C   UNL     1      23.314 -17.908  -0.887 -0.71 -0.00    +0.000 A 
DOCKED: ATOM     28  C   UNL     1      24.422 -18.758  -0.712 -0.60 -0.00    +0.000 A 
DOCKED: ATOM     29  C   UNL     1      25.713 -18.231  -0.613 -0.59 -0.00    +0.000 A 
DOCKED: BRANCH  27  30
DOCKED: ATOM     30  C   UNL     1      21.938 -18.450  -0.990 -0.80 -0.00    +0.000 C 
DOCKED: ATOM     31  N   UNL     1      21.638 -19.570  -1.832 -0.39 -0.00    +0.000 N 
DOCKED: ATOM     32  O   UNL     1      21.006 -17.909  -0.335 -1.93 -0.00    +0.000 OA
DOCKED: ATOM     33  H   UNL     1      22.336 -19.947  -2.414 -0.55 -0.00    +0.000 HD
DOCKED: BRANCH  31  34
DOCKED: ATOM     34  O   UNL     1      20.396 -20.111  -1.832 -1.70 -0.00    +0.000 OA
DOCKED: ATOM     35  H   UNL     1      19.793 -19.537  -1.333 -0.10 -0.00    +0.000 HD
DOCKED: ENDBRANCH  31  34
DOCKED: ENDBRANCH  27  30
DOCKED: ENDBRANCH  22  24
DOCKED: ENDBRANCH  19  21
DOCKED: ENDBRANCH   1  19
DOCKED: TORSDOF 10
DOCKED: TER
DOCKED: ENDMDL
________________________________________________________________________________


	BEGINNING GENETIC ALGORITHM DOCKING 71 of 100
Run: 71 Seed: 1720682277 1160361214 [ Run 71 of 100 GA/GALS ]
Beginning LAMARCKIAN GENETIC ALGORITHM (LGA), with a maximum of 2500000 energy evaluations.

Final-Value: -14.993


	FINAL GENETIC ALGORITHM DOCKED STATE
	_______________________________________________


Detailed state:  trans 29.969 -17.032 0.754 quatxyzw 0.141637 0.929504 0.272237 -0.204568 center 1.857 0.216 -0.019 ntor 10 77.8582 -153.9560 14.5796 -7.8338 139.0614 165.3083 -160.5541 40.4644 53.1294 63.0843
State:	 29.969 -17.032   0.754   0.145  0.950  0.278 -156.392     77.86 -153.96   14.58   -7.83  139.06  165.31 -160.55   40.46   53.13   63.08

DOCKED: MODEL       71
DOCKED: USER    Run = 71
DOCKED: USER    DPF = ligand_dock.biased.dpf
DOCKED: USER  
DOCKED: USER    Estimated Free Energy of Binding    =  -10.03 kcal/mol  [=(1)+(2)+(3)-(4)]
DOCKED: USER    Estimated Inhibition Constant, Ki   =   44.61 nM (nanomolar)  [Temperature = 298.15 K]
DOCKED: USER    
DOCKED: USER    (1) Final Intermolecular Energy     =  -13.01 kcal/mol
DOCKED: USER        vdW + Hbond + desolv Energy     =  -13.01 kcal/mol
DOCKED: USER        Electrostatic Energy            =   +0.00 kcal/mol
DOCKED: USER    (2) Final Total Internal Energy     =   -1.98 kcal/mol
DOCKED: USER    (3) Torsional Free Energy           =   +2.98 kcal/mol
DOCKED: USER    (4) Unbound System's Energy  [=(2)] =   -1.98 kcal/mol
DOCKED: USER    
DOCKED: USER    
DOCKED: USER    NEWDPF move ligand.pdbqt
DOCKED: USER    NEWDPF about 1.857000 0.216000 -0.019000
DOCKED: USER    NEWDPF tran0 29.969246 -17.031600 0.754433
DOCKED: USER    NEWDPF quaternion0 0.141637 0.929504 0.272237 -0.204568
DOCKED: USER    NEWDPF axisangle0 0.144697 0.949585 0.278119 -156.391583
DOCKED: USER    NEWDPF quat0 0.144697 0.949585 0.278119 -156.391583
DOCKED: USER    NEWDPF dihe0 77.86 -153.96 14.58 -7.83 139.06 165.31 -160.55 40.46 53.13 63.08 
DOCKED: USER  keepresnum = 1 
DOCKED: USER  
DOCKED: REMARK  Name = 
DOCKED: REMARK  12 active torsions:
DOCKED: REMARK  status: ('A' for Active; 'I' for Inactive)
DOCKED: REMARK    1  A    between atoms: C_2  and  O_3
DOCKED: REMARK    2  A    between atoms: O_3  and  C_4
DOCKED: REMARK    3  A    between atoms: C_4  and  C_5
DOCKED: REMARK    4  A    between atoms: C_10  and  C_11
DOCKED: REMARK    5  A    between atoms: C_11  and  N_12
DOCKED: REMARK    6  A    between atoms: N_12  and  C_13
DOCKED: REMARK    7  A    between atoms: N_12  and  C_15
DOCKED: REMARK    8  A    between atoms: C_13  and  C_14
DOCKED: REMARK    9  A    between atoms: C_15  and  C_16
DOCKED: REMARK   10  A    between atoms: N_21  and  C_22
DOCKED: REMARK   11  A    between atoms: C_25  and  C_26
DOCKED: REMARK   12  A    between atoms: N_27  and  O_28
DOCKED: REMARK                            x       y       z     vdW  Elec       q    Type
DOCKED: REMARK                         _______ _______ _______ _____ _____    ______ ____
DOCKED: USER                              x       y       z     vdW  Elec       q    Type
DOCKED: USER                           _______ _______ _______ _____ _____    ______ ____
DOCKED: ROOT
DOCKED: ATOM      1  C   UNL     1      30.698 -16.945  -0.723 -0.17 -0.00    +0.000 C 
DOCKED: ENDROOT
DOCKED: BRANCH   1   2
DOCKED: ATOM      2  C   UNL     1      31.671 -17.794   0.042 -0.13 -0.00    +0.000 A 
DOCKED: ATOM      3  C   UNL     1      32.495 -18.707  -0.634 -0.09 -0.00    +0.000 A 
DOCKED: ATOM      4  C   UNL     1      33.376 -19.526   0.078 -0.04 -0.00    +0.000 A 
DOCKED: ATOM      5  C   UNL     1      33.435 -19.453   1.477 -0.08 -0.00    +0.000 A 
DOCKED: ATOM      6  C   UNL     1      34.316 -20.272   2.200 -0.06 -0.00    +0.000 A 
DOCKED: ATOM      7  C   UNL     1      34.367 -20.197   3.601 -0.14 -0.00    +0.000 A 
DOCKED: ATOM      8  C   UNL     1      33.531 -19.294   4.276 -0.30 -0.00    +0.000 A 
DOCKED: ATOM      9  C   UNL     1      32.650 -18.476   3.566 -0.32 -0.00    +0.000 A 
DOCKED: ATOM     10  C   UNL     1      32.595 -18.546   2.166 -0.19 -0.00    +0.000 A 
DOCKED: ATOM     11  C   UNL     1      31.715 -17.727   1.444 -0.01 -0.00    +0.000 A 
DOCKED: BRANCH   7  12
DOCKED: ATOM     12  C   UNL     1      35.325 -21.059   4.381 -0.15 -0.00    +0.000 C 
DOCKED: BRANCH  12  13
DOCKED: ATOM     13  N   UNL     1      34.742 -22.402   4.593 -0.19 -0.00    +0.000 N 
DOCKED: ATOM     14  H   UNL     1      34.094 -22.590   3.828 -0.46 -0.00    +0.000 HD
DOCKED: BRANCH  13  15
DOCKED: ATOM     15  C   UNL     1      33.924 -22.447   5.829 -0.43 -0.00    +0.000 C 
DOCKED: ATOM     16  C   UNL     1      34.513 -23.402   6.867 -0.52 -0.00    +0.000 C 
DOCKED: ENDBRANCH  13  15
DOCKED: BRANCH  13  17
DOCKED: ATOM     17  C   UNL     1      35.764 -23.475   4.500 -0.14 -0.00    +0.000 C 
DOCKED: ATOM     18  C   UNL     1      36.004 -23.996   3.077 -0.10 -0.00    +0.000 C 
DOCKED: ENDBRANCH  13  17
DOCKED: ENDBRANCH  12  13
DOCKED: ENDBRANCH   7  12
DOCKED: ENDBRANCH   1   2
DOCKED: BRANCH   1  19
DOCKED: ATOM     19  O   UNL     1      29.510 -16.786   0.045 -0.23 -0.00    +0.000 OA
DOCKED: BRANCH  19  21
DOCKED: ATOM     20  O   UNL     1      28.182 -18.386  -0.955 -0.09 -0.00    +0.000 OA
DOCKED: ATOM     21  C   UNL     1      28.268 -17.267  -0.379 -0.19 -0.00    +0.000 C 
DOCKED: ATOM     22  N   UNL     1      27.103 -16.453  -0.186 -0.39 -0.00    +0.000 N 
DOCKED: ATOM     23  H   UNL     1      27.236 -15.527   0.120 -0.02 -0.00    +0.000 HD
DOCKED: BRANCH  22  24
DOCKED: ATOM     24  C   UNL     1      25.755 -16.900  -0.409 -0.44 -0.00    +0.000 A 
DOCKED: ATOM     25  C   UNL     1      25.315 -18.086   0.194 -0.45 -0.00    +0.000 A 
DOCKED: ATOM     26  C   UNL     1      24.018 -18.555  -0.024 -0.52 -0.00    +0.000 A 
DOCKED: ATOM     27  C   UNL     1      23.132 -17.851  -0.858 -0.71 -0.00    +0.000 A 
DOCKED: ATOM     28  C   UNL     1      23.587 -16.679  -1.492 -0.10 -0.00    +0.000 A 
DOCKED: ATOM     29  C   UNL     1      24.886 -16.211  -1.272 -0.45 -0.00    +0.000 A 
DOCKED: BRANCH  27  30
DOCKED: ATOM     30  C   UNL     1      21.759 -18.362  -1.083 -0.75 -0.00    +0.000 C 
DOCKED: ATOM     31  N   UNL     1      21.527 -19.619  -1.732 -0.46 -0.00    +0.000 N 
DOCKED: ATOM     32  O   UNL     1      20.770 -17.674  -0.710 -2.18 -0.00    +0.000 OA
DOCKED: ATOM     33  H   UNL     1      22.284 -20.125  -2.105 -0.52 -0.00    +0.000 HD
DOCKED: BRANCH  31  34
DOCKED: ATOM     34  O   UNL     1      20.270 -20.112  -1.835 -1.78 -0.00    +0.000 OA
DOCKED: ATOM     35  H   UNL     1      19.629 -19.411  -1.635 -0.20 -0.00    +0.000 HD
DOCKED: ENDBRANCH  31  34
DOCKED: ENDBRANCH  27  30
DOCKED: ENDBRANCH  22  24
DOCKED: ENDBRANCH  19  21
DOCKED: ENDBRANCH   1  19
DOCKED: TORSDOF 10
DOCKED: TER
DOCKED: ENDMDL
________________________________________________________________________________


	BEGINNING GENETIC ALGORITHM DOCKING 72 of 100
Run: 72 Seed: 346911643 938172476 [ Run 72 of 100 GA/GALS ]
Beginning LAMARCKIAN GENETIC ALGORITHM (LGA), with a maximum of 2500000 energy evaluations.

Final-Value: -16.198


	FINAL GENETIC ALGORITHM DOCKED STATE
	_______________________________________________


Detailed state:  trans 28.679 -15.587 0.054 quatxyzw -0.605858 0.664011 0.131963 -0.417864 center 1.857 0.216 -0.019 ntor 10 67.6089 -88.9234 13.1758 119.8490 154.7937 -49.3909 -24.9908 10.9473 -18.6761 -112.9080
State:	 28.679 -15.587   0.054  -0.667  0.731  0.145 -130.600     67.61  -88.92   13.18  119.85  154.79  -49.39  -24.99   10.95  -18.68 -112.91

DOCKED: MODEL       72
DOCKED: USER    Run = 72
DOCKED: USER    DPF = ligand_dock.biased.dpf
DOCKED: USER  
DOCKED: USER    Estimated Free Energy of Binding    =  -11.01 kcal/mol  [=(1)+(2)+(3)-(4)]
DOCKED: USER    Estimated Inhibition Constant, Ki   =    8.46 nM (nanomolar)  [Temperature = 298.15 K]
DOCKED: USER    
DOCKED: USER    (1) Final Intermolecular Energy     =  -14.00 kcal/mol
DOCKED: USER        vdW + Hbond + desolv Energy     =  -14.00 kcal/mol
DOCKED: USER        Electrostatic Energy            =   +0.00 kcal/mol
DOCKED: USER    (2) Final Total Internal Energy     =   -2.20 kcal/mol
DOCKED: USER    (3) Torsional Free Energy           =   +2.98 kcal/mol
DOCKED: USER    (4) Unbound System's Energy  [=(2)] =   -2.20 kcal/mol
DOCKED: USER    
DOCKED: USER    
DOCKED: USER    NEWDPF move ligand.pdbqt
DOCKED: USER    NEWDPF about 1.857000 0.216000 -0.019000
DOCKED: USER    NEWDPF tran0 28.678753 -15.587075 0.053713
DOCKED: USER    NEWDPF quaternion0 -0.605858 0.664011 0.131963 -0.417864
DOCKED: USER    NEWDPF axisangle0 -0.666871 0.730880 0.145252 -130.600384
DOCKED: USER    NEWDPF quat0 -0.666871 0.730880 0.145252 -130.600384
DOCKED: USER    NEWDPF dihe0 67.61 -88.92 13.18 119.85 154.79 -49.39 -24.99 10.95 -18.68 -112.91 
DOCKED: USER  keepresnum = 1 
DOCKED: USER  
DOCKED: REMARK  Name = 
DOCKED: REMARK  12 active torsions:
DOCKED: REMARK  status: ('A' for Active; 'I' for Inactive)
DOCKED: REMARK    1  A    between atoms: C_2  and  O_3
DOCKED: REMARK    2  A    between atoms: O_3  and  C_4
DOCKED: REMARK    3  A    between atoms: C_4  and  C_5
DOCKED: REMARK    4  A    between atoms: C_10  and  C_11
DOCKED: REMARK    5  A    between atoms: C_11  and  N_12
DOCKED: REMARK    6  A    between atoms: N_12  and  C_13
DOCKED: REMARK    7  A    between atoms: N_12  and  C_15
DOCKED: REMARK    8  A    between atoms: C_13  and  C_14
DOCKED: REMARK    9  A    between atoms: C_15  and  C_16
DOCKED: REMARK   10  A    between atoms: N_21  and  C_22
DOCKED: REMARK   11  A    between atoms: C_25  and  C_26
DOCKED: REMARK   12  A    between atoms: N_27  and  O_28
DOCKED: REMARK                            x       y       z     vdW  Elec       q    Type
DOCKED: REMARK                         _______ _______ _______ _____ _____    ______ ____
DOCKED: USER                              x       y       z     vdW  Elec       q    Type
DOCKED: USER                           _______ _______ _______ _____ _____    ______ ____
DOCKED: ROOT
DOCKED: ATOM      1  C   UNL     1      29.858 -14.601  -0.545 -0.10 -0.00    +0.000 C 
DOCKED: ENDROOT
DOCKED: BRANCH   1   2
DOCKED: ATOM      2  C   UNL     1      29.634 -14.009   0.816 -0.11 -0.00    +0.000 A 
DOCKED: ATOM      3  C   UNL     1      30.244 -14.580   1.943 -0.10 -0.00    +0.000 A 
DOCKED: ATOM      4  C   UNL     1      30.008 -14.055   3.217 -0.22 -0.00    +0.000 A 
DOCKED: ATOM      5  C   UNL     1      29.150 -12.960   3.382 -0.18 -0.00    +0.000 A 
DOCKED: ATOM      6  C   UNL     1      28.907 -12.427   4.657 -0.24 -0.00    +0.000 A 
DOCKED: ATOM      7  C   UNL     1      28.041 -11.333   4.817 -0.32 +0.00    +0.000 A 
DOCKED: ATOM      8  C   UNL     1      27.420 -10.772   3.690 -0.26 +0.00    +0.000 A 
DOCKED: ATOM      9  C   UNL     1      27.654 -11.297   2.417 -0.21 +0.00    +0.000 A 
DOCKED: ATOM     10  C   UNL     1      28.518 -12.389   2.251 -0.15 -0.00    +0.000 A 
DOCKED: ATOM     11  C   UNL     1      28.761 -12.922   0.976 -0.10 -0.00    +0.000 A 
DOCKED: BRANCH   7  12
DOCKED: ATOM     12  C   UNL     1      27.792 -10.744   6.181 -0.12 +0.00    +0.000 C 
DOCKED: BRANCH  12  13
DOCKED: ATOM     13  N   UNL     1      29.053 -10.216   6.744 -0.27 +0.00    +0.000 N 
DOCKED: ATOM     14  H   UNL     1      28.818  -9.488   7.419 -0.03 +0.00    +0.000 HD
DOCKED: BRANCH  13  15
DOCKED: ATOM     15  C   UNL     1      29.872  -9.547   5.705 -0.13 +0.00    +0.000 C 
DOCKED: ATOM     16  C   UNL     1      31.291 -10.112   5.646 -0.05 -0.00    +0.000 C 
DOCKED: ENDBRANCH  13  15
DOCKED: BRANCH  13  17
DOCKED: ATOM     17  C   UNL     1      29.786 -11.241   7.529 -0.27 -0.00    +0.000 C 
DOCKED: ATOM     18  C   UNL     1      28.908 -12.389   8.045 -0.43 -0.00    +0.000 C 
DOCKED: ENDBRANCH  13  17
DOCKED: ENDBRANCH  12  13
DOCKED: ENDBRANCH   7  12
DOCKED: ENDBRANCH   1   2
DOCKED: BRANCH   1  19
DOCKED: ATOM     19  O   UNL     1      29.162 -15.839  -0.638 -0.21 -0.00    +0.000 OA
DOCKED: BRANCH  19  21
DOCKED: ATOM     20  O   UNL     1      27.067 -14.877  -0.729 -0.29 -0.00    +0.000 OA
DOCKED: ATOM     21  C   UNL     1      27.767 -15.922  -0.631 -0.34 -0.00    +0.000 C 
DOCKED: ATOM     22  N   UNL     1      27.147 -17.205  -0.469 -0.46 -0.00    +0.000 N 
DOCKED: ATOM     23  H   UNL     1      27.724 -17.968  -0.237 -0.28 -0.00    +0.000 HD
DOCKED: BRANCH  22  24
DOCKED: ATOM     24  C   UNL     1      25.738 -17.450  -0.623 -0.57 -0.00    +0.000 A 
DOCKED: ATOM     25  C   UNL     1      25.219 -18.708  -0.289 -0.36 -0.00    +0.000 A 
DOCKED: ATOM     26  C   UNL     1      23.858 -18.980  -0.450 -0.50 -0.00    +0.000 A 
DOCKED: ATOM     27  C   UNL     1      22.987 -18.000  -0.957 -0.71 -0.00    +0.000 A 
DOCKED: ATOM     28  C   UNL     1      23.517 -16.749  -1.326 -0.29 -0.00    +0.000 A 
DOCKED: ATOM     29  C   UNL     1      24.879 -16.479  -1.164 -0.52 -0.00    +0.000 A 
DOCKED: BRANCH  27  30
DOCKED: ATOM     30  C   UNL     1      21.545 -18.304  -1.126 -0.62 -0.00    +0.000 C 
DOCKED: ATOM     31  N   UNL     1      21.106 -19.509  -1.765 -0.66 -0.00    +0.000 N 
DOCKED: ATOM     32  O   UNL     1      20.684 -17.480  -0.713 -2.08 +0.00    +0.000 OA
DOCKED: ATOM     33  H   UNL     1      21.765 -20.118  -2.168 -0.56 -0.00    +0.000 HD
DOCKED: BRANCH  31  34
DOCKED: ATOM     34  O   UNL     1      19.787 -19.812  -1.817 -1.79 -0.00    +0.000 OA
DOCKED: ATOM     35  H   UNL     1      19.265 -19.032  -1.570 -0.45 -0.00    +0.000 HD
DOCKED: ENDBRANCH  31  34
DOCKED: ENDBRANCH  27  30
DOCKED: ENDBRANCH  22  24
DOCKED: ENDBRANCH  19  21
DOCKED: ENDBRANCH   1  19
DOCKED: TORSDOF 10
DOCKED: TER
DOCKED: ENDMDL
________________________________________________________________________________


	BEGINNING GENETIC ALGORITHM DOCKING 73 of 100
Run: 73 Seed: 672314413 694732159 [ Run 73 of 100 GA/GALS ]
Beginning LAMARCKIAN GENETIC ALGORITHM (LGA), with a maximum of 2500000 energy evaluations.

Final-Value: -15.680


	FINAL GENETIC ALGORITHM DOCKED STATE
	_______________________________________________


Detailed state:  trans 28.274 -15.447 -1.298 quatxyzw -0.663798 0.570749 0.201539 -0.439317 center 1.857 0.216 -0.019 ntor 10 -149.6415 -146.1994 -17.9736 -47.7848 -65.2476 148.8106 81.9695 84.1579 155.7880 -113.3769
State:	 28.274 -15.447  -1.298  -0.739  0.635  0.224 -127.879   -149.64 -146.20  -17.97  -47.78  -65.25  148.81   81.97   84.16  155.79 -113.38

DOCKED: MODEL       73
DOCKED: USER    Run = 73
DOCKED: USER    DPF = ligand_dock.biased.dpf
DOCKED: USER  
DOCKED: USER    Estimated Free Energy of Binding    =  -10.30 kcal/mol  [=(1)+(2)+(3)-(4)]
DOCKED: USER    Estimated Inhibition Constant, Ki   =   28.40 nM (nanomolar)  [Temperature = 298.15 K]
DOCKED: USER    
DOCKED: USER    (1) Final Intermolecular Energy     =  -13.28 kcal/mol
DOCKED: USER        vdW + Hbond + desolv Energy     =  -13.28 kcal/mol
DOCKED: USER        Electrostatic Energy            =   +0.00 kcal/mol
DOCKED: USER    (2) Final Total Internal Energy     =   -2.40 kcal/mol
DOCKED: USER    (3) Torsional Free Energy           =   +2.98 kcal/mol
DOCKED: USER    (4) Unbound System's Energy  [=(2)] =   -2.40 kcal/mol
DOCKED: USER    
DOCKED: USER    
DOCKED: USER    NEWDPF move ligand.pdbqt
DOCKED: USER    NEWDPF about 1.857000 0.216000 -0.019000
DOCKED: USER    NEWDPF tran0 28.274096 -15.446997 -1.298187
DOCKED: USER    NEWDPF quaternion0 -0.663798 0.570749 0.201539 -0.439317
DOCKED: USER    NEWDPF axisangle0 -0.738923 0.635343 0.224348 -127.879393
DOCKED: USER    NEWDPF quat0 -0.738923 0.635343 0.224348 -127.879393
DOCKED: USER    NEWDPF dihe0 -149.64 -146.20 -17.97 -47.78 -65.25 148.81 81.97 84.16 155.79 -113.38 
DOCKED: USER  keepresnum = 1 
DOCKED: USER  
DOCKED: REMARK  Name = 
DOCKED: REMARK  12 active torsions:
DOCKED: REMARK  status: ('A' for Active; 'I' for Inactive)
DOCKED: REMARK    1  A    between atoms: C_2  and  O_3
DOCKED: REMARK    2  A    between atoms: O_3  and  C_4
DOCKED: REMARK    3  A    between atoms: C_4  and  C_5
DOCKED: REMARK    4  A    between atoms: C_10  and  C_11
DOCKED: REMARK    5  A    between atoms: C_11  and  N_12
DOCKED: REMARK    6  A    between atoms: N_12  and  C_13
DOCKED: REMARK    7  A    between atoms: N_12  and  C_15
DOCKED: REMARK    8  A    between atoms: C_13  and  C_14
DOCKED: REMARK    9  A    between atoms: C_15  and  C_16
DOCKED: REMARK   10  A    between atoms: N_21  and  C_22
DOCKED: REMARK   11  A    between atoms: C_25  and  C_26
DOCKED: REMARK   12  A    between atoms: N_27  and  O_28
DOCKED: REMARK                            x       y       z     vdW  Elec       q    Type
DOCKED: REMARK                         _______ _______ _______ _____ _____    ______ ____
DOCKED: USER                              x       y       z     vdW  Elec       q    Type
DOCKED: USER                           _______ _______ _______ _____ _____    ______ ____
DOCKED: ROOT
DOCKED: ATOM      1  C   UNL     1      29.195 -14.154  -1.749 -0.09 -0.00    +0.000 C 
DOCKED: ENDROOT
DOCKED: BRANCH   1   2
DOCKED: ATOM      2  C   UNL     1      28.799 -13.769  -0.353 -0.10 -0.00    +0.000 A 
DOCKED: ATOM      3  C   UNL     1      27.805 -12.802  -0.143 -0.13 -0.00    +0.000 A 
DOCKED: ATOM      4  C   UNL     1      27.460 -12.412   1.155 -0.20 -0.00    +0.000 A 
DOCKED: ATOM      5  C   UNL     1      28.114 -12.975   2.259 -0.22 -0.00    +0.000 A 
DOCKED: ATOM      6  C   UNL     1      27.775 -12.589   3.565 -0.30 -0.00    +0.000 A 
DOCKED: ATOM      7  C   UNL     1      28.438 -13.154   4.667 -0.37 -0.00    +0.000 A 
DOCKED: ATOM      8  C   UNL     1      29.444 -14.109   4.454 -0.35 -0.00    +0.000 A 
DOCKED: ATOM      9  C   UNL     1      29.789 -14.499   3.158 -0.19 -0.00    +0.000 A 
DOCKED: ATOM     10  C   UNL     1      29.131 -13.939   2.053 -0.18 -0.00    +0.000 A 
DOCKED: ATOM     11  C   UNL     1      29.470 -14.325   0.748 -0.13 -0.00    +0.000 A 
DOCKED: BRANCH   7  12
DOCKED: ATOM     12  C   UNL     1      28.065 -12.758   6.071 -0.43 -0.00    +0.000 C 
DOCKED: BRANCH  12  13
DOCKED: ATOM     13  N   UNL     1      29.026 -11.762   6.592 -0.31 -0.00    +0.000 N 
DOCKED: ATOM     14  H   UNL     1      29.828 -11.736   5.961 +0.01 -0.00    +0.000 HD
DOCKED: BRANCH  13  15
DOCKED: ATOM     15  C   UNL     1      29.568 -12.170   7.909 -0.35 -0.00    +0.000 C 
DOCKED: ATOM     16  C   UNL     1      29.326 -13.653   8.190 -0.40 -0.00    +0.000 C 
DOCKED: ENDBRANCH  13  15
DOCKED: BRANCH  13  17
DOCKED: ATOM     17  C   UNL     1      28.473 -10.385   6.562 -0.31 +0.00    +0.000 C 
DOCKED: ATOM     18  C   UNL     1      28.524  -9.713   5.183 -0.27 +0.00    +0.000 C 
DOCKED: ENDBRANCH  13  17
DOCKED: ENDBRANCH  12  13
DOCKED: ENDBRANCH   7  12
DOCKED: ENDBRANCH   1   2
DOCKED: BRANCH   1  19
DOCKED: ATOM     19  O   UNL     1      28.821 -15.508  -1.986 -0.18 -0.00    +0.000 OA
DOCKED: BRANCH  19  21
DOCKED: ATOM     20  O   UNL     1      26.831 -15.801  -3.113 -0.41 -0.00    +0.000 OA
DOCKED: ATOM     21  C   UNL     1      27.489 -15.923  -2.044 -0.33 -0.00    +0.000 C 
DOCKED: ATOM     22  N   UNL     1      26.871 -16.449  -0.862 -0.40 -0.00    +0.000 N 
DOCKED: ATOM     23  H   UNL     1      27.367 -16.378  -0.014 -0.04 -0.00    +0.000 HD
DOCKED: BRANCH  22  24
DOCKED: ATOM     24  C   UNL     1      25.575 -17.072  -0.832 -0.55 -0.00    +0.000 A 
DOCKED: ATOM     25  C   UNL     1      24.438 -16.307  -1.121 -0.34 -0.00    +0.000 A 
DOCKED: ATOM     26  C   UNL     1      23.165 -16.882  -1.078 -0.40 -0.00    +0.000 A 
DOCKED: ATOM     27  C   UNL     1      23.002 -18.236  -0.737 -0.74 -0.00    +0.000 A 
DOCKED: ATOM     28  C   UNL     1      24.143 -18.994  -0.412 -0.33 -0.00    +0.000 A 
DOCKED: ATOM     29  C   UNL     1      25.416 -18.416  -0.456 -0.58 -0.00    +0.000 A 
DOCKED: BRANCH  27  30
DOCKED: ATOM     30  C   UNL     1      21.645 -18.832  -0.692 -0.86 -0.00    +0.000 C 
DOCKED: ATOM     31  N   UNL     1      21.076 -19.482  -1.835 -0.65 -0.00    +0.000 N 
DOCKED: ATOM     32  O   UNL     1      20.968 -18.756   0.369 -1.09 -0.00    +0.000 OA
DOCKED: ATOM     33  H   UNL     1      21.557 -19.473  -2.694 -0.12 -0.00    +0.000 HD
DOCKED: BRANCH  31  34
DOCKED: ATOM     34  O   UNL     1      19.879 -20.107  -1.739 -1.69 -0.00    +0.000 OA
DOCKED: ATOM     35  H   UNL     1      19.674 -20.275  -0.805 -0.24 -0.00    +0.000 HD
DOCKED: ENDBRANCH  31  34
DOCKED: ENDBRANCH  27  30
DOCKED: ENDBRANCH  22  24
DOCKED: ENDBRANCH  19  21
DOCKED: ENDBRANCH   1  19
DOCKED: TORSDOF 10
DOCKED: TER
DOCKED: ENDMDL
________________________________________________________________________________


	BEGINNING GENETIC ALGORITHM DOCKING 74 of 100
Run: 74 Seed: 1957678182 330951238 [ Run 74 of 100 GA/GALS ]
Beginning LAMARCKIAN GENETIC ALGORITHM (LGA), with a maximum of 2500000 energy evaluations.

Final-Value: -15.547


	FINAL GENETIC ALGORITHM DOCKED STATE
	_______________________________________________


Detailed state:  trans 26.821 -16.655 -2.667 quatxyzw 0.502394 -0.127195 0.625373 0.583378 center 1.857 0.216 -0.019 ntor 10 170.5991 79.8979 8.0347 -72.7366 5.6555 -12.4432 -166.0099 -74.8062 -77.3419 87.8196
State:	 26.821 -16.655  -2.667   0.619 -0.157  0.770 108.623    170.60   79.90    8.03  -72.74    5.66  -12.44 -166.01  -74.81  -77.34   87.82

DOCKED: MODEL       74
DOCKED: USER    Run = 74
DOCKED: USER    DPF = ligand_dock.biased.dpf
DOCKED: USER  
DOCKED: USER    Estimated Free Energy of Binding    =  -10.48 kcal/mol  [=(1)+(2)+(3)-(4)]
DOCKED: USER    Estimated Inhibition Constant, Ki   =   20.68 nM (nanomolar)  [Temperature = 298.15 K]
DOCKED: USER    
DOCKED: USER    (1) Final Intermolecular Energy     =  -13.47 kcal/mol
DOCKED: USER        vdW + Hbond + desolv Energy     =  -13.47 kcal/mol
DOCKED: USER        Electrostatic Energy            =   +0.00 kcal/mol
DOCKED: USER    (2) Final Total Internal Energy     =   -2.08 kcal/mol
DOCKED: USER    (3) Torsional Free Energy           =   +2.98 kcal/mol
DOCKED: USER    (4) Unbound System's Energy  [=(2)] =   -2.08 kcal/mol
DOCKED: USER    
DOCKED: USER    
DOCKED: USER    NEWDPF move ligand.pdbqt
DOCKED: USER    NEWDPF about 1.857000 0.216000 -0.019000
DOCKED: USER    NEWDPF tran0 26.821302 -16.655011 -2.667348
DOCKED: USER    NEWDPF quaternion0 0.502394 -0.127195 0.625373 0.583378
DOCKED: USER    NEWDPF axisangle0 0.618560 -0.156606 0.769973 108.622973
DOCKED: USER    NEWDPF quat0 0.618560 -0.156606 0.769973 108.622973
DOCKED: USER    NEWDPF dihe0 170.60 79.90 8.03 -72.74 5.66 -12.44 -166.01 -74.81 -77.34 87.82 
DOCKED: USER  keepresnum = 1 
DOCKED: USER  
DOCKED: REMARK  Name = 
DOCKED: REMARK  12 active torsions:
DOCKED: REMARK  status: ('A' for Active; 'I' for Inactive)
DOCKED: REMARK    1  A    between atoms: C_2  and  O_3
DOCKED: REMARK    2  A    between atoms: O_3  and  C_4
DOCKED: REMARK    3  A    between atoms: C_4  and  C_5
DOCKED: REMARK    4  A    between atoms: C_10  and  C_11
DOCKED: REMARK    5  A    between atoms: C_11  and  N_12
DOCKED: REMARK    6  A    between atoms: N_12  and  C_13
DOCKED: REMARK    7  A    between atoms: N_12  and  C_15
DOCKED: REMARK    8  A    between atoms: C_13  and  C_14
DOCKED: REMARK    9  A    between atoms: C_15  and  C_16
DOCKED: REMARK   10  A    between atoms: N_21  and  C_22
DOCKED: REMARK   11  A    between atoms: C_25  and  C_26
DOCKED: REMARK   12  A    between atoms: N_27  and  O_28
DOCKED: REMARK                            x       y       z     vdW  Elec       q    Type
DOCKED: REMARK                         _______ _______ _______ _____ _____    ______ ____
DOCKED: USER                              x       y       z     vdW  Elec       q    Type
DOCKED: USER                           _______ _______ _______ _____ _____    ______ ____
DOCKED: ROOT
DOCKED: ATOM      1  C   UNL     1      27.570 -15.689  -1.559 -0.31 -0.00    +0.000 C 
DOCKED: ENDROOT
DOCKED: BRANCH   1   2
DOCKED: ATOM      2  C   UNL     1      26.838 -14.678  -2.393 -0.28 -0.00    +0.000 A 
DOCKED: ATOM      3  C   UNL     1      25.713 -15.060  -3.140 -0.47 -0.00    +0.000 A 
DOCKED: ATOM      4  C   UNL     1      25.050 -14.131  -3.948 -0.40 -0.00    +0.000 A 
DOCKED: ATOM      5  C   UNL     1      25.512 -12.811  -4.030 -0.18 -0.00    +0.000 A 
DOCKED: ATOM      6  C   UNL     1      24.854 -11.872  -4.839 -0.30 -0.00    +0.000 A 
DOCKED: ATOM      7  C   UNL     1      25.325 -10.551  -4.921 -0.32 -0.00    +0.000 A 
DOCKED: ATOM      8  C   UNL     1      26.459 -10.174  -4.186 -0.16 -0.00    +0.000 A 
DOCKED: ATOM      9  C   UNL     1      27.122 -11.102  -3.379 -0.12 -0.00    +0.000 A 
DOCKED: ATOM     10  C   UNL     1      26.657 -12.422  -3.293 -0.14 -0.00    +0.000 A 
DOCKED: ATOM     11  C   UNL     1      27.314 -13.360  -2.484 -0.17 -0.00    +0.000 A 
DOCKED: BRANCH   7  12
DOCKED: ATOM     12  C   UNL     1      24.611  -9.534  -5.773 -0.36 -0.00    +0.000 C 
DOCKED: BRANCH  12  13
DOCKED: ATOM     13  N   UNL     1      23.731  -8.694  -4.931 -0.37 -0.00    +0.000 N 
DOCKED: ATOM     14  H   UNL     1      23.320  -9.289  -4.212 -0.38 -0.00    +0.000 HD
DOCKED: BRANCH  13  15
DOCKED: ATOM     15  C   UNL     1      22.588  -8.160  -5.709 -0.43 -0.00    +0.000 C 
DOCKED: ATOM     16  C   UNL     1      22.889  -8.117  -7.207 -0.37 -0.00    +0.000 C 
DOCKED: ENDBRANCH  13  15
DOCKED: BRANCH  13  17
DOCKED: ATOM     17  C   UNL     1      24.493  -7.663  -4.183 -0.21 -0.00    +0.000 C 
DOCKED: ATOM     18  C   UNL     1      23.733  -6.346  -3.972 -0.20 -0.00    +0.000 C 
DOCKED: ENDBRANCH  13  17
DOCKED: ENDBRANCH  12  13
DOCKED: ENDBRANCH   7  12
DOCKED: ENDBRANCH   1   2
DOCKED: BRANCH   1  19
DOCKED: ATOM     19  O   UNL     1      27.136 -16.996  -1.919 -0.43 -0.00    +0.000 OA
DOCKED: BRANCH  19  21
DOCKED: ATOM     20  O   UNL     1      26.259 -18.149  -0.123 -0.70 -0.00    +0.000 OA
DOCKED: ATOM     21  C   UNL     1      26.085 -17.647  -1.268 -0.51 -0.00    +0.000 C 
DOCKED: ATOM     22  N   UNL     1      24.822 -17.773  -1.937 -0.59 -0.00    +0.000 N 
DOCKED: ATOM     23  H   UNL     1      24.777 -17.511  -2.885 -0.05 -0.00    +0.000 HD
DOCKED: BRANCH  22  24
DOCKED: ATOM     24  C   UNL     1      23.620 -18.256  -1.315 -0.70 -0.00    +0.000 A 
DOCKED: ATOM     25  C   UNL     1      23.252 -17.764  -0.055 -0.55 -0.00    +0.000 A 
DOCKED: ATOM     26  C   UNL     1      22.100 -18.233   0.582 -0.24 -0.00    +0.000 A 
DOCKED: ATOM     27  C   UNL     1      21.293 -19.210  -0.026 -0.68 -0.00    +0.000 A 
DOCKED: ATOM     28  C   UNL     1      21.683 -19.729  -1.275 -0.04 -0.00    +0.000 A 
DOCKED: ATOM     29  C   UNL     1      22.836 -19.259  -1.911 -0.21 -0.00    +0.000 A 
DOCKED: BRANCH  27  30
DOCKED: ATOM     30  C   UNL     1      20.075 -19.701   0.663 -0.76 -0.00    +0.000 C 
DOCKED: ATOM     31  N   UNL     1      19.050 -20.409  -0.045 -0.69 -0.00    +0.000 N 
DOCKED: ATOM     32  O   UNL     1      19.928 -19.480   1.896 -0.74 -0.00    +0.000 OA
DOCKED: ATOM     33  H   UNL     1      19.111 -20.512  -1.021 -0.53 -0.00    +0.000 HD
DOCKED: BRANCH  31  34
DOCKED: ATOM     34  O   UNL     1      17.997 -20.934   0.625 -0.84 -0.00    +0.000 OA
DOCKED: ATOM     35  H   UNL     1      18.020 -20.639   1.550 -0.03 -0.00    +0.000 HD
DOCKED: ENDBRANCH  31  34
DOCKED: ENDBRANCH  27  30
DOCKED: ENDBRANCH  22  24
DOCKED: ENDBRANCH  19  21
DOCKED: ENDBRANCH   1  19
DOCKED: TORSDOF 10
DOCKED: TER
DOCKED: ENDMDL
________________________________________________________________________________


	BEGINNING GENETIC ALGORITHM DOCKING 75 of 100
Run: 75 Seed: 1076986820 667964746 [ Run 75 of 100 GA/GALS ]
Beginning LAMARCKIAN GENETIC ALGORITHM (LGA), with a maximum of 2500000 energy evaluations.

Final-Value: -15.986


	FINAL GENETIC ALGORITHM DOCKED STATE
	_______________________________________________


Detailed state:  trans 28.847 -15.523 -1.352 quatxyzw -0.574340 0.539810 -0.540136 0.294945 center 1.857 0.216 -0.019 ntor 10 -38.3731 133.3726 10.1239 -73.7434 -56.4261 111.6131 -177.3564 -107.6626 -14.0595 -93.1488
State:	 28.847 -15.523  -1.352  -0.601  0.565 -0.565 145.692    -38.37  133.37   10.12  -73.74  -56.43  111.61 -177.36 -107.66  -14.06  -93.15

DOCKED: MODEL       75
DOCKED: USER    Run = 75
DOCKED: USER    DPF = ligand_dock.biased.dpf
DOCKED: USER  
DOCKED: USER    Estimated Free Energy of Binding    =  -10.86 kcal/mol  [=(1)+(2)+(3)-(4)]
DOCKED: USER    Estimated Inhibition Constant, Ki   =   10.97 nM (nanomolar)  [Temperature = 298.15 K]
DOCKED: USER    
DOCKED: USER    (1) Final Intermolecular Energy     =  -13.84 kcal/mol
DOCKED: USER        vdW + Hbond + desolv Energy     =  -13.84 kcal/mol
DOCKED: USER        Electrostatic Energy            =   +0.00 kcal/mol
DOCKED: USER    (2) Final Total Internal Energy     =   -2.14 kcal/mol
DOCKED: USER    (3) Torsional Free Energy           =   +2.98 kcal/mol
DOCKED: USER    (4) Unbound System's Energy  [=(2)] =   -2.14 kcal/mol
DOCKED: USER    
DOCKED: USER    
DOCKED: USER    NEWDPF move ligand.pdbqt
DOCKED: USER    NEWDPF about 1.857000 0.216000 -0.019000
DOCKED: USER    NEWDPF tran0 28.847463 -15.523367 -1.352192
DOCKED: USER    NEWDPF quaternion0 -0.574340 0.539810 -0.540136 0.294945
DOCKED: USER    NEWDPF axisangle0 -0.601079 0.564942 -0.565283 145.691555
DOCKED: USER    NEWDPF quat0 -0.601079 0.564942 -0.565283 145.691555
DOCKED: USER    NEWDPF dihe0 -38.37 133.37 10.12 -73.74 -56.43 111.61 -177.36 -107.66 -14.06 -93.15 
DOCKED: USER  keepresnum = 1 
DOCKED: USER  
DOCKED: REMARK  Name = 
DOCKED: REMARK  12 active torsions:
DOCKED: REMARK  status: ('A' for Active; 'I' for Inactive)
DOCKED: REMARK    1  A    between atoms: C_2  and  O_3
DOCKED: REMARK    2  A    between atoms: O_3  and  C_4
DOCKED: REMARK    3  A    between atoms: C_4  and  C_5
DOCKED: REMARK    4  A    between atoms: C_10  and  C_11
DOCKED: REMARK    5  A    between atoms: C_11  and  N_12
DOCKED: REMARK    6  A    between atoms: N_12  and  C_13
DOCKED: REMARK    7  A    between atoms: N_12  and  C_15
DOCKED: REMARK    8  A    between atoms: C_13  and  C_14
DOCKED: REMARK    9  A    between atoms: C_15  and  C_16
DOCKED: REMARK   10  A    between atoms: N_21  and  C_22
DOCKED: REMARK   11  A    between atoms: C_25  and  C_26
DOCKED: REMARK   12  A    between atoms: N_27  and  O_28
DOCKED: REMARK                            x       y       z     vdW  Elec       q    Type
DOCKED: REMARK                         _______ _______ _______ _____ _____    ______ ____
DOCKED: USER                              x       y       z     vdW  Elec       q    Type
DOCKED: USER                           _______ _______ _______ _____ _____    ______ ____
DOCKED: ROOT
DOCKED: ATOM      1  C   UNL     1      29.942 -16.706  -1.706 -0.21 -0.00    +0.000 C 
DOCKED: ENDROOT
DOCKED: BRANCH   1   2
DOCKED: ATOM      2  C   UNL     1      30.119 -15.775  -2.870 -0.12 -0.00    +0.000 A 
DOCKED: ATOM      3  C   UNL     1      30.998 -14.684  -2.774 -0.03 -0.00    +0.000 A 
DOCKED: ATOM      4  C   UNL     1      31.138 -13.792  -3.841 -0.02 -0.00    +0.000 A 
DOCKED: ATOM      5  C   UNL     1      30.392 -13.972  -5.014 -0.08 -0.00    +0.000 A 
DOCKED: ATOM      6  C   UNL     1      30.526 -13.081  -6.090 -0.08 -0.00    +0.000 A 
DOCKED: ATOM      7  C   UNL     1      29.772 -13.263  -7.260 -0.21 -0.00    +0.000 A 
DOCKED: ATOM      8  C   UNL     1      28.882 -14.344  -7.350 -0.17 -0.00    +0.000 A 
DOCKED: ATOM      9  C   UNL     1      28.741 -15.236  -6.283 -0.33 -0.00    +0.000 A 
DOCKED: ATOM     10  C   UNL     1      29.491 -15.060  -5.111 -0.22 -0.00    +0.000 A 
DOCKED: ATOM     11  C   UNL     1      29.358 -15.950  -4.036 -0.23 -0.00    +0.000 A 
DOCKED: BRANCH   7  12
DOCKED: ATOM     12  C   UNL     1      29.926 -12.321  -8.426 -0.17 -0.00    +0.000 C 
DOCKED: BRANCH  12  13
DOCKED: ATOM     13  N   UNL     1      28.599 -11.980  -8.983 -0.24 -0.00    +0.000 N 
DOCKED: ATOM     14  H   UNL     1      28.020 -12.819  -8.958 -0.14 -0.00    +0.000 HD
DOCKED: BRANCH  13  15
DOCKED: ATOM     15  C   UNL     1      28.694 -11.603 -10.413 -0.26 -0.00    +0.000 C 
DOCKED: ATOM     16  C   UNL     1      27.716 -12.399 -11.278 -0.42 +0.00    +0.000 C 
DOCKED: ENDBRANCH  13  15
DOCKED: BRANCH  13  17
DOCKED: ATOM     17  C   UNL     1      27.877 -10.994  -8.141 -0.17 -0.00    +0.000 C 
DOCKED: ATOM     18  C   UNL     1      26.359 -10.960  -8.367 -0.24 -0.00    +0.000 C 
DOCKED: ENDBRANCH  13  17
DOCKED: ENDBRANCH  12  13
DOCKED: ENDBRANCH   7  12
DOCKED: ENDBRANCH   1   2
DOCKED: BRANCH   1  19
DOCKED: ATOM     19  O   UNL     1      29.118 -16.082  -0.727 -0.24 -0.00    +0.000 OA
DOCKED: BRANCH  19  21
DOCKED: ATOM     20  O   UNL     1      27.037 -15.142  -1.055 -0.30 -0.00    +0.000 OA
DOCKED: ATOM     21  C   UNL     1      27.724 -16.157  -0.756 -0.36 -0.00    +0.000 C 
DOCKED: ATOM     22  N   UNL     1      27.086 -17.392  -0.400 -0.49 -0.00    +0.000 N 
DOCKED: ATOM     23  H   UNL     1      27.647 -18.106  -0.021 -0.38 -0.00    +0.000 HD
DOCKED: BRANCH  22  24
DOCKED: ATOM     24  C   UNL     1      25.682 -17.655  -0.560 -0.58 -0.00    +0.000 A 
DOCKED: ATOM     25  C   UNL     1      25.001 -17.112  -1.658 -0.58 -0.00    +0.000 A 
DOCKED: ATOM     26  C   UNL     1      23.632 -17.333  -1.826 -0.18 -0.00    +0.000 A 
DOCKED: ATOM     27  C   UNL     1      22.911 -18.098  -0.892 -0.73 -0.00    +0.000 A 
DOCKED: ATOM     28  C   UNL     1      23.588 -18.612   0.229 -0.36 -0.00    +0.000 A 
DOCKED: ATOM     29  C   UNL     1      24.959 -18.390   0.395 -0.22 -0.00    +0.000 A 
DOCKED: BRANCH  27  30
DOCKED: ATOM     30  C   UNL     1      21.457 -18.322  -1.081 -0.71 -0.00    +0.000 C 
DOCKED: ATOM     31  N   UNL     1      20.953 -19.554  -1.612 -0.74 -0.00    +0.000 N 
DOCKED: ATOM     32  O   UNL     1      20.643 -17.405  -0.782 -1.97 +0.00    +0.000 OA
DOCKED: ATOM     33  H   UNL     1      21.580 -20.243  -1.930 -0.47 -0.00    +0.000 HD
DOCKED: BRANCH  31  34
DOCKED: ATOM     34  O   UNL     1      19.619 -19.773  -1.680 -1.66 -0.00    +0.000 OA
DOCKED: ATOM     35  H   UNL     1      19.145 -18.949  -1.483 -0.55 -0.00    +0.000 HD
DOCKED: ENDBRANCH  31  34
DOCKED: ENDBRANCH  27  30
DOCKED: ENDBRANCH  22  24
DOCKED: ENDBRANCH  19  21
DOCKED: ENDBRANCH   1  19
DOCKED: TORSDOF 10
DOCKED: TER
DOCKED: ENDMDL
________________________________________________________________________________


	BEGINNING GENETIC ALGORITHM DOCKING 76 of 100
Run: 76 Seed: 1444945931 814701436 [ Run 76 of 100 GA/GALS ]
Beginning LAMARCKIAN GENETIC ALGORITHM (LGA), with a maximum of 2500000 energy evaluations.

Final-Value: -15.276


	FINAL GENETIC ALGORITHM DOCKED STATE
	_______________________________________________


Detailed state:  trans 29.901 -15.394 0.150 quatxyzw -0.681286 0.594746 0.149759 -0.399624 center 1.857 0.216 -0.019 ntor 10 98.4507 -105.9053 -151.6392 -11.7647 179.5398 153.7057 60.7296 83.9478 88.2076 -95.0606
State:	 29.901 -15.394   0.150  -0.743  0.649  0.163 -132.891     98.45 -105.91 -151.64  -11.76  179.54  153.71   60.73   83.95   88.21  -95.06

DOCKED: MODEL       76
DOCKED: USER    Run = 76
DOCKED: USER    DPF = ligand_dock.biased.dpf
DOCKED: USER  
DOCKED: USER    Estimated Free Energy of Binding    =  -10.57 kcal/mol  [=(1)+(2)+(3)-(4)]
DOCKED: USER    Estimated Inhibition Constant, Ki   =   17.96 nM (nanomolar)  [Temperature = 298.15 K]
DOCKED: USER    
DOCKED: USER    (1) Final Intermolecular Energy     =  -13.55 kcal/mol
DOCKED: USER        vdW + Hbond + desolv Energy     =  -13.55 kcal/mol
DOCKED: USER        Electrostatic Energy            =   +0.00 kcal/mol
DOCKED: USER    (2) Final Total Internal Energy     =   -1.73 kcal/mol
DOCKED: USER    (3) Torsional Free Energy           =   +2.98 kcal/mol
DOCKED: USER    (4) Unbound System's Energy  [=(2)] =   -1.73 kcal/mol
DOCKED: USER    
DOCKED: USER    
DOCKED: USER    NEWDPF move ligand.pdbqt
DOCKED: USER    NEWDPF about 1.857000 0.216000 -0.019000
DOCKED: USER    NEWDPF tran0 29.900668 -15.393676 0.149643
DOCKED: USER    NEWDPF quaternion0 -0.681286 0.594746 0.149759 -0.399624
DOCKED: USER    NEWDPF axisangle0 -0.743211 0.648805 0.163371 -132.890687
DOCKED: USER    NEWDPF quat0 -0.743211 0.648805 0.163371 -132.890687
DOCKED: USER    NEWDPF dihe0 98.45 -105.91 -151.64 -11.76 179.54 153.71 60.73 83.95 88.21 -95.06 
DOCKED: USER  keepresnum = 1 
DOCKED: USER  
DOCKED: REMARK  Name = 
DOCKED: REMARK  12 active torsions:
DOCKED: REMARK  status: ('A' for Active; 'I' for Inactive)
DOCKED: REMARK    1  A    between atoms: C_2  and  O_3
DOCKED: REMARK    2  A    between atoms: O_3  and  C_4
DOCKED: REMARK    3  A    between atoms: C_4  and  C_5
DOCKED: REMARK    4  A    between atoms: C_10  and  C_11
DOCKED: REMARK    5  A    between atoms: C_11  and  N_12
DOCKED: REMARK    6  A    between atoms: N_12  and  C_13
DOCKED: REMARK    7  A    between atoms: N_12  and  C_15
DOCKED: REMARK    8  A    between atoms: C_13  and  C_14
DOCKED: REMARK    9  A    between atoms: C_15  and  C_16
DOCKED: REMARK   10  A    between atoms: N_21  and  C_22
DOCKED: REMARK   11  A    between atoms: C_25  and  C_26
DOCKED: REMARK   12  A    between atoms: N_27  and  O_28
DOCKED: REMARK                            x       y       z     vdW  Elec       q    Type
DOCKED: REMARK                         _______ _______ _______ _____ _____    ______ ____
DOCKED: USER                              x       y       z     vdW  Elec       q    Type
DOCKED: USER                           _______ _______ _______ _____ _____    ______ ____
DOCKED: ROOT
DOCKED: ATOM      1  C   UNL     1      30.878 -14.213  -0.462 -0.05 -0.00    +0.000 C 
DOCKED: ENDROOT
DOCKED: BRANCH   1   2
DOCKED: ATOM      2  C   UNL     1      30.490 -13.625   0.864 -0.06 -0.00    +0.000 A 
DOCKED: ATOM      3  C   UNL     1      30.828 -12.299   1.173 -0.02 -0.00    +0.000 A 
DOCKED: ATOM      4  C   UNL     1      30.502 -11.758   2.421 -0.03 -0.00    +0.000 A 
DOCKED: ATOM      5  C   UNL     1      29.846 -12.542   3.380 -0.11 -0.00    +0.000 A 
DOCKED: ATOM      6  C   UNL     1      29.516 -12.008   4.636 -0.15 -0.00    +0.000 A 
DOCKED: ATOM      7  C   UNL     1      28.863 -12.799   5.594 -0.34 -0.00    +0.000 A 
DOCKED: ATOM      8  C   UNL     1      28.540 -14.130   5.289 -0.46 -0.00    +0.000 A 
DOCKED: ATOM      9  C   UNL     1      28.865 -14.671   4.043 -0.35 -0.00    +0.000 A 
DOCKED: ATOM     10  C   UNL     1      29.517 -13.886   3.081 -0.21 -0.00    +0.000 A 
DOCKED: ATOM     11  C   UNL     1      29.847 -14.419   1.826 -0.13 -0.00    +0.000 A 
DOCKED: BRANCH   7  12
DOCKED: ATOM     12  C   UNL     1      28.488 -12.226   6.936 -0.41 +0.00    +0.000 C 
DOCKED: BRANCH  12  13
DOCKED: ATOM     13  N   UNL     1      29.541 -12.529   7.930 -0.33 -0.00    +0.000 N 
DOCKED: ATOM     14  H   UNL     1      30.413 -12.693   7.427 -0.00 -0.00    +0.000 HD
DOCKED: BRANCH  13  15
DOCKED: ATOM     15  C   UNL     1      29.254 -13.791   8.653 -0.44 -0.00    +0.000 C 
DOCKED: ATOM     16  C   UNL     1      28.537 -13.537   9.979 -0.53 -0.00    +0.000 C 
DOCKED: ENDBRANCH  13  15
DOCKED: BRANCH  13  17
DOCKED: ATOM     17  C   UNL     1      29.822 -11.372   8.815 -0.29 -0.00    +0.000 C 
DOCKED: ATOM     18  C   UNL     1      29.809 -10.013   8.102 -0.25 -0.00    +0.000 C 
DOCKED: ENDBRANCH  13  17
DOCKED: ENDBRANCH  12  13
DOCKED: ENDBRANCH   7  12
DOCKED: ENDBRANCH   1   2
DOCKED: BRANCH   1  19
DOCKED: ATOM     19  O   UNL     1      30.449 -15.570  -0.516 -0.13 -0.00    +0.000 OA
DOCKED: BRANCH  19  21
DOCKED: ATOM     20  O   UNL     1      28.866 -16.039  -2.127 -0.23 -0.00    +0.000 OA
DOCKED: ATOM     21  C   UNL     1      29.159 -15.938  -0.904 -0.22 -0.00    +0.000 C 
DOCKED: ATOM     22  N   UNL     1      28.164 -16.157   0.106 -0.27 -0.00    +0.000 N 
DOCKED: ATOM     23  H   UNL     1      28.390 -15.914   1.033 -0.66 -0.00    +0.000 HD
DOCKED: BRANCH  22  24
DOCKED: ATOM     24  C   UNL     1      26.861 -16.709  -0.146 -0.39 -0.00    +0.000 A 
DOCKED: ATOM     25  C   UNL     1      25.814 -15.857  -0.519 -0.28 -0.00    +0.000 A 
DOCKED: ATOM     26  C   UNL     1      24.532 -16.363  -0.748 -0.36 -0.00    +0.000 A 
DOCKED: ATOM     27  C   UNL     1      24.268 -17.736  -0.600 -0.66 -0.00    +0.000 A 
DOCKED: ATOM     28  C   UNL     1      25.312 -18.586  -0.190 -0.49 -0.00    +0.000 A 
DOCKED: ATOM     29  C   UNL     1      26.594 -18.076   0.038 -0.51 -0.00    +0.000 A 
DOCKED: BRANCH  27  30
DOCKED: ATOM     30  C   UNL     1      22.902 -18.260  -0.843 -0.83 -0.00    +0.000 C 
DOCKED: ATOM     31  N   UNL     1      21.749 -17.413  -0.748 -0.71 -0.00    +0.000 N 
DOCKED: ATOM     32  O   UNL     1      22.745 -19.479  -1.126 -0.81 -0.00    +0.000 OA
DOCKED: ATOM     33  H   UNL     1      21.849 -16.482  -0.444 -0.05 -0.00    +0.000 HD
DOCKED: BRANCH  31  34
DOCKED: ATOM     34  O   UNL     1      20.524 -17.889  -1.073 -2.20 -0.00    +0.000 OA
DOCKED: ATOM     35  H   UNL     1      19.966 -17.160  -1.387 -0.60 -0.00    +0.000 HD
DOCKED: ENDBRANCH  31  34
DOCKED: ENDBRANCH  27  30
DOCKED: ENDBRANCH  22  24
DOCKED: ENDBRANCH  19  21
DOCKED: ENDBRANCH   1  19
DOCKED: TORSDOF 10
DOCKED: TER
DOCKED: ENDMDL
________________________________________________________________________________


	BEGINNING GENETIC ALGORITHM DOCKING 77 of 100
Run: 77 Seed: 37603961 1105801222 [ Run 77 of 100 GA/GALS ]
Beginning LAMARCKIAN GENETIC ALGORITHM (LGA), with a maximum of 2500000 energy evaluations.

Final-Value: -16.791


	FINAL GENETIC ALGORITHM DOCKED STATE
	_______________________________________________


Detailed state:  trans 27.171 -15.694 -0.453 quatxyzw -0.758266 0.509531 -0.406561 0.010912 center 1.857 0.216 -0.019 ntor 10 -35.8941 59.3967 -2.5027 -13.8926 102.1672 85.5371 -66.1662 100.0913 -10.7635 -79.8500
State:	 27.171 -15.694  -0.453  -0.758  0.510 -0.407 178.749    -35.89   59.40   -2.50  -13.89  102.17   85.54  -66.17  100.09  -10.76  -79.85

DOCKED: MODEL       77
DOCKED: USER    Run = 77
DOCKED: USER    DPF = ligand_dock.biased.dpf
DOCKED: USER  
DOCKED: USER    Estimated Free Energy of Binding    =  -11.76 kcal/mol  [=(1)+(2)+(3)-(4)]
DOCKED: USER    Estimated Inhibition Constant, Ki   =    2.42 nM (nanomolar)  [Temperature = 298.15 K]
DOCKED: USER    
DOCKED: USER    (1) Final Intermolecular Energy     =  -14.74 kcal/mol
DOCKED: USER        vdW + Hbond + desolv Energy     =  -14.74 kcal/mol
DOCKED: USER        Electrostatic Energy            =   +0.00 kcal/mol
DOCKED: USER    (2) Final Total Internal Energy     =   -2.05 kcal/mol
DOCKED: USER    (3) Torsional Free Energy           =   +2.98 kcal/mol
DOCKED: USER    (4) Unbound System's Energy  [=(2)] =   -2.05 kcal/mol
DOCKED: USER    
DOCKED: USER    
DOCKED: USER    NEWDPF move ligand.pdbqt
DOCKED: USER    NEWDPF about 1.857000 0.216000 -0.019000
DOCKED: USER    NEWDPF tran0 27.171344 -15.694073 -0.453048
DOCKED: USER    NEWDPF quaternion0 -0.758266 0.509531 -0.406561 0.010912
DOCKED: USER    NEWDPF axisangle0 -0.758311 0.509561 -0.406585 178.749503
DOCKED: USER    NEWDPF quat0 -0.758311 0.509561 -0.406585 178.749503
DOCKED: USER    NEWDPF dihe0 -35.89 59.40 -2.50 -13.89 102.17 85.54 -66.17 100.09 -10.76 -79.85 
DOCKED: USER  keepresnum = 1 
DOCKED: USER  
DOCKED: REMARK  Name = 
DOCKED: REMARK  12 active torsions:
DOCKED: REMARK  status: ('A' for Active; 'I' for Inactive)
DOCKED: REMARK    1  A    between atoms: C_2  and  O_3
DOCKED: REMARK    2  A    between atoms: O_3  and  C_4
DOCKED: REMARK    3  A    between atoms: C_4  and  C_5
DOCKED: REMARK    4  A    between atoms: C_10  and  C_11
DOCKED: REMARK    5  A    between atoms: C_11  and  N_12
DOCKED: REMARK    6  A    between atoms: N_12  and  C_13
DOCKED: REMARK    7  A    between atoms: N_12  and  C_15
DOCKED: REMARK    8  A    between atoms: C_13  and  C_14
DOCKED: REMARK    9  A    between atoms: C_15  and  C_16
DOCKED: REMARK   10  A    between atoms: N_21  and  C_22
DOCKED: REMARK   11  A    between atoms: C_25  and  C_26
DOCKED: REMARK   12  A    between atoms: N_27  and  O_28
DOCKED: REMARK                            x       y       z     vdW  Elec       q    Type
DOCKED: REMARK                         _______ _______ _______ _____ _____    ______ ____
DOCKED: USER                              x       y       z     vdW  Elec       q    Type
DOCKED: USER                           _______ _______ _______ _____ _____    ______ ____
DOCKED: ROOT
DOCKED: ATOM      1  C   UNL     1      28.570 -15.909  -1.301 -0.26 -0.00    +0.000 C 
DOCKED: ENDROOT
DOCKED: BRANCH   1   2
DOCKED: ATOM      2  C   UNL     1      28.128 -14.560  -1.788 -0.15 -0.00    +0.000 A 
DOCKED: ATOM      3  C   UNL     1      28.536 -13.398  -1.115 -0.09 -0.00    +0.000 A 
DOCKED: ATOM      4  C   UNL     1      28.096 -12.141  -1.542 -0.08 -0.00    +0.000 A 
DOCKED: ATOM      5  C   UNL     1      27.232 -12.031  -2.640 -0.11 -0.00    +0.000 A 
DOCKED: ATOM      6  C   UNL     1      26.785 -10.774  -3.076 -0.09 -0.00    +0.000 A 
DOCKED: ATOM      7  C   UNL     1      25.915 -10.671  -4.173 -0.22 -0.00    +0.000 A 
DOCKED: ATOM      8  C   UNL     1      25.496 -11.835  -4.836 -0.32 -0.00    +0.000 A 
DOCKED: ATOM      9  C   UNL     1      25.934 -13.091  -4.409 -0.34 -0.00    +0.000 A 
DOCKED: ATOM     10  C   UNL     1      26.803 -13.201  -3.313 -0.23 -0.00    +0.000 A 
DOCKED: ATOM     11  C   UNL     1      27.250 -14.457  -2.879 -0.24 -0.00    +0.000 A 
DOCKED: BRANCH   7  12
DOCKED: ATOM     12  C   UNL     1      25.448  -9.323  -4.657 -0.25 -0.00    +0.000 C 
DOCKED: BRANCH  12  13
DOCKED: ATOM     13  N   UNL     1      24.260  -9.479  -5.524 -0.36 -0.00    +0.000 N 
DOCKED: ATOM     14  H   UNL     1      23.829 -10.379  -5.314 -0.11 -0.00    +0.000 HD
DOCKED: BRANCH  13  15
DOCKED: ATOM     15  C   UNL     1      24.641  -9.544  -6.956 -0.34 -0.00    +0.000 C 
DOCKED: ATOM     16  C   UNL     1      23.989 -10.732  -7.664 -0.27 -0.00    +0.000 C 
DOCKED: ENDBRANCH  13  15
DOCKED: BRANCH  13  17
DOCKED: ATOM     17  C   UNL     1      23.211  -8.474  -5.220 -0.40 -0.00    +0.000 C 
DOCKED: ATOM     18  C   UNL     1      22.744  -7.660  -6.434 -0.40 -0.00    +0.000 C 
DOCKED: ENDBRANCH  13  17
DOCKED: ENDBRANCH  12  13
DOCKED: ENDBRANCH   7  12
DOCKED: ENDBRANCH   1   2
DOCKED: BRANCH   1  19
DOCKED: ATOM     19  O   UNL     1      27.759 -16.298  -0.197 -0.38 -0.00    +0.000 OA
DOCKED: BRANCH  19  21
DOCKED: ATOM     20  O   UNL     1      26.837 -18.404  -0.015 -0.65 -0.00    +0.000 OA
DOCKED: ATOM     21  C   UNL     1      26.692 -17.190  -0.324 -0.54 -0.00    +0.000 C 
DOCKED: ATOM     22  N   UNL     1      25.445 -16.714  -0.849 -0.51 -0.00    +0.000 N 
DOCKED: ATOM     23  H   UNL     1      25.422 -15.805  -1.225 -0.01 -0.00    +0.000 HD
DOCKED: BRANCH  22  24
DOCKED: ATOM     24  C   UNL     1      24.226 -17.477  -0.862 -0.65 -0.00    +0.000 A 
DOCKED: ATOM     25  C   UNL     1      23.000 -16.817  -0.702 -0.44 -0.00    +0.000 A 
DOCKED: ATOM     26  C   UNL     1      21.803 -17.537  -0.688 -0.64 -0.00    +0.000 A 
DOCKED: ATOM     27  C   UNL     1      21.807 -18.936  -0.827 -0.75 -0.00    +0.000 A 
DOCKED: ATOM     28  C   UNL     1      23.041 -19.600  -0.952 -0.40 -0.00    +0.000 A 
DOCKED: ATOM     29  C   UNL     1      24.238 -18.878  -0.966 -0.55 -0.00    +0.000 A 
DOCKED: BRANCH  27  30
DOCKED: ATOM     30  C   UNL     1      20.528 -19.687  -0.807 -0.87 -0.00    +0.000 C 
DOCKED: ATOM     31  N   UNL     1      20.083 -20.373   0.370 -0.71 -0.00    +0.000 N 
DOCKED: ATOM     32  O   UNL     1      19.821 -19.737  -1.850 -1.85 -0.00    +0.000 OA
DOCKED: ATOM     33  H   UNL     1      20.665 -20.414   1.162 -0.46 -0.00    +0.000 HD
DOCKED: BRANCH  31  34
DOCKED: ATOM     34  O   UNL     1      18.866 -20.966   0.395 -0.77 -0.00    +0.000 OA
DOCKED: ATOM     35  H   UNL     1      18.407 -20.800  -0.445 -0.26 -0.00    +0.000 HD
DOCKED: ENDBRANCH  31  34
DOCKED: ENDBRANCH  27  30
DOCKED: ENDBRANCH  22  24
DOCKED: ENDBRANCH  19  21
DOCKED: ENDBRANCH   1  19
DOCKED: TORSDOF 10
DOCKED: TER
DOCKED: ENDMDL
________________________________________________________________________________


	BEGINNING GENETIC ALGORITHM DOCKING 78 of 100
Run: 78 Seed: 2085371465 77189814 [ Run 78 of 100 GA/GALS ]
Beginning LAMARCKIAN GENETIC ALGORITHM (LGA), with a maximum of 2500000 energy evaluations.

Final-Value: -15.829


	FINAL GENETIC ALGORITHM DOCKED STATE
	_______________________________________________


Detailed state:  trans 28.330 -15.568 -1.840 quatxyzw 0.771454 -0.129900 0.512483 0.354042 center 1.857 0.216 -0.019 ntor 10 -179.9691 -162.3987 17.8311 -58.5536 -161.8261 150.9254 1.5321 -34.4874 -144.6507 153.4821
State:	 28.330 -15.568  -1.840   0.825 -0.139  0.548 138.531   -179.97 -162.40   17.83  -58.55 -161.83  150.93    1.53  -34.49 -144.65  153.48

DOCKED: MODEL       78
DOCKED: USER    Run = 78
DOCKED: USER    DPF = ligand_dock.biased.dpf
DOCKED: USER  
DOCKED: USER    Estimated Free Energy of Binding    =  -10.59 kcal/mol  [=(1)+(2)+(3)-(4)]
DOCKED: USER    Estimated Inhibition Constant, Ki   =   17.22 nM (nanomolar)  [Temperature = 298.15 K]
DOCKED: USER    
DOCKED: USER    (1) Final Intermolecular Energy     =  -13.57 kcal/mol
DOCKED: USER        vdW + Hbond + desolv Energy     =  -13.57 kcal/mol
DOCKED: USER        Electrostatic Energy            =   +0.00 kcal/mol
DOCKED: USER    (2) Final Total Internal Energy     =   -2.25 kcal/mol
DOCKED: USER    (3) Torsional Free Energy           =   +2.98 kcal/mol
DOCKED: USER    (4) Unbound System's Energy  [=(2)] =   -2.25 kcal/mol
DOCKED: USER    
DOCKED: USER    
DOCKED: USER    NEWDPF move ligand.pdbqt
DOCKED: USER    NEWDPF about 1.857000 0.216000 -0.019000
DOCKED: USER    NEWDPF tran0 28.329933 -15.568056 -1.840298
DOCKED: USER    NEWDPF quaternion0 0.771454 -0.129900 0.512483 0.354042
DOCKED: USER    NEWDPF axisangle0 0.824882 -0.138897 0.547976 138.530526
DOCKED: USER    NEWDPF quat0 0.824882 -0.138897 0.547976 138.530526
DOCKED: USER    NEWDPF dihe0 -179.97 -162.40 17.83 -58.55 -161.83 150.93 1.53 -34.49 -144.65 153.48 
DOCKED: USER  keepresnum = 1 
DOCKED: USER  
DOCKED: REMARK  Name = 
DOCKED: REMARK  12 active torsions:
DOCKED: REMARK  status: ('A' for Active; 'I' for Inactive)
DOCKED: REMARK    1  A    between atoms: C_2  and  O_3
DOCKED: REMARK    2  A    between atoms: O_3  and  C_4
DOCKED: REMARK    3  A    between atoms: C_4  and  C_5
DOCKED: REMARK    4  A    between atoms: C_10  and  C_11
DOCKED: REMARK    5  A    between atoms: C_11  and  N_12
DOCKED: REMARK    6  A    between atoms: N_12  and  C_13
DOCKED: REMARK    7  A    between atoms: N_12  and  C_15
DOCKED: REMARK    8  A    between atoms: C_13  and  C_14
DOCKED: REMARK    9  A    between atoms: C_15  and  C_16
DOCKED: REMARK   10  A    between atoms: N_21  and  C_22
DOCKED: REMARK   11  A    between atoms: C_25  and  C_26
DOCKED: REMARK   12  A    between atoms: N_27  and  O_28
DOCKED: REMARK                            x       y       z     vdW  Elec       q    Type
DOCKED: REMARK                         _______ _______ _______ _____ _____    ______ ____
DOCKED: USER                              x       y       z     vdW  Elec       q    Type
DOCKED: USER                           _______ _______ _______ _____ _____    ______ ____
DOCKED: ROOT
DOCKED: ATOM      1  C   UNL     1      29.484 -14.389  -1.845 -0.08 -0.00    +0.000 C 
DOCKED: ENDROOT
DOCKED: BRANCH   1   2
DOCKED: ATOM      2  C   UNL     1      28.386 -13.737  -2.634 -0.11 -0.00    +0.000 A 
DOCKED: ATOM      3  C   UNL     1      27.705 -14.459  -3.625 -0.23 -0.00    +0.000 A 
DOCKED: ATOM      4  C   UNL     1      26.708 -13.845  -4.389 -0.35 -0.00    +0.000 A 
DOCKED: ATOM      5  C   UNL     1      26.388 -12.497  -4.179 -0.27 -0.00    +0.000 A 
DOCKED: ATOM      6  C   UNL     1      25.389 -11.872  -4.942 -0.27 -0.00    +0.000 A 
DOCKED: ATOM      7  C   UNL     1      25.077 -10.519  -4.731 -0.33 -0.00    +0.000 A 
DOCKED: ATOM      8  C   UNL     1      25.770  -9.794  -3.750 -0.20 -0.00    +0.000 A 
DOCKED: ATOM      9  C   UNL     1      26.767 -10.406  -2.987 -0.11 -0.00    +0.000 A 
DOCKED: ATOM     10  C   UNL     1      27.084 -11.757  -3.193 -0.13 -0.00    +0.000 A 
DOCKED: ATOM     11  C   UNL     1      28.082 -12.382  -2.431 -0.09 -0.00    +0.000 A 
DOCKED: BRANCH   7  12
DOCKED: ATOM     12  C   UNL     1      23.992  -9.848  -5.532 -0.38 -0.00    +0.000 C 
DOCKED: BRANCH  12  13
DOCKED: ATOM     13  N   UNL     1      24.583  -9.102  -6.664 -0.26 -0.00    +0.000 N 
DOCKED: ATOM     14  H   UNL     1      25.552  -8.886  -6.429 +0.00 -0.00    +0.000 HD
DOCKED: BRANCH  13  15
DOCKED: ATOM     15  C   UNL     1      23.918  -7.791  -6.853 -0.25 -0.00    +0.000 C 
DOCKED: ATOM     16  C   UNL     1      22.607  -7.699  -6.071 -0.44 -0.00    +0.000 C 
DOCKED: ENDBRANCH  13  15
DOCKED: BRANCH  13  17
DOCKED: ATOM     17  C   UNL     1      24.663  -9.926  -7.895 -0.33 -0.00    +0.000 C 
DOCKED: ATOM     18  C   UNL     1      26.022 -10.607  -8.112 -0.26 -0.00    +0.000 C 
DOCKED: ENDBRANCH  13  17
DOCKED: ENDBRANCH  12  13
DOCKED: ENDBRANCH   7  12
DOCKED: ENDBRANCH   1   2
DOCKED: BRANCH   1  19
DOCKED: ATOM     19  O   UNL     1      28.992 -15.590  -1.260 -0.18 -0.00    +0.000 OA
DOCKED: BRANCH  19  21
DOCKED: ATOM     20  O   UNL     1      26.933 -14.821  -0.560 -0.31 -0.00    +0.000 OA
DOCKED: ATOM     21  C   UNL     1      27.641 -15.784  -0.961 -0.33 -0.00    +0.000 C 
DOCKED: ATOM     22  N   UNL     1      27.085 -17.102  -1.077 -0.45 -0.00    +0.000 N 
DOCKED: ATOM     23  H   UNL     1      27.705 -17.849  -1.237 -0.05 -0.00    +0.000 HD
DOCKED: BRANCH  22  24
DOCKED: ATOM     24  C   UNL     1      25.682 -17.401  -0.974 -0.56 -0.00    +0.000 A 
DOCKED: ATOM     25  C   UNL     1      25.278 -18.614  -0.401 -0.53 -0.00    +0.000 A 
DOCKED: ATOM     26  C   UNL     1      23.923 -18.940  -0.310 -0.40 -0.00    +0.000 A 
DOCKED: ATOM     27  C   UNL     1      22.941 -18.061  -0.798 -0.73 -0.00    +0.000 A 
DOCKED: ATOM     28  C   UNL     1      23.349 -16.860  -1.406 -0.19 -0.00    +0.000 A 
DOCKED: ATOM     29  C   UNL     1      24.706 -16.535  -1.496 -0.53 -0.00    +0.000 A 
DOCKED: BRANCH  27  30
DOCKED: ATOM     30  C   UNL     1      21.505 -18.422  -0.697 -0.85 -0.00    +0.000 C 
DOCKED: ATOM     31  N   UNL     1      21.090 -19.698  -0.194 -0.72 -0.00    +0.000 N 
DOCKED: ATOM     32  O   UNL     1      20.630 -17.597  -1.075 -2.15 -0.00    +0.000 OA
DOCKED: ATOM     33  H   UNL     1      21.763 -20.382   0.023 -0.54 -0.00    +0.000 HD
DOCKED: BRANCH  31  34
DOCKED: ATOM     34  O   UNL     1      19.774 -19.965  -0.017 -0.88 -0.00    +0.000 OA
DOCKED: ATOM     35  H   UNL     1      19.243 -19.330  -0.523 -0.10 -0.00    +0.000 HD
DOCKED: ENDBRANCH  31  34
DOCKED: ENDBRANCH  27  30
DOCKED: ENDBRANCH  22  24
DOCKED: ENDBRANCH  19  21
DOCKED: ENDBRANCH   1  19
DOCKED: TORSDOF 10
DOCKED: TER
DOCKED: ENDMDL
________________________________________________________________________________


	BEGINNING GENETIC ALGORITHM DOCKING 79 of 100
Run: 79 Seed: 819463190 1259389020 [ Run 79 of 100 GA/GALS ]
Beginning LAMARCKIAN GENETIC ALGORITHM (LGA), with a maximum of 2500000 energy evaluations.

Final-Value: -14.379


	FINAL GENETIC ALGORITHM DOCKED STATE
	_______________________________________________


Detailed state:  trans 28.941 -14.439 -5.405 quatxyzw -0.617775 0.114036 -0.485710 -0.607812 center 1.857 0.216 -0.019 ntor 10 176.2560 28.6800 6.2975 -18.8540 -148.3626 168.6809 50.5925 126.9898 -171.3681 125.8145
State:	 28.941 -14.439  -5.405  -0.778  0.144 -0.612 -105.137    176.26   28.68    6.30  -18.85 -148.36  168.68   50.59  126.99 -171.37  125.81

DOCKED: MODEL       79
DOCKED: USER    Run = 79
DOCKED: USER    DPF = ligand_dock.biased.dpf
DOCKED: USER  
DOCKED: USER    Estimated Free Energy of Binding    =   -8.95 kcal/mol  [=(1)+(2)+(3)-(4)]
DOCKED: USER    Estimated Inhibition Constant, Ki   =  276.73 nM (nanomolar)  [Temperature = 298.15 K]
DOCKED: USER    
DOCKED: USER    (1) Final Intermolecular Energy     =  -11.93 kcal/mol
DOCKED: USER        vdW + Hbond + desolv Energy     =  -11.93 kcal/mol
DOCKED: USER        Electrostatic Energy            =   +0.00 kcal/mol
DOCKED: USER    (2) Final Total Internal Energy     =   -2.45 kcal/mol
DOCKED: USER    (3) Torsional Free Energy           =   +2.98 kcal/mol
DOCKED: USER    (4) Unbound System's Energy  [=(2)] =   -2.45 kcal/mol
DOCKED: USER    
DOCKED: USER    
DOCKED: USER    NEWDPF move ligand.pdbqt
DOCKED: USER    NEWDPF about 1.857000 0.216000 -0.019000
DOCKED: USER    NEWDPF tran0 28.941170 -14.439457 -5.405023
DOCKED: USER    NEWDPF quaternion0 -0.617775 0.114036 -0.485710 -0.607812
DOCKED: USER    NEWDPF axisangle0 -0.777975 0.143607 -0.611663 -105.137102
DOCKED: USER    NEWDPF quat0 -0.777975 0.143607 -0.611663 -105.137102
DOCKED: USER    NEWDPF dihe0 176.26 28.68 6.30 -18.85 -148.36 168.68 50.59 126.99 -171.37 125.81 
DOCKED: USER  keepresnum = 1 
DOCKED: USER  
DOCKED: REMARK  Name = 
DOCKED: REMARK  12 active torsions:
DOCKED: REMARK  status: ('A' for Active; 'I' for Inactive)
DOCKED: REMARK    1  A    between atoms: C_2  and  O_3
DOCKED: REMARK    2  A    between atoms: O_3  and  C_4
DOCKED: REMARK    3  A    between atoms: C_4  and  C_5
DOCKED: REMARK    4  A    between atoms: C_10  and  C_11
DOCKED: REMARK    5  A    between atoms: C_11  and  N_12
DOCKED: REMARK    6  A    between atoms: N_12  and  C_13
DOCKED: REMARK    7  A    between atoms: N_12  and  C_15
DOCKED: REMARK    8  A    between atoms: C_13  and  C_14
DOCKED: REMARK    9  A    between atoms: C_15  and  C_16
DOCKED: REMARK   10  A    between atoms: N_21  and  C_22
DOCKED: REMARK   11  A    between atoms: C_25  and  C_26
DOCKED: REMARK   12  A    between atoms: N_27  and  O_28
DOCKED: REMARK                            x       y       z     vdW  Elec       q    Type
DOCKED: REMARK                         _______ _______ _______ _____ _____    ______ ____
DOCKED: USER                              x       y       z     vdW  Elec       q    Type
DOCKED: USER                           _______ _______ _______ _____ _____    ______ ____
DOCKED: ROOT
DOCKED: ATOM      1  C   UNL     1      29.682 -13.206  -4.598 -0.08 -0.00    +0.000 C 
DOCKED: ENDROOT
DOCKED: BRANCH   1   2
DOCKED: ATOM      2  C   UNL     1      28.542 -12.489  -5.261 -0.13 -0.00    +0.000 A 
DOCKED: ATOM      3  C   UNL     1      28.548 -12.287  -6.650 -0.17 -0.00    +0.000 A 
DOCKED: ATOM      4  C   UNL     1      27.507 -11.587  -7.268 -0.16 -0.00    +0.000 A 
DOCKED: ATOM      5  C   UNL     1      26.454 -11.068  -6.503 -0.18 -0.00    +0.000 A 
DOCKED: ATOM      6  C   UNL     1      25.405 -10.363  -7.115 -0.27 -0.00    +0.000 A 
DOCKED: ATOM      7  C   UNL     1      24.355  -9.841  -6.342 -0.38 -0.00    +0.000 A 
DOCKED: ATOM      8  C   UNL     1      24.358 -10.030  -4.952 -0.33 -0.00    +0.000 A 
DOCKED: ATOM      9  C   UNL     1      25.398 -10.729  -4.334 -0.23 -0.00    +0.000 A 
DOCKED: ATOM     10  C   UNL     1      26.450 -11.253  -5.100 -0.22 -0.00    +0.000 A 
DOCKED: ATOM     11  C   UNL     1      27.497 -11.958  -4.488 -0.15 -0.00    +0.000 A 
DOCKED: BRANCH   7  12
DOCKED: ATOM     12  C   UNL     1      23.217  -9.101  -6.995 -0.42 -0.00    +0.000 C 
DOCKED: BRANCH  12  13
DOCKED: ATOM     13  N   UNL     1      23.622  -7.710  -7.296 -0.24 -0.00    +0.000 N 
DOCKED: ATOM     14  H   UNL     1      24.639  -7.658  -7.245 +0.00 -0.00    +0.000 HD
DOCKED: BRANCH  13  15
DOCKED: ATOM     15  C   UNL     1      23.122  -6.768  -6.267 -0.25 -0.00    +0.000 C 
DOCKED: ATOM     16  C   UNL     1      21.997  -7.379  -5.433 -0.47 -0.00    +0.000 C 
DOCKED: ENDBRANCH  13  15
DOCKED: BRANCH  13  17
DOCKED: ATOM     17  C   UNL     1      23.289  -7.322  -8.690 -0.24 -0.00    +0.000 C 
DOCKED: ATOM     18  C   UNL     1      21.952  -6.583  -8.837 -0.29 -0.00    +0.000 C 
DOCKED: ENDBRANCH  13  17
DOCKED: ENDBRANCH  12  13
DOCKED: ENDBRANCH   7  12
DOCKED: ENDBRANCH   1   2
DOCKED: BRANCH   1  19
DOCKED: ATOM     19  O   UNL     1      29.505 -14.610  -4.750 -0.16 -0.00    +0.000 OA
DOCKED: BRANCH  19  21
DOCKED: ATOM     20  O   UNL     1      27.713 -15.996  -5.187 -0.71 +0.00    +0.000 OA
DOCKED: ATOM     21  C   UNL     1      28.334 -15.269  -4.365 -0.33 -0.00    +0.000 C 
DOCKED: ATOM     22  N   UNL     1      27.830 -15.072  -3.036 -0.22 -0.00    +0.000 N 
DOCKED: ATOM     23  H   UNL     1      28.253 -14.377  -2.483 +0.01 -0.00    +0.000 HD
DOCKED: BRANCH  22  24
DOCKED: ATOM     24  C   UNL     1      26.748 -15.823  -2.461 -0.36 -0.00    +0.000 A 
DOCKED: ATOM     25  C   UNL     1      25.453 -15.288  -2.480 -0.43 -0.00    +0.000 A 
DOCKED: ATOM     26  C   UNL     1      24.387 -15.987  -1.908 +0.01 -0.00    +0.000 A 
DOCKED: ATOM     27  C   UNL     1      24.595 -17.235  -1.296 -0.61 -0.00    +0.000 A 
DOCKED: ATOM     28  C   UNL     1      25.902 -17.754  -1.245 -0.46 -0.00    +0.000 A 
DOCKED: ATOM     29  C   UNL     1      26.967 -17.054  -1.819 -0.32 -0.00    +0.000 A 
DOCKED: BRANCH  27  30
DOCKED: ATOM     30  C   UNL     1      23.454 -17.964  -0.689 -0.80 -0.00    +0.000 C 
DOCKED: ATOM     31  N   UNL     1      22.103 -17.523  -0.874 -0.69 -0.00    +0.000 N 
DOCKED: ATOM     32  O   UNL     1      23.675 -18.985   0.017 -0.71 -0.00    +0.000 OA
DOCKED: ATOM     33  H   UNL     1      21.924 -16.680  -1.349 -0.03 -0.00    +0.000 HD
DOCKED: BRANCH  31  34
DOCKED: ATOM     34  O   UNL     1      21.074 -18.261  -0.396 -1.86 -0.00    +0.000 OA
DOCKED: ATOM     35  H   UNL     1      21.421 -19.001   0.127 -0.07 -0.00    +0.000 HD
DOCKED: ENDBRANCH  31  34
DOCKED: ENDBRANCH  27  30
DOCKED: ENDBRANCH  22  24
DOCKED: ENDBRANCH  19  21
DOCKED: ENDBRANCH   1  19
DOCKED: TORSDOF 10
DOCKED: TER
DOCKED: ENDMDL
________________________________________________________________________________


	BEGINNING GENETIC ALGORITHM DOCKING 80 of 100
Run: 80 Seed: 340164884 1406952540 [ Run 80 of 100 GA/GALS ]
Beginning LAMARCKIAN GENETIC ALGORITHM (LGA), with a maximum of 2500000 energy evaluations.

Final-Value: -15.068


	FINAL GENETIC ALGORITHM DOCKED STATE
	_______________________________________________


Detailed state:  trans 28.506 -14.332 -1.499 quatxyzw 0.896502 -0.161043 0.410816 0.039741 center 1.857 0.216 -0.019 ntor 10 24.7181 -30.4199 -149.0486 -73.8356 -180.0000 57.4766 -177.5337 -81.5639 -176.7293 -153.3480
State:	 28.506 -14.332  -1.499   0.897 -0.161  0.411 175.445     24.72  -30.42 -149.05  -73.84 -180.00   57.48 -177.53  -81.56 -176.73 -153.35

DOCKED: MODEL       80
DOCKED: USER    Run = 80
DOCKED: USER    DPF = ligand_dock.biased.dpf
DOCKED: USER  
DOCKED: USER    Estimated Free Energy of Binding    =  -10.39 kcal/mol  [=(1)+(2)+(3)-(4)]
DOCKED: USER    Estimated Inhibition Constant, Ki   =   24.34 nM (nanomolar)  [Temperature = 298.15 K]
DOCKED: USER    
DOCKED: USER    (1) Final Intermolecular Energy     =  -13.37 kcal/mol
DOCKED: USER        vdW + Hbond + desolv Energy     =  -13.37 kcal/mol
DOCKED: USER        Electrostatic Energy            =   +0.00 kcal/mol
DOCKED: USER    (2) Final Total Internal Energy     =   -1.70 kcal/mol
DOCKED: USER    (3) Torsional Free Energy           =   +2.98 kcal/mol
DOCKED: USER    (4) Unbound System's Energy  [=(2)] =   -1.70 kcal/mol
DOCKED: USER    
DOCKED: USER    
DOCKED: USER    NEWDPF move ligand.pdbqt
DOCKED: USER    NEWDPF about 1.857000 0.216000 -0.019000
DOCKED: USER    NEWDPF tran0 28.506472 -14.331744 -1.499384
DOCKED: USER    NEWDPF quaternion0 0.896502 -0.161043 0.410816 0.039741
DOCKED: USER    NEWDPF axisangle0 0.897211 -0.161171 0.411141 175.444852
DOCKED: USER    NEWDPF quat0 0.897211 -0.161171 0.411141 175.444852
DOCKED: USER    NEWDPF dihe0 24.72 -30.42 -149.05 -73.84 -180.00 57.48 -177.53 -81.56 -176.73 -153.35 
DOCKED: USER  keepresnum = 1 
DOCKED: USER  
DOCKED: REMARK  Name = 
DOCKED: REMARK  12 active torsions:
DOCKED: REMARK  status: ('A' for Active; 'I' for Inactive)
DOCKED: REMARK    1  A    between atoms: C_2  and  O_3
DOCKED: REMARK    2  A    between atoms: O_3  and  C_4
DOCKED: REMARK    3  A    between atoms: C_4  and  C_5
DOCKED: REMARK    4  A    between atoms: C_10  and  C_11
DOCKED: REMARK    5  A    between atoms: C_11  and  N_12
DOCKED: REMARK    6  A    between atoms: N_12  and  C_13
DOCKED: REMARK    7  A    between atoms: N_12  and  C_15
DOCKED: REMARK    8  A    between atoms: C_13  and  C_14
DOCKED: REMARK    9  A    between atoms: C_15  and  C_16
DOCKED: REMARK   10  A    between atoms: N_21  and  C_22
DOCKED: REMARK   11  A    between atoms: C_25  and  C_26
DOCKED: REMARK   12  A    between atoms: N_27  and  O_28
DOCKED: REMARK                            x       y       z     vdW  Elec       q    Type
DOCKED: REMARK                         _______ _______ _______ _____ _____    ______ ____
DOCKED: USER                              x       y       z     vdW  Elec       q    Type
DOCKED: USER                           _______ _______ _______ _____ _____    ______ ____
DOCKED: ROOT
DOCKED: ATOM      1  C   UNL     1      29.707 -13.756  -2.474 -0.06 -0.00    +0.000 C 
DOCKED: ENDROOT
DOCKED: BRANCH   1   2
DOCKED: ATOM      2  C   UNL     1      28.486 -13.170  -3.123 -0.09 -0.00    +0.000 A 
DOCKED: ATOM      3  C   UNL     1      27.653 -13.975  -3.915 -0.22 -0.00    +0.000 A 
DOCKED: ATOM      4  C   UNL     1      26.536 -13.425  -4.552 -0.31 -0.00    +0.000 A 
DOCKED: ATOM      5  C   UNL     1      26.245 -12.061  -4.415 -0.27 -0.00    +0.000 A 
DOCKED: ATOM      6  C   UNL     1      25.127 -11.500  -5.052 -0.33 -0.00    +0.000 A 
DOCKED: ATOM      7  C   UNL     1      24.844 -10.132  -4.916 -0.34 -0.00    +0.000 A 
DOCKED: ATOM      8  C   UNL     1      25.688  -9.325  -4.136 -0.21 -0.00    +0.000 A 
DOCKED: ATOM      9  C   UNL     1      26.804  -9.873  -3.500 -0.12 -0.00    +0.000 A 
DOCKED: ATOM     10  C   UNL     1      27.092 -11.240  -3.632 -0.13 -0.00    +0.000 A 
DOCKED: ATOM     11  C   UNL     1      28.209 -11.800  -2.996 -0.07 -0.00    +0.000 A 
DOCKED: BRANCH   7  12
DOCKED: ATOM     12  C   UNL     1      23.634  -9.529  -5.580 -0.29 -0.00    +0.000 C 
DOCKED: BRANCH  12  13
DOCKED: ATOM     13  N   UNL     1      23.409  -8.156  -5.077 -0.37 -0.00    +0.000 N 
DOCKED: ATOM     14  H   UNL     1      23.615  -8.148  -4.078 -0.38 -0.00    +0.000 HD
DOCKED: BRANCH  13  15
DOCKED: ATOM     15  C   UNL     1      21.984  -7.765  -5.195 -0.42 -0.00    +0.000 C 
DOCKED: ATOM     16  C   UNL     1      21.781  -6.272  -4.935 -0.37 -0.00    +0.000 C 
DOCKED: ENDBRANCH  13  15
DOCKED: BRANCH  13  17
DOCKED: ATOM     17  C   UNL     1      24.359  -7.182  -5.670 -0.17 -0.00    +0.000 C 
DOCKED: ATOM     18  C   UNL     1      24.710  -7.456  -7.139 -0.13 -0.00    +0.000 C 
DOCKED: ENDBRANCH  13  17
DOCKED: ENDBRANCH  12  13
DOCKED: ENDBRANCH   7  12
DOCKED: ENDBRANCH   1   2
DOCKED: BRANCH   1  19
DOCKED: ATOM     19  O   UNL     1      29.343 -14.331  -1.224 -0.09 -0.00    +0.000 OA
DOCKED: BRANCH  19  21
DOCKED: ATOM     20  O   UNL     1      27.142 -14.021  -0.607 -0.25 -0.00    +0.000 OA
DOCKED: ATOM     21  C   UNL     1      28.058 -14.812  -0.960 -0.21 -0.00    +0.000 C 
DOCKED: ATOM     22  N   UNL     1      27.809 -16.222  -1.057 -0.31 -0.00    +0.000 N 
DOCKED: ATOM     23  H   UNL     1      28.584 -16.817  -1.178 -0.02 -0.00    +0.000 HD
DOCKED: BRANCH  22  24
DOCKED: ATOM     24  C   UNL     1      26.504 -16.821  -0.989 -0.46 -0.00    +0.000 A 
DOCKED: ATOM     25  C   UNL     1      25.407 -16.143  -1.535 -0.49 -0.00    +0.000 A 
DOCKED: ATOM     26  C   UNL     1      24.124 -16.693  -1.462 -0.48 -0.00    +0.000 A 
DOCKED: ATOM     27  C   UNL     1      23.911 -17.932  -0.834 -0.70 -0.00    +0.000 A 
DOCKED: ATOM     28  C   UNL     1      25.008 -18.595  -0.254 -0.51 -0.00    +0.000 A 
DOCKED: ATOM     29  C   UNL     1      26.291 -18.043  -0.328 -0.57 -0.00    +0.000 A 
DOCKED: BRANCH  27  30
DOCKED: ATOM     30  C   UNL     1      22.543 -18.501  -0.762 -0.84 -0.00    +0.000 C 
DOCKED: ATOM     31  N   UNL     1      21.381 -17.670  -0.867 -0.69 -0.00    +0.000 N 
DOCKED: ATOM     32  O   UNL     1      22.395 -19.742  -0.590 -0.75 -0.00    +0.000 OA
DOCKED: ATOM     33  H   UNL     1      21.481 -16.692  -0.915 -0.07 -0.00    +0.000 HD
DOCKED: BRANCH  31  34
DOCKED: ATOM     34  O   UNL     1      20.146 -18.224  -0.900 -2.04 -0.00    +0.000 OA
DOCKED: ATOM     35  H   UNL     1      19.555 -17.667  -1.433 -0.62 -0.00    +0.000 HD
DOCKED: ENDBRANCH  31  34
DOCKED: ENDBRANCH  27  30
DOCKED: ENDBRANCH  22  24
DOCKED: ENDBRANCH  19  21
DOCKED: ENDBRANCH   1  19
DOCKED: TORSDOF 10
DOCKED: TER
DOCKED: ENDMDL
________________________________________________________________________________


	BEGINNING GENETIC ALGORITHM DOCKING 81 of 100
Run: 81 Seed: 1636197923 252927372 [ Run 81 of 100 GA/GALS ]
Beginning LAMARCKIAN GENETIC ALGORITHM (LGA), with a maximum of 2500000 energy evaluations.

Final-Value: -15.980


	FINAL GENETIC ALGORITHM DOCKED STATE
	_______________________________________________


Detailed state:  trans 26.894 -16.239 -1.260 quatxyzw -0.833306 0.377034 -0.399617 0.061262 center 1.857 0.216 -0.019 ntor 10 179.8920 72.7894 10.5509 -118.1908 166.2521 160.7462 -127.7906 111.2352 -179.9108 -98.9443
State:	 26.894 -16.239  -1.260  -0.835  0.378 -0.400 172.975    179.89   72.79   10.55 -118.19  166.25  160.75 -127.79  111.24 -179.91  -98.94

DOCKED: MODEL       81
DOCKED: USER    Run = 81
DOCKED: USER    DPF = ligand_dock.biased.dpf
DOCKED: USER  
DOCKED: USER    Estimated Free Energy of Binding    =  -10.86 kcal/mol  [=(1)+(2)+(3)-(4)]
DOCKED: USER    Estimated Inhibition Constant, Ki   =   10.96 nM (nanomolar)  [Temperature = 298.15 K]
DOCKED: USER    
DOCKED: USER    (1) Final Intermolecular Energy     =  -13.84 kcal/mol
DOCKED: USER        vdW + Hbond + desolv Energy     =  -13.84 kcal/mol
DOCKED: USER        Electrostatic Energy            =   +0.00 kcal/mol
DOCKED: USER    (2) Final Total Internal Energy     =   -2.14 kcal/mol
DOCKED: USER    (3) Torsional Free Energy           =   +2.98 kcal/mol
DOCKED: USER    (4) Unbound System's Energy  [=(2)] =   -2.14 kcal/mol
DOCKED: USER    
DOCKED: USER    
DOCKED: USER    NEWDPF move ligand.pdbqt
DOCKED: USER    NEWDPF about 1.857000 0.216000 -0.019000
DOCKED: USER    NEWDPF tran0 26.894110 -16.238667 -1.260336
DOCKED: USER    NEWDPF quaternion0 -0.833306 0.377034 -0.399617 0.061262
DOCKED: USER    NEWDPF axisangle0 -0.834874 0.377744 -0.400369 172.975495
DOCKED: USER    NEWDPF quat0 -0.834874 0.377744 -0.400369 172.975495
DOCKED: USER    NEWDPF dihe0 179.89 72.79 10.55 -118.19 166.25 160.75 -127.79 111.24 -179.91 -98.94 
DOCKED: USER  keepresnum = 1 
DOCKED: USER  
DOCKED: REMARK  Name = 
DOCKED: REMARK  12 active torsions:
DOCKED: REMARK  status: ('A' for Active; 'I' for Inactive)
DOCKED: REMARK    1  A    between atoms: C_2  and  O_3
DOCKED: REMARK    2  A    between atoms: O_3  and  C_4
DOCKED: REMARK    3  A    between atoms: C_4  and  C_5
DOCKED: REMARK    4  A    between atoms: C_10  and  C_11
DOCKED: REMARK    5  A    between atoms: C_11  and  N_12
DOCKED: REMARK    6  A    between atoms: N_12  and  C_13
DOCKED: REMARK    7  A    between atoms: N_12  and  C_15
DOCKED: REMARK    8  A    between atoms: C_13  and  C_14
DOCKED: REMARK    9  A    between atoms: C_15  and  C_16
DOCKED: REMARK   10  A    between atoms: N_21  and  C_22
DOCKED: REMARK   11  A    between atoms: C_25  and  C_26
DOCKED: REMARK   12  A    between atoms: N_27  and  O_28
DOCKED: REMARK                            x       y       z     vdW  Elec       q    Type
DOCKED: REMARK                         _______ _______ _______ _____ _____    ______ ____
DOCKED: USER                              x       y       z     vdW  Elec       q    Type
DOCKED: USER                           _______ _______ _______ _____ _____    ______ ____
DOCKED: ROOT
DOCKED: ATOM      1  C   UNL     1      28.208 -16.293  -2.257 -0.30 -0.00    +0.000 C 
DOCKED: ENDROOT
DOCKED: BRANCH   1   2
DOCKED: ATOM      2  C   UNL     1      27.402 -15.192  -2.883 -0.27 -0.00    +0.000 A 
DOCKED: ATOM      3  C   UNL     1      26.313 -15.498  -3.714 -0.47 -0.00    +0.000 A 
DOCKED: ATOM      4  C   UNL     1      25.583 -14.477  -4.329 -0.44 -0.00    +0.000 A 
DOCKED: ATOM      5  C   UNL     1      25.939 -13.136  -4.131 -0.35 -0.00    +0.000 A 
DOCKED: ATOM      6  C   UNL     1      25.212 -12.105  -4.745 -0.25 -0.00    +0.000 A 
DOCKED: ATOM      7  C   UNL     1      25.578 -10.764  -4.548 -0.28 -0.00    +0.000 A 
DOCKED: ATOM      8  C   UNL     1      26.676 -10.459  -3.729 -0.14 -0.00    +0.000 A 
DOCKED: ATOM      9  C   UNL     1      27.407 -11.479  -3.115 -0.11 -0.00    +0.000 A 
DOCKED: ATOM     10  C   UNL     1      27.047 -12.820  -3.308 -0.19 -0.00    +0.000 A 
DOCKED: ATOM     11  C   UNL     1      27.773 -13.851  -2.694 -0.16 -0.00    +0.000 A 
DOCKED: BRANCH   7  12
DOCKED: ATOM     12  C   UNL     1      24.789  -9.652  -5.188 -0.35 -0.00    +0.000 C 
DOCKED: BRANCH  12  13
DOCKED: ATOM     13  N   UNL     1      25.313  -9.371  -6.543 -0.19 -0.00    +0.000 N 
DOCKED: ATOM     14  H   UNL     1      26.117  -8.750  -6.449 +0.01 -0.00    +0.000 HD
DOCKED: BRANCH  13  15
DOCKED: ATOM     15  C   UNL     1      24.326  -8.627  -7.361 -0.27 -0.00    +0.000 C 
DOCKED: ATOM     16  C   UNL     1      22.935  -8.643  -6.729 -0.42 -0.00    +0.000 C 
DOCKED: ENDBRANCH  13  15
DOCKED: BRANCH  13  17
DOCKED: ATOM     17  C   UNL     1      25.849 -10.591  -7.197 -0.25 -0.00    +0.000 C 
DOCKED: ATOM     18  C   UNL     1      25.508 -10.709  -8.689 -0.32 -0.00    +0.000 C 
DOCKED: ENDBRANCH  13  17
DOCKED: ENDBRANCH  12  13
DOCKED: ENDBRANCH   7  12
DOCKED: ENDBRANCH   1   2
DOCKED: BRANCH   1  19
DOCKED: ATOM     19  O   UNL     1      27.635 -16.638  -1.000 -0.40 -0.00    +0.000 OA
DOCKED: BRANCH  19  21
DOCKED: ATOM     20  O   UNL     1      26.664 -18.639  -0.390 -0.66 -0.00    +0.000 OA
DOCKED: ATOM     21  C   UNL     1      26.531 -17.486  -0.882 -0.56 -0.00    +0.000 C 
DOCKED: ATOM     22  N   UNL     1      25.256 -17.041  -1.367 -0.57 -0.00    +0.000 N 
DOCKED: ATOM     23  H   UNL     1      25.229 -16.205  -1.886 -0.02 -0.00    +0.000 HD
DOCKED: BRANCH  22  24
DOCKED: ATOM     24  C   UNL     1      24.017 -17.736  -1.146 -0.68 -0.00    +0.000 A 
DOCKED: ATOM     25  C   UNL     1      23.310 -17.518   0.044 -0.33 -0.00    +0.000 A 
DOCKED: ATOM     26  C   UNL     1      22.115 -18.197   0.294 -0.57 -0.00    +0.000 A 
DOCKED: ATOM     27  C   UNL     1      21.604 -19.116  -0.639 -0.75 -0.00    +0.000 A 
DOCKED: ATOM     28  C   UNL     1      22.334 -19.360  -1.817 -0.18 -0.00    +0.000 A 
DOCKED: ATOM     29  C   UNL     1      23.530 -18.679  -2.066 -0.18 -0.00    +0.000 A 
DOCKED: BRANCH  27  30
DOCKED: ATOM     30  C   UNL     1      20.336 -19.832  -0.358 -0.85 -0.00    +0.000 C 
DOCKED: ATOM     31  N   UNL     1      19.996 -20.256   0.967 -0.68 -0.00    +0.000 N 
DOCKED: ATOM     32  O   UNL     1      19.544 -20.087  -1.306 -1.32 -0.00    +0.000 OA
DOCKED: ATOM     33  H   UNL     1      20.642 -20.140   1.700 -0.51 -0.00    +0.000 HD
DOCKED: BRANCH  31  34
DOCKED: ATOM     34  O   UNL     1      18.788 -20.817   1.215 -0.76 -0.00    +0.000 OA
DOCKED: ATOM     35  H   UNL     1      18.342 -21.010   0.375 -0.05 -0.00    +0.000 HD
DOCKED: ENDBRANCH  31  34
DOCKED: ENDBRANCH  27  30
DOCKED: ENDBRANCH  22  24
DOCKED: ENDBRANCH  19  21
DOCKED: ENDBRANCH   1  19
DOCKED: TORSDOF 10
DOCKED: TER
DOCKED: ENDMDL
________________________________________________________________________________


	BEGINNING GENETIC ALGORITHM DOCKING 82 of 100
Run: 82 Seed: 1012018277 1162034154 [ Run 82 of 100 GA/GALS ]
Beginning LAMARCKIAN GENETIC ALGORITHM (LGA), with a maximum of 2500000 energy evaluations.

Final-Value: -14.672


	FINAL GENETIC ALGORITHM DOCKED STATE
	_______________________________________________


Detailed state:  trans 29.664 -15.531 -1.338 quatxyzw 0.291029 -0.607397 -0.524916 0.520417 center 1.857 0.216 -0.019 ntor 10 166.8759 37.5838 -150.1787 -11.2664 22.7863 55.7208 -10.6797 59.5769 144.2833 -112.2542
State:	 29.664 -15.531  -1.338   0.341 -0.711 -0.615 117.280    166.88   37.58 -150.18  -11.27   22.79   55.72  -10.68   59.58  144.28 -112.25

DOCKED: MODEL       82
DOCKED: USER    Run = 82
DOCKED: USER    DPF = ligand_dock.biased.dpf
DOCKED: USER  
DOCKED: USER    Estimated Free Energy of Binding    =  -10.08 kcal/mol  [=(1)+(2)+(3)-(4)]
DOCKED: USER    Estimated Inhibition Constant, Ki   =   40.72 nM (nanomolar)  [Temperature = 298.15 K]
DOCKED: USER    
DOCKED: USER    (1) Final Intermolecular Energy     =  -13.06 kcal/mol
DOCKED: USER        vdW + Hbond + desolv Energy     =  -13.06 kcal/mol
DOCKED: USER        Electrostatic Energy            =   +0.00 kcal/mol
DOCKED: USER    (2) Final Total Internal Energy     =   -1.61 kcal/mol
DOCKED: USER    (3) Torsional Free Energy           =   +2.98 kcal/mol
DOCKED: USER    (4) Unbound System's Energy  [=(2)] =   -1.61 kcal/mol
DOCKED: USER    
DOCKED: USER    
DOCKED: USER    NEWDPF move ligand.pdbqt
DOCKED: USER    NEWDPF about 1.857000 0.216000 -0.019000
DOCKED: USER    NEWDPF tran0 29.664082 -15.531334 -1.338159
DOCKED: USER    NEWDPF quaternion0 0.291029 -0.607397 -0.524916 0.520417
DOCKED: USER    NEWDPF axisangle0 0.340818 -0.711311 -0.614719 117.279561
DOCKED: USER    NEWDPF quat0 0.340818 -0.711311 -0.614719 117.279561
DOCKED: USER    NEWDPF dihe0 166.88 37.58 -150.18 -11.27 22.79 55.72 -10.68 59.58 144.28 -112.25 
DOCKED: USER  keepresnum = 1 
DOCKED: USER  
DOCKED: REMARK  Name = 
DOCKED: REMARK  12 active torsions:
DOCKED: REMARK  status: ('A' for Active; 'I' for Inactive)
DOCKED: REMARK    1  A    between atoms: C_2  and  O_3
DOCKED: REMARK    2  A    between atoms: O_3  and  C_4
DOCKED: REMARK    3  A    between atoms: C_4  and  C_5
DOCKED: REMARK    4  A    between atoms: C_10  and  C_11
DOCKED: REMARK    5  A    between atoms: C_11  and  N_12
DOCKED: REMARK    6  A    between atoms: N_12  and  C_13
DOCKED: REMARK    7  A    between atoms: N_12  and  C_15
DOCKED: REMARK    8  A    between atoms: C_13  and  C_14
DOCKED: REMARK    9  A    between atoms: C_15  and  C_16
DOCKED: REMARK   10  A    between atoms: N_21  and  C_22
DOCKED: REMARK   11  A    between atoms: C_25  and  C_26
DOCKED: REMARK   12  A    between atoms: N_27  and  O_28
DOCKED: REMARK                            x       y       z     vdW  Elec       q    Type
DOCKED: REMARK                         _______ _______ _______ _____ _____    ______ ____
DOCKED: USER                              x       y       z     vdW  Elec       q    Type
DOCKED: USER                           _______ _______ _______ _____ _____    ______ ____
DOCKED: ROOT
DOCKED: ATOM      1  C   UNL     1      30.790 -14.327  -1.269 -0.04 -0.00    +0.000 C 
DOCKED: ENDROOT
DOCKED: BRANCH   1   2
DOCKED: ATOM      2  C   UNL     1      31.122 -15.120  -0.038 -0.08 -0.00    +0.000 A 
DOCKED: ATOM      3  C   UNL     1      30.972 -14.546   1.233 -0.09 -0.00    +0.000 A 
DOCKED: ATOM      4  C   UNL     1      31.316 -15.267   2.380 -0.15 -0.00    +0.000 A 
DOCKED: ATOM      5  C   UNL     1      31.828 -16.567   2.270 -0.15 -0.00    +0.000 A 
DOCKED: ATOM      6  C   UNL     1      32.177 -17.298   3.416 -0.23 -0.00    +0.000 A 
DOCKED: ATOM      7  C   UNL     1      32.695 -18.598   3.299 -0.30 -0.00    +0.000 A 
DOCKED: ATOM      8  C   UNL     1      32.859 -19.165   2.026 -0.15 -0.00    +0.000 A 
DOCKED: ATOM      9  C   UNL     1      32.516 -18.445   0.879 -0.12 -0.00    +0.000 A 
DOCKED: ATOM     10  C   UNL     1      31.999 -17.146   0.990 -0.13 -0.00    +0.000 A 
DOCKED: ATOM     11  C   UNL     1      31.650 -16.415  -0.156 -0.10 -0.00    +0.000 A 
DOCKED: BRANCH   7  12
DOCKED: ATOM     12  C   UNL     1      33.052 -19.394   4.527 -0.40 -0.00    +0.000 C 
DOCKED: BRANCH  12  13
DOCKED: ATOM     13  N   UNL     1      33.276 -20.811   4.166 -0.29 -0.00    +0.000 N 
DOCKED: ATOM     14  H   UNL     1      33.529 -20.850   3.178 -0.00 -0.00    +0.000 HD
DOCKED: BRANCH  13  15
DOCKED: ATOM     15  C   UNL     1      32.029 -21.603   4.290 -0.43 -0.00    +0.000 C 
DOCKED: ATOM     16  C   UNL     1      31.072 -21.003   5.320 -0.70 -0.00    +0.000 C 
DOCKED: ENDBRANCH  13  15
DOCKED: BRANCH  13  17
DOCKED: ATOM     17  C   UNL     1      34.439 -21.392   4.881 -0.28 -0.00    +0.000 C 
DOCKED: ATOM     18  C   UNL     1      34.065 -22.328   6.039 -0.47 -0.00    +0.000 C 
DOCKED: ENDBRANCH  13  17
DOCKED: ENDBRANCH  12  13
DOCKED: ENDBRANCH   7  12
DOCKED: ENDBRANCH   1   2
DOCKED: BRANCH   1  19
DOCKED: ATOM     19  O   UNL     1      29.848 -15.052  -2.053 -0.09 -0.00    +0.000 OA
DOCKED: BRANCH  19  21
DOCKED: ATOM     20  O   UNL     1      27.773 -14.305  -1.377 -0.18 -0.00    +0.000 OA
DOCKED: ATOM     21  C   UNL     1      28.534 -15.277  -1.636 -0.20 -0.00    +0.000 C 
DOCKED: ATOM     22  N   UNL     1      28.079 -16.627  -1.468 -0.32 -0.00    +0.000 N 
DOCKED: ATOM     23  H   UNL     1      28.748 -17.347  -1.525 -0.03 -0.00    +0.000 HD
DOCKED: BRANCH  22  24
DOCKED: ATOM     24  C   UNL     1      26.712 -16.997  -1.220 -0.45 -0.00    +0.000 A 
DOCKED: ATOM     25  C   UNL     1      26.431 -18.235  -0.629 -0.50 -0.00    +0.000 A 
DOCKED: ATOM     26  C   UNL     1      25.111 -18.630  -0.398 -0.52 -0.00    +0.000 A 
DOCKED: ATOM     27  C   UNL     1      24.040 -17.794  -0.761 -0.69 -0.00    +0.000 A 
DOCKED: ATOM     28  C   UNL     1      24.323 -16.566  -1.388 -0.47 -0.00    +0.000 A 
DOCKED: ATOM     29  C   UNL     1      25.645 -16.174  -1.618 -0.48 -0.00    +0.000 A 
DOCKED: BRANCH  27  30
DOCKED: ATOM     30  C   UNL     1      22.644 -18.227  -0.513 -0.84 -0.00    +0.000 C 
DOCKED: ATOM     31  N   UNL     1      21.530 -17.401  -0.876 -0.63 -0.00    +0.000 N 
DOCKED: ATOM     32  O   UNL     1      22.427 -19.338   0.041 -0.69 -0.00    +0.000 OA
DOCKED: ATOM     33  H   UNL     1      21.686 -16.496  -1.230 -0.05 -0.00    +0.000 HD
DOCKED: BRANCH  31  34
DOCKED: ATOM     34  O   UNL     1      20.264 -17.861  -0.733 -2.21 -0.00    +0.000 OA
DOCKED: ATOM     35  H   UNL     1      19.693 -17.451  -1.402 -0.61 -0.00    +0.000 HD
DOCKED: ENDBRANCH  31  34
DOCKED: ENDBRANCH  27  30
DOCKED: ENDBRANCH  22  24
DOCKED: ENDBRANCH  19  21
DOCKED: ENDBRANCH   1  19
DOCKED: TORSDOF 10
DOCKED: TER
DOCKED: ENDMDL
________________________________________________________________________________


	BEGINNING GENETIC ALGORITHM DOCKING 83 of 100
Run: 83 Seed: 147130138 468105940 [ Run 83 of 100 GA/GALS ]
Beginning LAMARCKIAN GENETIC ALGORITHM (LGA), with a maximum of 2500000 energy evaluations.

Final-Value: -14.380


	FINAL GENETIC ALGORITHM DOCKED STATE
	_______________________________________________


Detailed state:  trans 29.672 -15.694 -3.424 quatxyzw 0.566150 -0.089154 0.650908 0.497841 center 1.857 0.216 -0.019 ntor 10 -103.9077 -156.2653 -126.3502 -36.1505 138.6541 174.8885 133.6440 73.9201 6.9564 127.9402
State:	 29.672 -15.694  -3.424   0.653 -0.103  0.751 120.285   -103.91 -156.27 -126.35  -36.15  138.65  174.89  133.64   73.92    6.96  127.94

DOCKED: MODEL       83
DOCKED: USER    Run = 83
DOCKED: USER    DPF = ligand_dock.biased.dpf
DOCKED: USER  
DOCKED: USER    Estimated Free Energy of Binding    =   -9.73 kcal/mol  [=(1)+(2)+(3)-(4)]
DOCKED: USER    Estimated Inhibition Constant, Ki   =   73.49 nM (nanomolar)  [Temperature = 298.15 K]
DOCKED: USER    
DOCKED: USER    (1) Final Intermolecular Energy     =  -12.72 kcal/mol
DOCKED: USER        vdW + Hbond + desolv Energy     =  -12.72 kcal/mol
DOCKED: USER        Electrostatic Energy            =   +0.00 kcal/mol
DOCKED: USER    (2) Final Total Internal Energy     =   -1.67 kcal/mol
DOCKED: USER    (3) Torsional Free Energy           =   +2.98 kcal/mol
DOCKED: USER    (4) Unbound System's Energy  [=(2)] =   -1.67 kcal/mol
DOCKED: USER    
DOCKED: USER    
DOCKED: USER    NEWDPF move ligand.pdbqt
DOCKED: USER    NEWDPF about 1.857000 0.216000 -0.019000
DOCKED: USER    NEWDPF tran0 29.672101 -15.694127 -3.423804
DOCKED: USER    NEWDPF quaternion0 0.566150 -0.089154 0.650908 0.497841
DOCKED: USER    NEWDPF axisangle0 0.652796 -0.102799 0.750526 120.285497
DOCKED: USER    NEWDPF quat0 0.652796 -0.102799 0.750526 120.285497
DOCKED: USER    NEWDPF dihe0 -103.91 -156.27 -126.35 -36.15 138.65 174.89 133.64 73.92 6.96 127.94 
DOCKED: USER  keepresnum = 1 
DOCKED: USER  
DOCKED: REMARK  Name = 
DOCKED: REMARK  12 active torsions:
DOCKED: REMARK  status: ('A' for Active; 'I' for Inactive)
DOCKED: REMARK    1  A    between atoms: C_2  and  O_3
DOCKED: REMARK    2  A    between atoms: O_3  and  C_4
DOCKED: REMARK    3  A    between atoms: C_4  and  C_5
DOCKED: REMARK    4  A    between atoms: C_10  and  C_11
DOCKED: REMARK    5  A    between atoms: C_11  and  N_12
DOCKED: REMARK    6  A    between atoms: N_12  and  C_13
DOCKED: REMARK    7  A    between atoms: N_12  and  C_15
DOCKED: REMARK    8  A    between atoms: C_13  and  C_14
DOCKED: REMARK    9  A    between atoms: C_15  and  C_16
DOCKED: REMARK   10  A    between atoms: N_21  and  C_22
DOCKED: REMARK   11  A    between atoms: C_25  and  C_26
DOCKED: REMARK   12  A    between atoms: N_27  and  O_28
DOCKED: REMARK                            x       y       z     vdW  Elec       q    Type
DOCKED: REMARK                         _______ _______ _______ _____ _____    ______ ____
DOCKED: USER                              x       y       z     vdW  Elec       q    Type
DOCKED: USER                           _______ _______ _______ _____ _____    ______ ____
DOCKED: ROOT
DOCKED: ATOM      1  C   UNL     1      30.538 -14.582  -2.565 -0.05 -0.00    +0.000 C 
DOCKED: ENDROOT
DOCKED: BRANCH   1   2
DOCKED: ATOM      2  C   UNL     1      29.854 -13.712  -3.580 -0.05 -0.00    +0.000 A 
DOCKED: ATOM      3  C   UNL     1      28.797 -12.875  -3.194 -0.07 -0.00    +0.000 A 
DOCKED: ATOM      4  C   UNL     1      28.132 -12.091  -4.142 -0.10 -0.00    +0.000 A 
DOCKED: ATOM      5  C   UNL     1      28.508 -12.145  -5.491 -0.12 -0.00    +0.000 A 
DOCKED: ATOM      6  C   UNL     1      27.846 -11.362  -6.450 -0.13 -0.00    +0.000 A 
DOCKED: ATOM      7  C   UNL     1      28.224 -11.424  -7.801 -0.16 -0.00    +0.000 A 
DOCKED: ATOM      8  C   UNL     1      29.272 -12.274  -8.188 -0.19 -0.00    +0.000 A 
DOCKED: ATOM      9  C   UNL     1      29.936 -13.058  -7.241 -0.18 -0.00    +0.000 A 
DOCKED: ATOM     10  C   UNL     1      29.563 -13.000  -5.890 -0.12 -0.00    +0.000 A 
DOCKED: ATOM     11  C   UNL     1      30.225 -13.782  -4.932 -0.07 -0.00    +0.000 A 
DOCKED: BRANCH   7  12
DOCKED: ATOM     12  C   UNL     1      27.531 -10.572  -8.831 -0.17 -0.00    +0.000 C 
DOCKED: BRANCH  12  13
DOCKED: ATOM     13  N   UNL     1      26.179 -11.105  -9.105 -0.30 -0.00    +0.000 N 
DOCKED: ATOM     14  H   UNL     1      26.046 -11.941  -8.535 +0.00 -0.00    +0.000 HD
DOCKED: BRANCH  13  15
DOCKED: ATOM     15  C   UNL     1      26.050 -11.556 -10.511 -0.45 -0.00    +0.000 C 
DOCKED: ATOM     16  C   UNL     1      27.010 -12.702 -10.831 -0.44 +0.00    +0.000 C 
DOCKED: ENDBRANCH  13  15
DOCKED: BRANCH  13  17
DOCKED: ATOM     17  C   UNL     1      25.111 -10.171  -8.666 -0.28 -0.00    +0.000 C 
DOCKED: ATOM     18  C   UNL     1      24.650 -10.376  -7.217 -0.40 -0.00    +0.000 C 
DOCKED: ENDBRANCH  13  17
DOCKED: ENDBRANCH  12  13
DOCKED: ENDBRANCH   7  12
DOCKED: ENDBRANCH   1   2
DOCKED: BRANCH   1  19
DOCKED: ATOM     19  O   UNL     1      29.988 -15.894  -2.627 -0.14 -0.00    +0.000 OA
DOCKED: BRANCH  19  21
DOCKED: ATOM     20  O   UNL     1      27.869 -15.864  -3.538 -0.34 -0.00    +0.000 OA
DOCKED: ATOM     21  C   UNL     1      28.615 -16.141  -2.559 -0.26 -0.00    +0.000 C 
DOCKED: ATOM     22  N   UNL     1      28.062 -16.672  -1.347 -0.33 -0.00    +0.000 N 
DOCKED: ATOM     23  H   UNL     1      28.649 -16.724  -0.558 -0.04 -0.00    +0.000 HD
DOCKED: BRANCH  22  24
DOCKED: ATOM     24  C   UNL     1      26.708 -17.136  -1.208 -0.45 -0.00    +0.000 A 
DOCKED: ATOM     25  C   UNL     1      25.767 -16.816  -2.196 -0.46 -0.00    +0.000 A 
DOCKED: ATOM     26  C   UNL     1      24.440 -17.234  -2.074 -0.41 -0.00    +0.000 A 
DOCKED: ATOM     27  C   UNL     1      24.023 -17.977  -0.956 -0.70 -0.00    +0.000 A 
DOCKED: ATOM     28  C   UNL     1      24.960 -18.266   0.052 -0.56 -0.00    +0.000 A 
DOCKED: ATOM     29  C   UNL     1      26.288 -17.847  -0.071 -0.55 -0.00    +0.000 A 
DOCKED: BRANCH  27  30
DOCKED: ATOM     30  C   UNL     1      22.609 -18.411  -0.839 -0.83 -0.00    +0.000 C 
DOCKED: ATOM     31  N   UNL     1      21.543 -17.461  -0.722 -0.71 -0.00    +0.000 N 
DOCKED: ATOM     32  O   UNL     1      22.337 -19.643  -0.829 -0.78 -0.00    +0.000 OA
DOCKED: ATOM     33  H   UNL     1      21.748 -16.502  -0.642 -0.06 -0.00    +0.000 HD
DOCKED: BRANCH  31  34
DOCKED: ATOM     34  O   UNL     1      20.255 -17.878  -0.719 -2.21 -0.00    +0.000 OA
DOCKED: ATOM     35  H   UNL     1      19.757 -17.398  -1.400 -0.61 -0.00    +0.000 HD
DOCKED: ENDBRANCH  31  34
DOCKED: ENDBRANCH  27  30
DOCKED: ENDBRANCH  22  24
DOCKED: ENDBRANCH  19  21
DOCKED: ENDBRANCH   1  19
DOCKED: TORSDOF 10
DOCKED: TER
DOCKED: ENDMDL
________________________________________________________________________________


	BEGINNING GENETIC ALGORITHM DOCKING 84 of 100
Run: 84 Seed: 98404379 1785232809 [ Run 84 of 100 GA/GALS ]
Beginning LAMARCKIAN GENETIC ALGORITHM (LGA), with a maximum of 2500000 energy evaluations.

Final-Value: -17.278


	FINAL GENETIC ALGORITHM DOCKED STATE
	_______________________________________________


Detailed state:  trans 28.723 -16.393 -0.647 quatxyzw -0.611997 0.627803 0.087824 -0.472873 center 1.857 0.216 -0.019 ntor 10 -169.1661 -179.6988 18.5514 -68.3184 -179.9475 177.2478 -109.9027 75.9477 -177.2564 -112.5376
State:	 28.723 -16.393  -0.647  -0.695  0.712  0.100 -123.558   -169.17 -179.70   18.55  -68.32 -179.95  177.25 -109.90   75.95 -177.26 -112.54

DOCKED: MODEL       84
DOCKED: USER    Run = 84
DOCKED: USER    DPF = ligand_dock.biased.dpf
DOCKED: USER  
DOCKED: USER    Estimated Free Energy of Binding    =  -11.97 kcal/mol  [=(1)+(2)+(3)-(4)]
DOCKED: USER    Estimated Inhibition Constant, Ki   =    1.67 nM (nanomolar)  [Temperature = 298.15 K]
DOCKED: USER    
DOCKED: USER    (1) Final Intermolecular Energy     =  -14.96 kcal/mol
DOCKED: USER        vdW + Hbond + desolv Energy     =  -14.96 kcal/mol
DOCKED: USER        Electrostatic Energy            =   +0.00 kcal/mol
DOCKED: USER    (2) Final Total Internal Energy     =   -2.32 kcal/mol
DOCKED: USER    (3) Torsional Free Energy           =   +2.98 kcal/mol
DOCKED: USER    (4) Unbound System's Energy  [=(2)] =   -2.32 kcal/mol
DOCKED: USER    
DOCKED: USER    
DOCKED: USER    NEWDPF move ligand.pdbqt
DOCKED: USER    NEWDPF about 1.857000 0.216000 -0.019000
DOCKED: USER    NEWDPF tran0 28.723169 -16.393458 -0.646828
DOCKED: USER    NEWDPF quaternion0 -0.611997 0.627803 0.087824 -0.472873
DOCKED: USER    NEWDPF axisangle0 -0.694559 0.712498 0.099673 -123.558035
DOCKED: USER    NEWDPF quat0 -0.694559 0.712498 0.099673 -123.558035
DOCKED: USER    NEWDPF dihe0 -169.17 -179.70 18.55 -68.32 -179.95 177.25 -109.90 75.95 -177.26 -112.54 
DOCKED: USER  keepresnum = 1 
DOCKED: USER  
DOCKED: REMARK  Name = 
DOCKED: REMARK  12 active torsions:
DOCKED: REMARK  status: ('A' for Active; 'I' for Inactive)
DOCKED: REMARK    1  A    between atoms: C_2  and  O_3
DOCKED: REMARK    2  A    between atoms: O_3  and  C_4
DOCKED: REMARK    3  A    between atoms: C_4  and  C_5
DOCKED: REMARK    4  A    between atoms: C_10  and  C_11
DOCKED: REMARK    5  A    between atoms: C_11  and  N_12
DOCKED: REMARK    6  A    between atoms: N_12  and  C_13
DOCKED: REMARK    7  A    between atoms: N_12  and  C_15
DOCKED: REMARK    8  A    between atoms: C_13  and  C_14
DOCKED: REMARK    9  A    between atoms: C_15  and  C_16
DOCKED: REMARK   10  A    between atoms: N_21  and  C_22
DOCKED: REMARK   11  A    between atoms: C_25  and  C_26
DOCKED: REMARK   12  A    between atoms: N_27  and  O_28
DOCKED: REMARK                            x       y       z     vdW  Elec       q    Type
DOCKED: REMARK                         _______ _______ _______ _____ _____    ______ ____
DOCKED: USER                              x       y       z     vdW  Elec       q    Type
DOCKED: USER                           _______ _______ _______ _____ _____    ______ ____
DOCKED: ROOT
DOCKED: ATOM      1  C   UNL     1      29.981 -15.401  -1.040 -0.12 -0.00    +0.000 C 
DOCKED: ENDROOT
DOCKED: BRANCH   1   2
DOCKED: ATOM      2  C   UNL     1      29.544 -14.825   0.276 -0.14 -0.00    +0.000 A 
DOCKED: ATOM      3  C   UNL     1      28.396 -14.021   0.348 -0.16 -0.00    +0.000 A 
DOCKED: ATOM      4  C   UNL     1      28.007 -13.452   1.565 -0.21 -0.00    +0.000 A 
DOCKED: ATOM      5  C   UNL     1      28.768 -13.668   2.721 -0.23 -0.00    +0.000 A 
DOCKED: ATOM      6  C   UNL     1      28.385 -13.100   3.946 -0.31 -0.00    +0.000 A 
DOCKED: ATOM      7  C   UNL     1      29.154 -13.317   5.101 -0.33 -0.00    +0.000 A 
DOCKED: ATOM      8  C   UNL     1      30.310 -14.108   5.024 -0.28 -0.00    +0.000 A 
DOCKED: ATOM      9  C   UNL     1      30.700 -14.676   3.809 -0.27 -0.00    +0.000 A 
DOCKED: ATOM     10  C   UNL     1      29.936 -14.464   2.652 -0.15 -0.00    +0.000 A 
DOCKED: ATOM     11  C   UNL     1      30.319 -15.032   1.428 -0.00 -0.00    +0.000 A 
DOCKED: BRANCH   7  12
DOCKED: ATOM     12  C   UNL     1      28.737 -12.726   6.422 -0.43 -0.00    +0.000 C 
DOCKED: BRANCH  12  13
DOCKED: ATOM     13  N   UNL     1      28.940 -11.261   6.411 -0.29 +0.00    +0.000 N 
DOCKED: ATOM     14  H   UNL     1      29.756 -11.059   5.833 +0.00 -0.00    +0.000 HD
DOCKED: BRANCH  13  15
DOCKED: ATOM     15  C   UNL     1      29.272 -10.751   7.762 -0.32 -0.00    +0.000 C 
DOCKED: ATOM     16  C   UNL     1      29.246 -11.861   8.813 -0.38 -0.00    +0.000 C 
DOCKED: ENDBRANCH  13  15
DOCKED: BRANCH  13  17
DOCKED: ATOM     17  C   UNL     1      27.819 -10.547   5.750 -0.34 +0.00    +0.000 C 
DOCKED: ATOM     18  C   UNL     1      28.197  -9.859   4.431 -0.25 +0.00    +0.000 C 
DOCKED: ENDBRANCH  13  17
DOCKED: ENDBRANCH  12  13
DOCKED: ENDBRANCH   7  12
DOCKED: ENDBRANCH   1   2
DOCKED: BRANCH   1  19
DOCKED: ATOM     19  O   UNL     1      29.310 -16.637  -1.257 -0.26 -0.00    +0.000 OA
DOCKED: BRANCH  19  21
DOCKED: ATOM     20  O   UNL     1      27.447 -16.381  -2.592 -0.37 -0.00    +0.000 OA
DOCKED: ATOM     21  C   UNL     1      27.933 -16.719  -1.479 -0.37 -0.00    +0.000 C 
DOCKED: ATOM     22  N   UNL     1      27.080 -17.151  -0.410 -0.47 -0.00    +0.000 N 
DOCKED: ATOM     23  H   UNL     1      27.479 -17.251   0.485 -0.19 -0.00    +0.000 HD
DOCKED: BRANCH  22  24
DOCKED: ATOM     24  C   UNL     1      25.681 -17.449  -0.558 -0.57 -0.00    +0.000 A 
DOCKED: ATOM     25  C   UNL     1      25.265 -18.786  -0.617 -0.34 -0.00    +0.000 A 
DOCKED: ATOM     26  C   UNL     1      23.914 -19.103  -0.784 -0.54 -0.00    +0.000 A 
DOCKED: ATOM     27  C   UNL     1      22.950 -18.087  -0.902 -0.72 -0.00    +0.000 A 
DOCKED: ATOM     28  C   UNL     1      23.374 -16.745  -0.879 -0.41 -0.00    +0.000 A 
DOCKED: ATOM     29  C   UNL     1      24.726 -16.430  -0.711 -0.42 -0.00    +0.000 A 
DOCKED: BRANCH  27  30
DOCKED: ATOM     30  C   UNL     1      21.520 -18.438  -1.082 -0.75 -0.00    +0.000 C 
DOCKED: ATOM     31  N   UNL     1      21.124 -19.712  -1.607 -0.67 -0.00    +0.000 N 
DOCKED: ATOM     32  O   UNL     1      20.631 -17.596  -0.781 -2.16 -0.00    +0.000 OA
DOCKED: ATOM     33  H   UNL     1      21.808 -20.344  -1.926 -0.46 -0.00    +0.000 HD
DOCKED: BRANCH  31  34
DOCKED: ATOM     34  O   UNL     1      19.814 -20.048  -1.666 -1.64 -0.00    +0.000 OA
DOCKED: ATOM     35  H   UNL     1      19.271 -19.246  -1.601 -0.42 -0.00    +0.000 HD
DOCKED: ENDBRANCH  31  34
DOCKED: ENDBRANCH  27  30
DOCKED: ENDBRANCH  22  24
DOCKED: ENDBRANCH  19  21
DOCKED: ENDBRANCH   1  19
DOCKED: TORSDOF 10
DOCKED: TER
DOCKED: ENDMDL
________________________________________________________________________________


	BEGINNING GENETIC ALGORITHM DOCKING 85 of 100
Run: 85 Seed: 1104524109 867188484 [ Run 85 of 100 GA/GALS ]
Beginning LAMARCKIAN GENETIC ALGORITHM (LGA), with a maximum of 2500000 energy evaluations.

Final-Value: -16.078


	FINAL GENETIC ALGORITHM DOCKED STATE
	_______________________________________________


Detailed state:  trans 27.995 -15.972 -3.008 quatxyzw 0.250298 0.713878 0.601214 0.257431 center 1.857 0.216 -0.019 ntor 10 -153.7406 120.6555 10.7117 173.7199 -69.2122 -172.6859 -97.4348 2.4167 84.2327 55.3710
State:	 27.995 -15.972  -3.008   0.259  0.739  0.622 150.165   -153.74  120.66   10.71  173.72  -69.21 -172.69  -97.43    2.42   84.23   55.37

DOCKED: MODEL       85
DOCKED: USER    Run = 85
DOCKED: USER    DPF = ligand_dock.biased.dpf
DOCKED: USER  
DOCKED: USER    Estimated Free Energy of Binding    =  -11.08 kcal/mol  [=(1)+(2)+(3)-(4)]
DOCKED: USER    Estimated Inhibition Constant, Ki   =    7.59 nM (nanomolar)  [Temperature = 298.15 K]
DOCKED: USER    
DOCKED: USER    (1) Final Intermolecular Energy     =  -14.06 kcal/mol
DOCKED: USER        vdW + Hbond + desolv Energy     =  -14.06 kcal/mol
DOCKED: USER        Electrostatic Energy            =   +0.00 kcal/mol
DOCKED: USER    (2) Final Total Internal Energy     =   -2.02 kcal/mol
DOCKED: USER    (3) Torsional Free Energy           =   +2.98 kcal/mol
DOCKED: USER    (4) Unbound System's Energy  [=(2)] =   -2.02 kcal/mol
DOCKED: USER    
DOCKED: USER    
DOCKED: USER    NEWDPF move ligand.pdbqt
DOCKED: USER    NEWDPF about 1.857000 0.216000 -0.019000
DOCKED: USER    NEWDPF tran0 27.995365 -15.971876 -3.008130
DOCKED: USER    NEWDPF quaternion0 0.250298 0.713878 0.601214 0.257431
DOCKED: USER    NEWDPF axisangle0 0.259028 0.738778 0.622183 150.164653
DOCKED: USER    NEWDPF quat0 0.259028 0.738778 0.622183 150.164653
DOCKED: USER    NEWDPF dihe0 -153.74 120.66 10.71 173.72 -69.21 -172.69 -97.43 2.42 84.23 55.37 
DOCKED: USER  keepresnum = 1 
DOCKED: USER  
DOCKED: REMARK  Name = 
DOCKED: REMARK  12 active torsions:
DOCKED: REMARK  status: ('A' for Active; 'I' for Inactive)
DOCKED: REMARK    1  A    between atoms: C_2  and  O_3
DOCKED: REMARK    2  A    between atoms: O_3  and  C_4
DOCKED: REMARK    3  A    between atoms: C_4  and  C_5
DOCKED: REMARK    4  A    between atoms: C_10  and  C_11
DOCKED: REMARK    5  A    between atoms: C_11  and  N_12
DOCKED: REMARK    6  A    between atoms: N_12  and  C_13
DOCKED: REMARK    7  A    between atoms: N_12  and  C_15
DOCKED: REMARK    8  A    between atoms: C_13  and  C_14
DOCKED: REMARK    9  A    between atoms: C_15  and  C_16
DOCKED: REMARK   10  A    between atoms: N_21  and  C_22
DOCKED: REMARK   11  A    between atoms: C_25  and  C_26
DOCKED: REMARK   12  A    between atoms: N_27  and  O_28
DOCKED: REMARK                            x       y       z     vdW  Elec       q    Type
DOCKED: REMARK                         _______ _______ _______ _____ _____    ______ ____
DOCKED: USER                              x       y       z     vdW  Elec       q    Type
DOCKED: USER                           _______ _______ _______ _____ _____    ______ ____
DOCKED: ROOT
DOCKED: ATOM      1  C   UNL     1      27.577 -14.591  -3.808 -0.31 -0.00    +0.000 C 
DOCKED: ENDROOT
DOCKED: BRANCH   1   2
DOCKED: ATOM      2  C   UNL     1      28.580 -15.191  -4.750 -0.29 -0.00    +0.000 A 
DOCKED: ATOM      3  C   UNL     1      28.973 -14.492  -5.901 -0.30 -0.00    +0.000 A 
DOCKED: ATOM      4  C   UNL     1      29.879 -15.062  -6.801 -0.29 -0.00    +0.000 A 
DOCKED: ATOM      5  C   UNL     1      30.392 -16.345  -6.568 -0.30 -0.00    +0.000 A 
DOCKED: ATOM      6  C   UNL     1      31.301 -16.926  -7.466 -0.26 -0.00    +0.000 A 
DOCKED: ATOM      7  C   UNL     1      31.808 -18.214  -7.229 -0.20 -0.00    +0.000 A 
DOCKED: ATOM      8  C   UNL     1      31.402 -18.918  -6.085 -0.23 -0.00    +0.000 A 
DOCKED: ATOM      9  C   UNL     1      30.497 -18.349  -5.186 -0.29 -0.00    +0.000 A 
DOCKED: ATOM     10  C   UNL     1      29.987 -17.063  -5.417 -0.30 -0.00    +0.000 A 
DOCKED: ATOM     11  C   UNL     1      29.079 -16.482  -4.519 -0.16 -0.00    +0.000 A 
DOCKED: BRANCH   7  12
DOCKED: ATOM     12  C   UNL     1      32.799 -18.835  -8.179 -0.12 -0.00    +0.000 C 
DOCKED: BRANCH  12  13
DOCKED: ATOM     13  N   UNL     1      32.196 -18.974  -9.522 -0.20 -0.00    +0.000 N 
DOCKED: ATOM     14  H   UNL     1      32.631 -19.774  -9.983 +0.00 -0.00    +0.000 HD
DOCKED: BRANCH  13  15
DOCKED: ATOM     15  C   UNL     1      32.505 -17.804 -10.378 -0.22 -0.00    +0.000 C 
DOCKED: ATOM     16  C   UNL     1      33.598 -16.926  -9.769 -0.13 -0.00    +0.000 C 
DOCKED: ENDBRANCH  13  15
DOCKED: BRANCH  13  17
DOCKED: ATOM     17  C   UNL     1      30.752 -19.313  -9.453 -0.42 -0.00    +0.000 C 
DOCKED: ATOM     18  C   UNL     1      30.116 -19.646 -10.810 -0.34 -0.00    +0.000 C 
DOCKED: ENDBRANCH  13  17
DOCKED: ENDBRANCH  12  13
DOCKED: ENDBRANCH   7  12
DOCKED: ENDBRANCH   1   2
DOCKED: BRANCH   1  19
DOCKED: ATOM     19  O   UNL     1      27.258 -15.540  -2.796 -0.33 -0.00    +0.000 OA
DOCKED: BRANCH  19  21
DOCKED: ATOM     20  O   UNL     1      24.990 -15.498  -3.216 -0.56 -0.00    +0.000 OA
DOCKED: ATOM     21  C   UNL     1      25.949 -15.949  -2.531 -0.52 -0.00    +0.000 C 
DOCKED: ATOM     22  N   UNL     1      25.708 -16.854  -1.445 -0.52 -0.00    +0.000 N 
DOCKED: ATOM     23  H   UNL     1      26.458 -17.055  -0.840 -0.02 -0.00    +0.000 HD
DOCKED: BRANCH  22  24
DOCKED: ATOM     24  C   UNL     1      24.445 -17.488  -1.182 -0.64 -0.00    +0.000 A 
DOCKED: ATOM     25  C   UNL     1      24.338 -18.881  -1.292 -0.25 -0.00    +0.000 A 
DOCKED: ATOM     26  C   UNL     1      23.117 -19.520  -1.064 -0.49 -0.00    +0.000 A 
DOCKED: ATOM     27  C   UNL     1      21.972 -18.778  -0.728 -0.76 -0.00    +0.000 A 
DOCKED: ATOM     28  C   UNL     1      22.072 -17.376  -0.653 -0.64 -0.00    +0.000 A 
DOCKED: ATOM     29  C   UNL     1      23.295 -16.738  -0.881 -0.39 -0.00    +0.000 A 
DOCKED: BRANCH  27  30
DOCKED: ATOM     30  C   UNL     1      20.681 -19.470  -0.492 -0.88 -0.00    +0.000 C 
DOCKED: ATOM     31  N   UNL     1      20.324 -19.963   0.805 -0.68 -0.00    +0.000 N 
DOCKED: ATOM     32  O   UNL     1      19.885 -19.642  -1.454 -1.66 -0.00    +0.000 OA
DOCKED: ATOM     33  H   UNL     1      20.972 -19.912   1.544 -0.51 -0.00    +0.000 HD
DOCKED: BRANCH  31  34
DOCKED: ATOM     34  O   UNL     1      19.099 -20.499   1.017 -0.77 -0.00    +0.000 OA
DOCKED: ATOM     35  H   UNL     1      18.651 -20.630   0.166 -0.07 -0.00    +0.000 HD
DOCKED: ENDBRANCH  31  34
DOCKED: ENDBRANCH  27  30
DOCKED: ENDBRANCH  22  24
DOCKED: ENDBRANCH  19  21
DOCKED: ENDBRANCH   1  19
DOCKED: TORSDOF 10
DOCKED: TER
DOCKED: ENDMDL
________________________________________________________________________________


	BEGINNING GENETIC ALGORITHM DOCKING 86 of 100
Run: 86 Seed: 1969714750 659281314 [ Run 86 of 100 GA/GALS ]
Beginning LAMARCKIAN GENETIC ALGORITHM (LGA), with a maximum of 2500000 energy evaluations.

Final-Value: -15.745


	FINAL GENETIC ALGORITHM DOCKED STATE
	_______________________________________________


Detailed state:  trans 29.022 -16.222 -2.066 quatxyzw -0.517773 0.419444 -0.657190 0.352249 center 1.857 0.216 -0.019 ntor 10 -107.5383 170.0009 9.8601 -135.1218 177.1652 -39.0413 -108.1999 -70.7261 -165.8161 -102.0451
State:	 29.022 -16.222  -2.066  -0.553  0.448 -0.702 138.750   -107.54  170.00    9.86 -135.12  177.17  -39.04 -108.20  -70.73 -165.82 -102.05

DOCKED: MODEL       86
DOCKED: USER    Run = 86
DOCKED: USER    DPF = ligand_dock.biased.dpf
DOCKED: USER  
DOCKED: USER    Estimated Free Energy of Binding    =  -10.75 kcal/mol  [=(1)+(2)+(3)-(4)]
DOCKED: USER    Estimated Inhibition Constant, Ki   =   13.14 nM (nanomolar)  [Temperature = 298.15 K]
DOCKED: USER    
DOCKED: USER    (1) Final Intermolecular Energy     =  -13.74 kcal/mol
DOCKED: USER        vdW + Hbond + desolv Energy     =  -13.74 kcal/mol
DOCKED: USER        Electrostatic Energy            =   +0.00 kcal/mol
DOCKED: USER    (2) Final Total Internal Energy     =   -2.01 kcal/mol
DOCKED: USER    (3) Torsional Free Energy           =   +2.98 kcal/mol
DOCKED: USER    (4) Unbound System's Energy  [=(2)] =   -2.01 kcal/mol
DOCKED: USER    
DOCKED: USER    
DOCKED: USER    NEWDPF move ligand.pdbqt
DOCKED: USER    NEWDPF about 1.857000 0.216000 -0.019000
DOCKED: USER    NEWDPF tran0 29.022216 -16.221932 -2.066346
DOCKED: USER    NEWDPF quaternion0 -0.517773 0.419444 -0.657190 0.352249
DOCKED: USER    NEWDPF axisangle0 -0.553231 0.448169 -0.702196 138.750182
DOCKED: USER    NEWDPF quat0 -0.553231 0.448169 -0.702196 138.750182
DOCKED: USER    NEWDPF dihe0 -107.54 170.00 9.86 -135.12 177.17 -39.04 -108.20 -70.73 -165.82 -102.05 
DOCKED: USER  keepresnum = 1 
DOCKED: USER  
DOCKED: REMARK  Name = 
DOCKED: REMARK  12 active torsions:
DOCKED: REMARK  status: ('A' for Active; 'I' for Inactive)
DOCKED: REMARK    1  A    between atoms: C_2  and  O_3
DOCKED: REMARK    2  A    between atoms: O_3  and  C_4
DOCKED: REMARK    3  A    between atoms: C_4  and  C_5
DOCKED: REMARK    4  A    between atoms: C_10  and  C_11
DOCKED: REMARK    5  A    between atoms: C_11  and  N_12
DOCKED: REMARK    6  A    between atoms: N_12  and  C_13
DOCKED: REMARK    7  A    between atoms: N_12  and  C_15
DOCKED: REMARK    8  A    between atoms: C_13  and  C_14
DOCKED: REMARK    9  A    between atoms: C_15  and  C_16
DOCKED: REMARK   10  A    between atoms: N_21  and  C_22
DOCKED: REMARK   11  A    between atoms: C_25  and  C_26
DOCKED: REMARK   12  A    between atoms: N_27  and  O_28
DOCKED: REMARK                            x       y       z     vdW  Elec       q    Type
DOCKED: REMARK                         _______ _______ _______ _____ _____    ______ ____
DOCKED: USER                              x       y       z     vdW  Elec       q    Type
DOCKED: USER                           _______ _______ _______ _____ _____    ______ ____
DOCKED: ROOT
DOCKED: ATOM      1  C   UNL     1      30.223 -17.346  -1.930 -0.21 -0.00    +0.000 C 
DOCKED: ENDROOT
DOCKED: BRANCH   1   2
DOCKED: ATOM      2  C   UNL     1      30.422 -16.863  -3.338 -0.16 -0.00    +0.000 A 
DOCKED: ATOM      3  C   UNL     1      29.439 -17.102  -4.311 -0.10 -0.00    +0.000 A 
DOCKED: ATOM      4  C   UNL     1      29.637 -16.688  -5.632 -0.29 -0.00    +0.000 A 
DOCKED: ATOM      5  C   UNL     1      30.825 -16.042  -5.999 -0.21 -0.00    +0.000 A 
DOCKED: ATOM      6  C   UNL     1      31.032 -15.624  -7.323 -0.24 -0.00    +0.000 A 
DOCKED: ATOM      7  C   UNL     1      32.227 -14.982  -7.686 -0.13 -0.00    +0.000 A 
DOCKED: ATOM      8  C   UNL     1      33.215 -14.758  -6.715 -0.03 -0.00    +0.000 A 
DOCKED: ATOM      9  C   UNL     1      33.019 -15.172  -5.395 -0.02 -0.00    +0.000 A 
DOCKED: ATOM     10  C   UNL     1      31.827 -15.814  -5.026 -0.06 -0.00    +0.000 A 
DOCKED: ATOM     11  C   UNL     1      31.620 -16.231  -3.703 -0.06 -0.00    +0.000 A 
DOCKED: BRANCH   7  12
DOCKED: ATOM     12  C   UNL     1      32.446 -14.513  -9.100 -0.16 -0.00    +0.000 C 
DOCKED: BRANCH  12  13
DOCKED: ATOM     13  N   UNL     1      31.604 -13.330  -9.380 -0.13 -0.00    +0.000 N 
DOCKED: ATOM     14  H   UNL     1      30.781 -13.641  -9.895 -0.51 -0.00    +0.000 HD
DOCKED: BRANCH  13  15
DOCKED: ATOM     15  C   UNL     1      32.296 -12.374 -10.277 -0.13 -0.00    +0.000 C 
DOCKED: ATOM     16  C   UNL     1      32.676 -13.017 -11.611 -0.15 -0.00    +0.000 C 
DOCKED: ENDBRANCH  13  15
DOCKED: BRANCH  13  17
DOCKED: ATOM     17  C   UNL     1      31.069 -12.719  -8.138 -0.14 -0.00    +0.000 C 
DOCKED: ATOM     18  C   UNL     1      29.539 -12.612  -8.095 -0.22 -0.00    +0.000 C 
DOCKED: ENDBRANCH  13  17
DOCKED: ENDBRANCH  12  13
DOCKED: ENDBRANCH   7  12
DOCKED: ENDBRANCH   1   2
DOCKED: BRANCH   1  19
DOCKED: ATOM     19  O   UNL     1      29.284 -16.501  -1.273 -0.24 -0.00    +0.000 OA
DOCKED: BRANCH  19  21
DOCKED: ATOM     20  O   UNL     1      27.398 -16.221  -2.572 -0.36 -0.00    +0.000 OA
DOCKED: ATOM     21  C   UNL     1      27.906 -16.600  -1.481 -0.37 -0.00    +0.000 C 
DOCKED: ATOM     22  N   UNL     1      27.075 -17.097  -0.423 -0.46 -0.00    +0.000 N 
DOCKED: ATOM     23  H   UNL     1      27.488 -17.229   0.461 -0.18 -0.00    +0.000 HD
DOCKED: BRANCH  22  24
DOCKED: ATOM     24  C   UNL     1      25.681 -17.415  -0.567 -0.56 -0.00    +0.000 A 
DOCKED: ATOM     25  C   UNL     1      25.286 -18.757  -0.646 -0.37 -0.00    +0.000 A 
DOCKED: ATOM     26  C   UNL     1      23.940 -19.094  -0.810 -0.54 -0.00    +0.000 A 
DOCKED: ATOM     27  C   UNL     1      22.958 -18.092  -0.905 -0.73 -0.00    +0.000 A 
DOCKED: ATOM     28  C   UNL     1      23.360 -16.744  -0.861 -0.41 -0.00    +0.000 A 
DOCKED: ATOM     29  C   UNL     1      24.708 -16.410  -0.697 -0.39 -0.00    +0.000 A 
DOCKED: BRANCH  27  30
DOCKED: ATOM     30  C   UNL     1      21.534 -18.464  -1.081 -0.76 -0.00    +0.000 C 
DOCKED: ATOM     31  N   UNL     1      21.155 -19.710  -1.681 -0.63 -0.00    +0.000 N 
DOCKED: ATOM     32  O   UNL     1      20.632 -17.664  -0.710 -2.21 +0.00    +0.000 OA
DOCKED: ATOM     33  H   UNL     1      21.846 -20.304  -2.053 -0.49 -0.00    +0.000 HD
DOCKED: BRANCH  31  34
DOCKED: ATOM     34  O   UNL     1      19.852 -20.071  -1.739 -1.69 -0.00    +0.000 OA
DOCKED: ATOM     35  H   UNL     1      19.295 -19.320  -1.476 -0.38 -0.00    +0.000 HD
DOCKED: ENDBRANCH  31  34
DOCKED: ENDBRANCH  27  30
DOCKED: ENDBRANCH  22  24
DOCKED: ENDBRANCH  19  21
DOCKED: ENDBRANCH   1  19
DOCKED: TORSDOF 10
DOCKED: TER
DOCKED: ENDMDL
________________________________________________________________________________


	BEGINNING GENETIC ALGORITHM DOCKING 87 of 100
Run: 87 Seed: 1548439325 1521479723 [ Run 87 of 100 GA/GALS ]
Beginning LAMARCKIAN GENETIC ALGORITHM (LGA), with a maximum of 2500000 energy evaluations.

Final-Value: -15.678


	FINAL GENETIC ALGORITHM DOCKED STATE
	_______________________________________________


Detailed state:  trans 29.700 -15.630 -1.254 quatxyzw 0.014680 -0.488126 0.593335 0.639899 center 1.857 0.216 -0.019 ntor 10 -158.1199 179.9249 11.4231 -117.8066 149.7971 139.0249 -112.6741 -178.3313 168.8480 96.2652
State:	 29.700 -15.630  -1.254   0.019 -0.635  0.772 100.431   -158.12  179.92   11.42 -117.81  149.80  139.02 -112.67 -178.33  168.85   96.27

DOCKED: MODEL       87
DOCKED: USER    Run = 87
DOCKED: USER    DPF = ligand_dock.biased.dpf
DOCKED: USER  
DOCKED: USER    Estimated Free Energy of Binding    =  -10.37 kcal/mol  [=(1)+(2)+(3)-(4)]
DOCKED: USER    Estimated Inhibition Constant, Ki   =   24.86 nM (nanomolar)  [Temperature = 298.15 K]
DOCKED: USER    
DOCKED: USER    (1) Final Intermolecular Energy     =  -13.36 kcal/mol
DOCKED: USER        vdW + Hbond + desolv Energy     =  -13.36 kcal/mol
DOCKED: USER        Electrostatic Energy            =   +0.00 kcal/mol
DOCKED: USER    (2) Final Total Internal Energy     =   -2.32 kcal/mol
DOCKED: USER    (3) Torsional Free Energy           =   +2.98 kcal/mol
DOCKED: USER    (4) Unbound System's Energy  [=(2)] =   -2.32 kcal/mol
DOCKED: USER    
DOCKED: USER    
DOCKED: USER    NEWDPF move ligand.pdbqt
DOCKED: USER    NEWDPF about 1.857000 0.216000 -0.019000
DOCKED: USER    NEWDPF tran0 29.699872 -15.630240 -1.253710
DOCKED: USER    NEWDPF quaternion0 0.014680 -0.488126 0.593335 0.639899
DOCKED: USER    NEWDPF axisangle0 0.019104 -0.635202 0.772110 100.431386
DOCKED: USER    NEWDPF quat0 0.019104 -0.635202 0.772110 100.431386
DOCKED: USER    NEWDPF dihe0 -158.12 179.92 11.42 -117.81 149.80 139.02 -112.67 -178.33 168.85 96.27 
DOCKED: USER  keepresnum = 1 
DOCKED: USER  
DOCKED: REMARK  Name = 
DOCKED: REMARK  12 active torsions:
DOCKED: REMARK  status: ('A' for Active; 'I' for Inactive)
DOCKED: REMARK    1  A    between atoms: C_2  and  O_3
DOCKED: REMARK    2  A    between atoms: O_3  and  C_4
DOCKED: REMARK    3  A    between atoms: C_4  and  C_5
DOCKED: REMARK    4  A    between atoms: C_10  and  C_11
DOCKED: REMARK    5  A    between atoms: C_11  and  N_12
DOCKED: REMARK    6  A    between atoms: N_12  and  C_13
DOCKED: REMARK    7  A    between atoms: N_12  and  C_15
DOCKED: REMARK    8  A    between atoms: C_13  and  C_14
DOCKED: REMARK    9  A    between atoms: C_15  and  C_16
DOCKED: REMARK   10  A    between atoms: N_21  and  C_22
DOCKED: REMARK   11  A    between atoms: C_25  and  C_26
DOCKED: REMARK   12  A    between atoms: N_27  and  O_28
DOCKED: REMARK                            x       y       z     vdW  Elec       q    Type
DOCKED: REMARK                         _______ _______ _______ _____ _____    ______ ____
DOCKED: USER                              x       y       z     vdW  Elec       q    Type
DOCKED: USER                           _______ _______ _______ _____ _____    ______ ____
DOCKED: ROOT
DOCKED: ATOM      1  C   UNL     1      30.210 -16.546   0.021 -0.13 -0.00    +0.000 C 
DOCKED: ENDROOT
DOCKED: BRANCH   1   2
DOCKED: ATOM      2  C   UNL     1      30.046 -15.199   0.665 -0.10 -0.00    +0.000 A 
DOCKED: ATOM      3  C   UNL     1      31.127 -14.305   0.716 -0.06 -0.00    +0.000 A 
DOCKED: ATOM      4  C   UNL     1      30.990 -13.066   1.348 -0.04 -0.00    +0.000 A 
DOCKED: ATOM      5  C   UNL     1      29.775 -12.709   1.948 -0.07 -0.00    +0.000 A 
DOCKED: ATOM      6  C   UNL     1      29.629 -11.467   2.585 -0.06 -0.00    +0.000 A 
DOCKED: ATOM      7  C   UNL     1      28.411 -11.118   3.189 -0.17 +0.00    +0.000 A 
DOCKED: ATOM      8  C   UNL     1      27.336 -12.019   3.151 -0.25 +0.00    +0.000 A 
DOCKED: ATOM      9  C   UNL     1      27.472 -13.258   2.521 -0.30 -0.00    +0.000 A 
DOCKED: ATOM     10  C   UNL     1      28.686 -13.613   1.915 -0.19 -0.00    +0.000 A 
DOCKED: ATOM     11  C   UNL     1      28.831 -14.854   1.278 -0.02 -0.00    +0.000 A 
DOCKED: BRANCH   7  12
DOCKED: ATOM     12  C   UNL     1      28.242  -9.778   3.857 -0.20 +0.00    +0.000 C 
DOCKED: BRANCH  12  13
DOCKED: ATOM     13  N   UNL     1      28.162  -9.948   5.324 -0.31 +0.00    +0.000 N 
DOCKED: ATOM     14  H   UNL     1      27.202 -10.196   5.562 -0.13 +0.00    +0.000 HD
DOCKED: BRANCH  13  15
DOCKED: ATOM     15  C   UNL     1      28.431  -8.674   6.032 -0.22 +0.00    +0.000 C 
DOCKED: ATOM     16  C   UNL     1      28.521  -7.493   5.064 -0.18 +0.00    +0.000 C 
DOCKED: ENDBRANCH  13  15
DOCKED: BRANCH  13  17
DOCKED: ATOM     17  C   UNL     1      28.980 -11.092   5.799 -0.28 +0.00    +0.000 C 
DOCKED: ATOM     18  C   UNL     1      28.164 -12.256   6.377 -0.40 +0.00    +0.000 C 
DOCKED: ENDBRANCH  13  17
DOCKED: ENDBRANCH  12  13
DOCKED: ENDBRANCH   7  12
DOCKED: ENDBRANCH   1   2
DOCKED: BRANCH   1  19
DOCKED: ATOM     19  O   UNL     1      29.655 -16.509  -1.290 -0.21 -0.00    +0.000 OA
DOCKED: BRANCH  19  21
DOCKED: ATOM     20  O   UNL     1      27.852 -16.666  -2.720 -0.33 -0.00    +0.000 OA
DOCKED: ATOM     21  C   UNL     1      28.293 -16.695  -1.538 -0.34 -0.00    +0.000 C 
DOCKED: ATOM     22  N   UNL     1      27.402 -16.876  -0.429 -0.41 -0.00    +0.000 N 
DOCKED: ATOM     23  H   UNL     1      27.761 -16.732   0.476 -0.23 -0.00    +0.000 HD
DOCKED: BRANCH  22  24
DOCKED: ATOM     24  C   UNL     1      26.020 -17.253  -0.553 -0.53 -0.00    +0.000 A 
DOCKED: ATOM     25  C   UNL     1      25.650 -18.588  -0.346 -0.54 -0.00    +0.000 A 
DOCKED: ATOM     26  C   UNL     1      24.318 -18.986  -0.481 -0.33 -0.00    +0.000 A 
DOCKED: ATOM     27  C   UNL     1      23.326 -18.055  -0.835 -0.72 -0.00    +0.000 A 
DOCKED: ATOM     28  C   UNL     1      23.704 -16.722  -1.078 -0.45 -0.00    +0.000 A 
DOCKED: ATOM     29  C   UNL     1      25.038 -16.326  -0.941 -0.46 -0.00    +0.000 A 
DOCKED: BRANCH  27  30
DOCKED: ATOM     30  C   UNL     1      21.916 -18.493  -0.979 -0.81 -0.00    +0.000 C 
DOCKED: ATOM     31  N   UNL     1      21.558 -19.597  -1.820 -0.42 -0.00    +0.000 N 
DOCKED: ATOM     32  O   UNL     1      21.007 -17.874  -0.361 -1.96 +0.00    +0.000 OA
DOCKED: ATOM     33  H   UNL     1      22.245 -20.033  -2.374 -0.57 -0.00    +0.000 HD
DOCKED: BRANCH  31  34
DOCKED: ATOM     34  O   UNL     1      20.279 -20.041  -1.856 -1.79 -0.00    +0.000 OA
DOCKED: ATOM     35  H   UNL     1      19.702 -19.404  -1.404 -0.14 -0.00    +0.000 HD
DOCKED: ENDBRANCH  31  34
DOCKED: ENDBRANCH  27  30
DOCKED: ENDBRANCH  22  24
DOCKED: ENDBRANCH  19  21
DOCKED: ENDBRANCH   1  19
DOCKED: TORSDOF 10
DOCKED: TER
DOCKED: ENDMDL
________________________________________________________________________________


	BEGINNING GENETIC ALGORITHM DOCKING 88 of 100
Run: 88 Seed: 1545400969 1876611276 [ Run 88 of 100 GA/GALS ]
Beginning LAMARCKIAN GENETIC ALGORITHM (LGA), with a maximum of 2500000 energy evaluations.

Final-Value: -16.543


	FINAL GENETIC ALGORITHM DOCKED STATE
	_______________________________________________


Detailed state:  trans 29.055 -14.128 0.372 quatxyzw -0.049552 -0.775887 0.293839 0.556060 center 1.857 0.216 -0.019 ntor 10 103.3719 129.4880 12.6772 -37.1274 -180.0000 179.5448 5.7395 110.2671 116.7422 99.5171
State:	 29.055 -14.128   0.372  -0.060 -0.934  0.354 112.432    103.37  129.49   12.68  -37.13 -180.00  179.54    5.74  110.27  116.74   99.52

DOCKED: MODEL       88
DOCKED: USER    Run = 88
DOCKED: USER    DPF = ligand_dock.biased.dpf
DOCKED: USER  
DOCKED: USER    Estimated Free Energy of Binding    =  -11.58 kcal/mol  [=(1)+(2)+(3)-(4)]
DOCKED: USER    Estimated Inhibition Constant, Ki   =    3.23 nM (nanomolar)  [Temperature = 298.15 K]
DOCKED: USER    
DOCKED: USER    (1) Final Intermolecular Energy     =  -14.57 kcal/mol
DOCKED: USER        vdW + Hbond + desolv Energy     =  -14.57 kcal/mol
DOCKED: USER        Electrostatic Energy            =   +0.00 kcal/mol
DOCKED: USER    (2) Final Total Internal Energy     =   -1.98 kcal/mol
DOCKED: USER    (3) Torsional Free Energy           =   +2.98 kcal/mol
DOCKED: USER    (4) Unbound System's Energy  [=(2)] =   -1.98 kcal/mol
DOCKED: USER    
DOCKED: USER    
DOCKED: USER    NEWDPF move ligand.pdbqt
DOCKED: USER    NEWDPF about 1.857000 0.216000 -0.019000
DOCKED: USER    NEWDPF tran0 29.054619 -14.127501 0.372284
DOCKED: USER    NEWDPF quaternion0 -0.049552 -0.775887 0.293839 0.556060
DOCKED: USER    NEWDPF axisangle0 -0.059619 -0.933519 0.353537 112.432446
DOCKED: USER    NEWDPF quat0 -0.059619 -0.933519 0.353537 112.432446
DOCKED: USER    NEWDPF dihe0 103.37 129.49 12.68 -37.13 -180.00 179.54 5.74 110.27 116.74 99.52 
DOCKED: USER  keepresnum = 1 
DOCKED: USER  
DOCKED: REMARK  Name = 
DOCKED: REMARK  12 active torsions:
DOCKED: REMARK  status: ('A' for Active; 'I' for Inactive)
DOCKED: REMARK    1  A    between atoms: C_2  and  O_3
DOCKED: REMARK    2  A    between atoms: O_3  and  C_4
DOCKED: REMARK    3  A    between atoms: C_4  and  C_5
DOCKED: REMARK    4  A    between atoms: C_10  and  C_11
DOCKED: REMARK    5  A    between atoms: C_11  and  N_12
DOCKED: REMARK    6  A    between atoms: N_12  and  C_13
DOCKED: REMARK    7  A    between atoms: N_12  and  C_15
DOCKED: REMARK    8  A    between atoms: C_13  and  C_14
DOCKED: REMARK    9  A    between atoms: C_15  and  C_16
DOCKED: REMARK   10  A    between atoms: N_21  and  C_22
DOCKED: REMARK   11  A    between atoms: C_25  and  C_26
DOCKED: REMARK   12  A    between atoms: N_27  and  O_28
DOCKED: REMARK                            x       y       z     vdW  Elec       q    Type
DOCKED: REMARK                         _______ _______ _______ _____ _____    ______ ____
DOCKED: USER                              x       y       z     vdW  Elec       q    Type
DOCKED: USER                           _______ _______ _______ _____ _____    ______ ____
DOCKED: ROOT
DOCKED: ATOM      1  C   UNL     1      30.107 -15.395   0.460 -0.13 -0.00    +0.000 C 
DOCKED: ENDROOT
DOCKED: BRANCH   1   2
DOCKED: ATOM      2  C   UNL     1      30.155 -14.867   1.865 +0.01 -0.00    +0.000 A 
DOCKED: ATOM      3  C   UNL     1      31.365 -14.866   2.577 -0.17 -0.00    +0.000 A 
DOCKED: ATOM      4  C   UNL     1      31.407 -14.410   3.898 -0.19 -0.00    +0.000 A 
DOCKED: ATOM      5  C   UNL     1      30.238 -13.962   4.528 -0.28 -0.00    +0.000 A 
DOCKED: ATOM      6  C   UNL     1      30.271 -13.504   5.854 -0.26 -0.00    +0.000 A 
DOCKED: ATOM      7  C   UNL     1      29.096 -13.061   6.482 -0.36 -0.00    +0.000 A 
DOCKED: ATOM      8  C   UNL     1      27.885 -13.078   5.774 -0.34 -0.00    +0.000 A 
DOCKED: ATOM      9  C   UNL     1      27.841 -13.534   4.454 -0.46 -0.00    +0.000 A 
DOCKED: ATOM     10  C   UNL     1      29.012 -13.977   3.821 -0.33 -0.00    +0.000 A 
DOCKED: ATOM     11  C   UNL     1      28.979 -14.435   2.496 -0.12 -0.00    +0.000 A 
DOCKED: BRANCH   7  12
DOCKED: ATOM     12  C   UNL     1      29.129 -12.550   7.899 -0.42 -0.00    +0.000 C 
DOCKED: BRANCH  12  13
DOCKED: ATOM     13  N   UNL     1      29.412 -13.660   8.834 -0.41 -0.00    +0.000 N 
DOCKED: ATOM     14  H   UNL     1      29.486 -14.521   8.291 -0.52 -0.00    +0.000 HD
DOCKED: BRANCH  13  15
DOCKED: ATOM     15  C   UNL     1      28.286 -13.876   9.773 -0.42 -0.00    +0.000 C 
DOCKED: ATOM     16  C   UNL     1      28.442 -13.050  11.049 -0.53 -0.00    +0.000 C 
DOCKED: ENDBRANCH  13  15
DOCKED: BRANCH  13  17
DOCKED: ATOM     17  C   UNL     1      30.734 -13.511   9.493 -0.30 -0.00    +0.000 C 
DOCKED: ATOM     18  C   UNL     1      31.256 -14.792  10.158 -0.36 -0.00    +0.000 C 
DOCKED: ENDBRANCH  13  17
DOCKED: ENDBRANCH  12  13
DOCKED: ENDBRANCH   7  12
DOCKED: ENDBRANCH   1   2
DOCKED: BRANCH   1  19
DOCKED: ATOM     19  O   UNL     1      29.049 -14.755  -0.245 -0.16 -0.00    +0.000 OA
DOCKED: BRANCH  19  21
DOCKED: ATOM     20  O   UNL     1      26.889 -14.407   0.485 -0.34 -0.00    +0.000 OA
DOCKED: ATOM     21  C   UNL     1      27.714 -15.146  -0.119 -0.29 -0.00    +0.000 C 
DOCKED: ATOM     22  N   UNL     1      27.307 -16.416  -0.647 -0.38 -0.00    +0.000 N 
DOCKED: ATOM     23  H   UNL     1      28.010 -17.027  -0.966 -0.03 -0.00    +0.000 HD
DOCKED: BRANCH  22  24
DOCKED: ATOM     24  C   UNL     1      25.941 -16.855  -0.743 -0.50 -0.00    +0.000 A 
DOCKED: ATOM     25  C   UNL     1      25.630 -18.196  -0.484 -0.61 -0.00    +0.000 A 
DOCKED: ATOM     26  C   UNL     1      24.314 -18.654  -0.591 -0.63 -0.00    +0.000 A 
DOCKED: ATOM     27  C   UNL     1      23.280 -17.779  -0.967 -0.69 -0.00    +0.000 A 
DOCKED: ATOM     28  C   UNL     1      23.600 -16.441  -1.262 +0.18 -0.00    +0.000 A 
DOCKED: ATOM     29  C   UNL     1      24.917 -15.984  -1.153 -0.36 -0.00    +0.000 A 
DOCKED: BRANCH  27  30
DOCKED: ATOM     30  C   UNL     1      21.889 -18.280  -1.081 -0.75 -0.00    +0.000 C 
DOCKED: ATOM     31  N   UNL     1      21.610 -19.670  -1.290 -0.58 -0.00    +0.000 N 
DOCKED: ATOM     32  O   UNL     1      20.928 -17.466  -1.006 -1.98 -0.00    +0.000 OA
DOCKED: ATOM     33  H   UNL     1      22.350 -20.301  -1.436 -0.29 -0.00    +0.000 HD
DOCKED: BRANCH  31  34
DOCKED: ATOM     34  O   UNL     1      20.332 -20.117  -1.288 -1.45 -0.00    +0.000 OA
DOCKED: ATOM     35  H   UNL     1      19.724 -19.361  -1.333 -0.12 -0.00    +0.000 HD
DOCKED: ENDBRANCH  31  34
DOCKED: ENDBRANCH  27  30
DOCKED: ENDBRANCH  22  24
DOCKED: ENDBRANCH  19  21
DOCKED: ENDBRANCH   1  19
DOCKED: TORSDOF 10
DOCKED: TER
DOCKED: ENDMDL
________________________________________________________________________________


	BEGINNING GENETIC ALGORITHM DOCKING 89 of 100
Run: 89 Seed: 852814000 2109987619 [ Run 89 of 100 GA/GALS ]
Beginning LAMARCKIAN GENETIC ALGORITHM (LGA), with a maximum of 2500000 energy evaluations.

Final-Value: -14.769


	FINAL GENETIC ALGORITHM DOCKED STATE
	_______________________________________________


Detailed state:  trans 28.663 -15.288 -5.426 quatxyzw -0.278038 -0.439298 -0.692223 0.500538 center 1.857 0.216 -0.019 ntor 10 -180.0000 -160.5607 -4.9185 -34.5177 -142.2073 -153.6598 86.0380 -118.4834 175.4059 -128.3059
State:	 28.663 -15.288  -5.426  -0.321 -0.507 -0.800 119.929   -180.00 -160.56   -4.92  -34.52 -142.21 -153.66   86.04 -118.48  175.41 -128.31

DOCKED: MODEL       89
DOCKED: USER    Run = 89
DOCKED: USER    DPF = ligand_dock.biased.dpf
DOCKED: USER  
DOCKED: USER    Estimated Free Energy of Binding    =   -9.34 kcal/mol  [=(1)+(2)+(3)-(4)]
DOCKED: USER    Estimated Inhibition Constant, Ki   =  143.12 nM (nanomolar)  [Temperature = 298.15 K]
DOCKED: USER    
DOCKED: USER    (1) Final Intermolecular Energy     =  -12.32 kcal/mol
DOCKED: USER        vdW + Hbond + desolv Energy     =  -12.32 kcal/mol
DOCKED: USER        Electrostatic Energy            =   +0.00 kcal/mol
DOCKED: USER    (2) Final Total Internal Energy     =   -2.45 kcal/mol
DOCKED: USER    (3) Torsional Free Energy           =   +2.98 kcal/mol
DOCKED: USER    (4) Unbound System's Energy  [=(2)] =   -2.45 kcal/mol
DOCKED: USER    
DOCKED: USER    
DOCKED: USER    NEWDPF move ligand.pdbqt
DOCKED: USER    NEWDPF about 1.857000 0.216000 -0.019000
DOCKED: USER    NEWDPF tran0 28.663170 -15.288497 -5.426104
DOCKED: USER    NEWDPF quaternion0 -0.278038 -0.439298 -0.692223 0.500538
DOCKED: USER    NEWDPF axisangle0 -0.321166 -0.507440 -0.799598 119.928742
DOCKED: USER    NEWDPF quat0 -0.321166 -0.507440 -0.799598 119.928742
DOCKED: USER    NEWDPF dihe0 -180.00 -160.56 -4.92 -34.52 -142.21 -153.66 86.04 -118.48 175.41 -128.31 
DOCKED: USER  keepresnum = 1 
DOCKED: USER  
DOCKED: REMARK  Name = 
DOCKED: REMARK  12 active torsions:
DOCKED: REMARK  status: ('A' for Active; 'I' for Inactive)
DOCKED: REMARK    1  A    between atoms: C_2  and  O_3
DOCKED: REMARK    2  A    between atoms: O_3  and  C_4
DOCKED: REMARK    3  A    between atoms: C_4  and  C_5
DOCKED: REMARK    4  A    between atoms: C_10  and  C_11
DOCKED: REMARK    5  A    between atoms: C_11  and  N_12
DOCKED: REMARK    6  A    between atoms: N_12  and  C_13
DOCKED: REMARK    7  A    between atoms: N_12  and  C_15
DOCKED: REMARK    8  A    between atoms: C_13  and  C_14
DOCKED: REMARK    9  A    between atoms: C_15  and  C_16
DOCKED: REMARK   10  A    between atoms: N_21  and  C_22
DOCKED: REMARK   11  A    between atoms: C_25  and  C_26
DOCKED: REMARK   12  A    between atoms: N_27  and  O_28
DOCKED: REMARK                            x       y       z     vdW  Elec       q    Type
DOCKED: REMARK                         _______ _______ _______ _____ _____    ______ ____
DOCKED: USER                              x       y       z     vdW  Elec       q    Type
DOCKED: USER                           _______ _______ _______ _____ _____    ______ ____
DOCKED: ROOT
DOCKED: ATOM      1  C   UNL     1      30.253 -14.866  -5.304 -0.17 -0.00    +0.000 C 
DOCKED: ENDROOT
DOCKED: BRANCH   1   2
DOCKED: ATOM      2  C   UNL     1      30.354 -16.341  -5.564 -0.25 -0.00    +0.000 A 
DOCKED: ATOM      3  C   UNL     1      30.247 -17.253  -4.503 -0.24 -0.00    +0.000 A 
DOCKED: ATOM      4  C   UNL     1      30.378 -18.626  -4.735 -0.21 -0.00    +0.000 A 
DOCKED: ATOM      5  C   UNL     1      30.631 -19.103  -6.028 -0.35 -0.00    +0.000 A 
DOCKED: ATOM      6  C   UNL     1      30.765 -20.479  -6.269 -0.38 -0.00    +0.000 A 
DOCKED: ATOM      7  C   UNL     1      31.023 -20.950  -7.567 -0.29 -0.00    +0.000 A 
DOCKED: ATOM      8  C   UNL     1      31.145 -20.036  -8.624 -0.31 -0.00    +0.000 A 
DOCKED: ATOM      9  C   UNL     1      31.015 -18.664  -8.393 -0.33 -0.00    +0.000 A 
DOCKED: ATOM     10  C   UNL     1      30.757 -18.187  -7.100 -0.33 -0.00    +0.000 A 
DOCKED: ATOM     11  C   UNL     1      30.623 -16.812  -6.859 -0.30 -0.00    +0.000 A 
DOCKED: BRANCH   7  12
DOCKED: ATOM     12  C   UNL     1      31.148 -22.427  -7.835 -0.18 -0.00    +0.000 C 
DOCKED: BRANCH  12  13
DOCKED: ATOM     13  N   UNL     1      31.938 -23.074  -6.765 -0.17 -0.00    +0.000 N 
DOCKED: ATOM     14  H   UNL     1      32.202 -22.356  -6.089 +0.00 -0.00    +0.000 HD
DOCKED: BRANCH  13  15
DOCKED: ATOM     15  C   UNL     1      33.214 -23.617  -7.289 -0.07 -0.00    +0.000 C 
DOCKED: ATOM     16  C   UNL     1      33.226 -23.671  -8.816 -0.07 -0.00    +0.000 C 
DOCKED: ENDBRANCH  13  15
DOCKED: BRANCH  13  17
DOCKED: ATOM     17  C   UNL     1      31.133 -24.050  -5.990 -0.20 -0.00    +0.000 C 
DOCKED: ATOM     18  C   UNL     1      30.492 -23.474  -4.720 -0.29 -0.00    +0.000 C 
DOCKED: ENDBRANCH  13  17
DOCKED: ENDBRANCH  12  13
DOCKED: ENDBRANCH   7  12
DOCKED: ENDBRANCH   1   2
DOCKED: BRANCH   1  19
DOCKED: ATOM     19  O   UNL     1      28.907 -14.446  -5.501 -0.27 -0.00    +0.000 OA
DOCKED: BRANCH  19  21
DOCKED: ATOM     20  O   UNL     1      26.917 -15.610  -5.579 -1.16 +0.00    +0.000 OA
DOCKED: ATOM     21  C   UNL     1      27.823 -15.074  -4.883 -0.41 -0.00    +0.000 C 
DOCKED: ATOM     22  N   UNL     1      27.736 -15.064  -3.451 -0.25 -0.00    +0.000 N 
DOCKED: ATOM     23  H   UNL     1      28.374 -14.501  -2.957 +0.01 -0.00    +0.000 HD
DOCKED: BRANCH  22  24
DOCKED: ATOM     24  C   UNL     1      26.778 -15.821  -2.692 -0.36 -0.00    +0.000 A 
DOCKED: ATOM     25  C   UNL     1      25.410 -15.575  -2.870 -0.47 -0.00    +0.000 A 
DOCKED: ATOM     26  C   UNL     1      24.459 -16.280  -2.129 -0.17 -0.00    +0.000 A 
DOCKED: ATOM     27  C   UNL     1      24.857 -17.244  -1.186 -0.60 -0.00    +0.000 A 
DOCKED: ATOM     28  C   UNL     1      26.232 -17.464  -0.983 -0.52 -0.00    +0.000 A 
DOCKED: ATOM     29  C   UNL     1      27.182 -16.758  -1.726 -0.36 -0.00    +0.000 A 
DOCKED: BRANCH  27  30
DOCKED: ATOM     30  C   UNL     1      23.836 -17.983  -0.404 -0.77 -0.00    +0.000 C 
DOCKED: ATOM     31  N   UNL     1      22.457 -17.987  -0.792 -0.74 -0.00    +0.000 N 
DOCKED: ATOM     32  O   UNL     1      24.183 -18.611   0.633 -0.56 -0.00    +0.000 OA
DOCKED: ATOM     33  H   UNL     1      22.159 -17.431  -1.547 -0.02 -0.00    +0.000 HD
DOCKED: BRANCH  31  34
DOCKED: ATOM     34  O   UNL     1      21.562 -18.750  -0.121 -1.16 -0.00    +0.000 OA
DOCKED: ATOM     35  H   UNL     1      22.026 -19.290   0.539 -0.35 -0.00    +0.000 HD
DOCKED: ENDBRANCH  31  34
DOCKED: ENDBRANCH  27  30
DOCKED: ENDBRANCH  22  24
DOCKED: ENDBRANCH  19  21
DOCKED: ENDBRANCH   1  19
DOCKED: TORSDOF 10
DOCKED: TER
DOCKED: ENDMDL
________________________________________________________________________________


	BEGINNING GENETIC ALGORITHM DOCKING 90 of 100
Run: 90 Seed: 866298990 677256162 [ Run 90 of 100 GA/GALS ]
Beginning LAMARCKIAN GENETIC ALGORITHM (LGA), with a maximum of 2500000 energy evaluations.

Final-Value: -17.767


	FINAL GENETIC ALGORITHM DOCKED STATE
	_______________________________________________


Detailed state:  trans 28.898 -16.218 -0.094 quatxyzw 0.536689 -0.680457 -0.245657 0.434277 center 1.857 0.216 -0.019 ntor 10 175.2830 -133.0913 22.7019 -41.0133 173.1648 -52.3044 -69.4420 43.2626 8.2244 -98.1168
State:	 28.898 -16.218  -0.094   0.596 -0.755 -0.273 128.521    175.28 -133.09   22.70  -41.01  173.16  -52.30  -69.44   43.26    8.22  -98.12

DOCKED: MODEL       90
DOCKED: USER    Run = 90
DOCKED: USER    DPF = ligand_dock.biased.dpf
DOCKED: USER  
DOCKED: USER    Estimated Free Energy of Binding    =  -12.62 kcal/mol  [=(1)+(2)+(3)-(4)]
DOCKED: USER    Estimated Inhibition Constant, Ki   =  562.46 pM (picomolar)  [Temperature = 298.15 K]
DOCKED: USER    
DOCKED: USER    (1) Final Intermolecular Energy     =  -15.60 kcal/mol
DOCKED: USER        vdW + Hbond + desolv Energy     =  -15.60 kcal/mol
DOCKED: USER        Electrostatic Energy            =   +0.00 kcal/mol
DOCKED: USER    (2) Final Total Internal Energy     =   -2.16 kcal/mol
DOCKED: USER    (3) Torsional Free Energy           =   +2.98 kcal/mol
DOCKED: USER    (4) Unbound System's Energy  [=(2)] =   -2.16 kcal/mol
DOCKED: USER    
DOCKED: USER    
DOCKED: USER    NEWDPF move ligand.pdbqt
DOCKED: USER    NEWDPF about 1.857000 0.216000 -0.019000
DOCKED: USER    NEWDPF tran0 28.898185 -16.217530 -0.094249
DOCKED: USER    NEWDPF quaternion0 0.536689 -0.680457 -0.245657 0.434277
DOCKED: USER    NEWDPF axisangle0 0.595805 -0.755409 -0.272716 128.521450
DOCKED: USER    NEWDPF quat0 0.595805 -0.755409 -0.272716 128.521450
DOCKED: USER    NEWDPF dihe0 175.28 -133.09 22.70 -41.01 173.16 -52.30 -69.44 43.26 8.22 -98.12 
DOCKED: USER  keepresnum = 1 
DOCKED: USER  
DOCKED: REMARK  Name = 
DOCKED: REMARK  12 active torsions:
DOCKED: REMARK  status: ('A' for Active; 'I' for Inactive)
DOCKED: REMARK    1  A    between atoms: C_2  and  O_3
DOCKED: REMARK    2  A    between atoms: O_3  and  C_4
DOCKED: REMARK    3  A    between atoms: C_4  and  C_5
DOCKED: REMARK    4  A    between atoms: C_10  and  C_11
DOCKED: REMARK    5  A    between atoms: C_11  and  N_12
DOCKED: REMARK    6  A    between atoms: N_12  and  C_13
DOCKED: REMARK    7  A    between atoms: N_12  and  C_15
DOCKED: REMARK    8  A    between atoms: C_13  and  C_14
DOCKED: REMARK    9  A    between atoms: C_15  and  C_16
DOCKED: REMARK   10  A    between atoms: N_21  and  C_22
DOCKED: REMARK   11  A    between atoms: C_25  and  C_26
DOCKED: REMARK   12  A    between atoms: N_27  and  O_28
DOCKED: REMARK                            x       y       z     vdW  Elec       q    Type
DOCKED: REMARK                         _______ _______ _______ _____ _____    ______ ____
DOCKED: USER                              x       y       z     vdW  Elec       q    Type
DOCKED: USER                           _______ _______ _______ _____ _____    ______ ____
DOCKED: ROOT
DOCKED: ATOM      1  C   UNL     1      30.015 -15.128  -0.630 -0.12 -0.00    +0.000 C 
DOCKED: ENDROOT
DOCKED: BRANCH   1   2
DOCKED: ATOM      2  C   UNL     1      30.012 -14.854   0.846 -0.12 -0.00    +0.000 A 
DOCKED: ATOM      3  C   UNL     1      31.109 -15.233   1.636 -0.12 -0.00    +0.000 A 
DOCKED: ATOM      4  C   UNL     1      31.095 -15.014   3.017 -0.20 -0.00    +0.000 A 
DOCKED: ATOM      5  C   UNL     1      29.978 -14.426   3.628 -0.27 -0.00    +0.000 A 
DOCKED: ATOM      6  C   UNL     1      29.955 -14.204   5.013 -0.29 -0.00    +0.000 A 
DOCKED: ATOM      7  C   UNL     1      28.832 -13.619   5.620 -0.41 -0.00    +0.000 A 
DOCKED: ATOM      8  C   UNL     1      27.730 -13.256   4.831 -0.45 -0.00    +0.000 A 
DOCKED: ATOM      9  C   UNL     1      27.743 -13.474   3.451 -0.37 -0.00    +0.000 A 
DOCKED: ATOM     10  C   UNL     1      28.862 -14.058   2.839 -0.25 -0.00    +0.000 A 
DOCKED: ATOM     11  C   UNL     1      28.885 -14.279   1.454 -0.17 -0.00    +0.000 A 
DOCKED: BRANCH   7  12
DOCKED: ATOM     12  C   UNL     1      28.810 -13.360   7.104 -0.33 -0.00    +0.000 C 
DOCKED: BRANCH  12  13
DOCKED: ATOM     13  N   UNL     1      29.924 -12.463   7.480 -0.27 -0.00    +0.000 N 
DOCKED: ATOM     14  H   UNL     1      30.501 -12.312   6.653 +0.00 -0.00    +0.000 HD
DOCKED: BRANCH  13  15
DOCKED: ATOM     15  C   UNL     1      30.816 -13.098   8.479 -0.28 -0.00    +0.000 C 
DOCKED: ATOM     16  C   UNL     1      30.137 -14.274   9.182 -0.40 -0.00    +0.000 C 
DOCKED: ENDBRANCH  13  15
DOCKED: BRANCH  13  17
DOCKED: ATOM     17  C   UNL     1      29.446 -11.111   7.864 -0.32 -0.00    +0.000 C 
DOCKED: ATOM     18  C   UNL     1      28.817 -10.313   6.713 -0.31 +0.00    +0.000 C 
DOCKED: ENDBRANCH  13  17
DOCKED: ENDBRANCH  12  13
DOCKED: ENDBRANCH   7  12
DOCKED: ENDBRANCH   1   2
DOCKED: BRANCH   1  19
DOCKED: ATOM     19  O   UNL     1      29.266 -16.311  -0.889 -0.24 -0.00    +0.000 OA
DOCKED: BRANCH  19  21
DOCKED: ATOM     20  O   UNL     1      27.276 -15.397  -1.613 -0.28 -0.00    +0.000 OA
DOCKED: ATOM     21  C   UNL     1      27.873 -16.315  -0.986 -0.36 -0.00    +0.000 C 
DOCKED: ATOM     22  N   UNL     1      27.132 -17.352  -0.329 -0.48 -0.00    +0.000 N 
DOCKED: ATOM     23  H   UNL     1      27.622 -17.953   0.277 -0.38 -0.00    +0.000 HD
DOCKED: BRANCH  22  24
DOCKED: ATOM     24  C   UNL     1      25.721 -17.573  -0.499 -0.57 -0.00    +0.000 A 
DOCKED: ATOM     25  C   UNL     1      25.229 -18.885  -0.522 -0.20 -0.00    +0.000 A 
DOCKED: ATOM     26  C   UNL     1      23.865 -19.128  -0.708 -0.53 -0.00    +0.000 A 
DOCKED: ATOM     27  C   UNL     1      22.965 -18.063  -0.881 -0.72 -0.00    +0.000 A 
DOCKED: ATOM     28  C   UNL     1      23.466 -16.748  -0.894 -0.43 -0.00    +0.000 A 
DOCKED: ATOM     29  C   UNL     1      24.831 -16.506  -0.708 -0.45 -0.00    +0.000 A 
DOCKED: BRANCH  27  30
DOCKED: ATOM     30  C   UNL     1      21.521 -18.337  -1.081 -0.73 -0.00    +0.000 C 
DOCKED: ATOM     31  N   UNL     1      21.069 -19.545  -1.706 -0.69 -0.00    +0.000 N 
DOCKED: ATOM     32  O   UNL     1      20.670 -17.485  -0.707 -2.08 +0.00    +0.000 OA
DOCKED: ATOM     33  H   UNL     1      21.724 -20.178  -2.079 -0.53 -0.00    +0.000 HD
DOCKED: BRANCH  31  34
DOCKED: ATOM     34  O   UNL     1      19.745 -19.818  -1.785 -1.75 -0.00    +0.000 OA
DOCKED: ATOM     35  H   UNL     1      19.239 -18.993  -1.716 -0.49 -0.00    +0.000 HD
DOCKED: ENDBRANCH  31  34
DOCKED: ENDBRANCH  27  30
DOCKED: ENDBRANCH  22  24
DOCKED: ENDBRANCH  19  21
DOCKED: ENDBRANCH   1  19
DOCKED: TORSDOF 10
DOCKED: TER
DOCKED: ENDMDL
________________________________________________________________________________


	BEGINNING GENETIC ALGORITHM DOCKING 91 of 100
Run: 91 Seed: 1352740807 2120174053 [ Run 91 of 100 GA/GALS ]
Beginning LAMARCKIAN GENETIC ALGORITHM (LGA), with a maximum of 2500000 energy evaluations.

Final-Value: -14.754


	FINAL GENETIC ALGORITHM DOCKED STATE
	_______________________________________________


Detailed state:  trans 27.628 -16.431 -1.733 quatxyzw -0.255294 0.616134 0.670150 -0.325733 center 1.857 0.216 -0.019 ntor 10 179.7115 161.4353 1.9144 -29.2364 -91.3617 -50.0042 -45.4788 49.1359 114.5283 -83.3244
State:	 27.628 -16.431  -1.733  -0.270  0.652  0.709 -141.980    179.71  161.44    1.91  -29.24  -91.36  -50.00  -45.48   49.14  114.53  -83.32

DOCKED: MODEL       91
DOCKED: USER    Run = 91
DOCKED: USER    DPF = ligand_dock.biased.dpf
DOCKED: USER  
DOCKED: USER    Estimated Free Energy of Binding    =   -9.75 kcal/mol  [=(1)+(2)+(3)-(4)]
DOCKED: USER    Estimated Inhibition Constant, Ki   =   71.32 nM (nanomolar)  [Temperature = 298.15 K]
DOCKED: USER    
DOCKED: USER    (1) Final Intermolecular Energy     =  -12.73 kcal/mol
DOCKED: USER        vdW + Hbond + desolv Energy     =  -12.73 kcal/mol
DOCKED: USER        Electrostatic Energy            =   +0.00 kcal/mol
DOCKED: USER    (2) Final Total Internal Energy     =   -2.02 kcal/mol
DOCKED: USER    (3) Torsional Free Energy           =   +2.98 kcal/mol
DOCKED: USER    (4) Unbound System's Energy  [=(2)] =   -2.02 kcal/mol
DOCKED: USER    
DOCKED: USER    
DOCKED: USER    NEWDPF move ligand.pdbqt
DOCKED: USER    NEWDPF about 1.857000 0.216000 -0.019000
DOCKED: USER    NEWDPF tran0 27.628056 -16.430946 -1.732654
DOCKED: USER    NEWDPF quaternion0 -0.255294 0.616134 0.670150 -0.325733
DOCKED: USER    NEWDPF axisangle0 -0.270020 0.651676 0.708807 -141.979968
DOCKED: USER    NEWDPF quat0 -0.270020 0.651676 0.708807 -141.979968
DOCKED: USER    NEWDPF dihe0 179.71 161.44 1.91 -29.24 -91.36 -50.00 -45.48 49.14 114.53 -83.32 
DOCKED: USER  keepresnum = 1 
DOCKED: USER  
DOCKED: REMARK  Name = 
DOCKED: REMARK  12 active torsions:
DOCKED: REMARK  status: ('A' for Active; 'I' for Inactive)
DOCKED: REMARK    1  A    between atoms: C_2  and  O_3
DOCKED: REMARK    2  A    between atoms: O_3  and  C_4
DOCKED: REMARK    3  A    between atoms: C_4  and  C_5
DOCKED: REMARK    4  A    between atoms: C_10  and  C_11
DOCKED: REMARK    5  A    between atoms: C_11  and  N_12
DOCKED: REMARK    6  A    between atoms: N_12  and  C_13
DOCKED: REMARK    7  A    between atoms: N_12  and  C_15
DOCKED: REMARK    8  A    between atoms: C_13  and  C_14
DOCKED: REMARK    9  A    between atoms: C_15  and  C_16
DOCKED: REMARK   10  A    between atoms: N_21  and  C_22
DOCKED: REMARK   11  A    between atoms: C_25  and  C_26
DOCKED: REMARK   12  A    between atoms: N_27  and  O_28
DOCKED: REMARK                            x       y       z     vdW  Elec       q    Type
DOCKED: REMARK                         _______ _______ _______ _____ _____    ______ ____
DOCKED: USER                              x       y       z     vdW  Elec       q    Type
DOCKED: USER                           _______ _______ _______ _____ _____    ______ ____
DOCKED: ROOT
DOCKED: ATOM      1  C   UNL     1      28.312 -14.936  -1.879 -0.19 -0.00    +0.000 C 
DOCKED: ENDROOT
DOCKED: BRANCH   1   2
DOCKED: ATOM      2  C   UNL     1      29.285 -15.623  -0.966 -0.16 -0.00    +0.000 A 
DOCKED: ATOM      3  C   UNL     1      29.935 -14.900   0.045 -0.12 -0.00    +0.000 A 
DOCKED: ATOM      4  C   UNL     1      30.871 -15.526   0.874 -0.10 -0.00    +0.000 A 
DOCKED: ATOM      5  C   UNL     1      31.178 -16.882   0.694 -0.07 -0.00    +0.000 A 
DOCKED: ATOM      6  C   UNL     1      32.116 -17.519   1.521 -0.15 -0.00    +0.000 A 
DOCKED: ATOM      7  C   UNL     1      32.424 -18.876   1.332 -0.14 -0.00    +0.000 A 
DOCKED: ATOM      8  C   UNL     1      31.784 -19.594   0.310 -0.14 -0.00    +0.000 A 
DOCKED: ATOM      9  C   UNL     1      30.850 -18.969  -0.519 -0.10 -0.00    +0.000 A 
DOCKED: ATOM     10  C   UNL     1      30.538 -17.613  -0.336 -0.12 -0.00    +0.000 A 
DOCKED: ATOM     11  C   UNL     1      29.600 -16.977  -1.162 -0.22 -0.00    +0.000 A 
DOCKED: BRANCH   7  12
DOCKED: ATOM     12  C   UNL     1      33.415 -19.569   2.229 -0.14 -0.00    +0.000 C 
DOCKED: BRANCH  12  13
DOCKED: ATOM     13  N   UNL     1      32.936 -19.549   3.628 -0.30 -0.00    +0.000 N 
DOCKED: ATOM     14  H   UNL     1      31.996 -19.153   3.635 -0.03 -0.00    +0.000 HD
DOCKED: BRANCH  13  15
DOCKED: ATOM     15  C   UNL     1      33.756 -18.642   4.466 -0.27 -0.00    +0.000 C 
DOCKED: ATOM     16  C   UNL     1      35.058 -18.246   3.771 -0.17 -0.00    +0.000 C 
DOCKED: ENDBRANCH  13  15
DOCKED: BRANCH  13  17
DOCKED: ATOM     17  C   UNL     1      32.779 -20.916   4.184 -0.41 -0.00    +0.000 C 
DOCKED: ATOM     18  C   UNL     1      31.440 -21.159   4.894 -0.68 -0.00    +0.000 C 
DOCKED: ENDBRANCH  13  17
DOCKED: ENDBRANCH  12  13
DOCKED: ENDBRANCH   7  12
DOCKED: ENDBRANCH   1   2
DOCKED: BRANCH   1  19
DOCKED: ATOM     19  O   UNL     1      27.391 -15.895  -2.390 -0.33 -0.00    +0.000 OA
DOCKED: BRANCH  19  21
DOCKED: ATOM     20  O   UNL     1      25.379 -15.123  -1.566 -0.42 -0.00    +0.000 OA
DOCKED: ATOM     21  C   UNL     1      26.130 -16.103  -1.827 -0.50 -0.00    +0.000 C 
DOCKED: ATOM     22  N   UNL     1      25.720 -17.442  -1.513 -0.54 -0.00    +0.000 N 
DOCKED: ATOM     23  H   UNL     1      26.393 -18.156  -1.583 -0.04 -0.00    +0.000 HD
DOCKED: BRANCH  22  24
DOCKED: ATOM     24  C   UNL     1      24.392 -17.808  -1.102 -0.67 -0.00    +0.000 A 
DOCKED: ATOM     25  C   UNL     1      24.025 -19.160  -1.086 -0.47 -0.00    +0.000 A 
DOCKED: ATOM     26  C   UNL     1      22.734 -19.541  -0.712 -0.48 -0.00    +0.000 A 
DOCKED: ATOM     27  C   UNL     1      21.778 -18.576  -0.354 -0.75 -0.00    +0.000 A 
DOCKED: ATOM     28  C   UNL     1      22.136 -17.216  -0.405 -0.63 -0.00    +0.000 A 
DOCKED: ATOM     29  C   UNL     1      23.429 -16.836  -0.779 -0.48 -0.00    +0.000 A 
DOCKED: BRANCH  27  30
DOCKED: ATOM     30  C   UNL     1      20.410 -18.995   0.037 -0.56 -0.00    +0.000 C 
DOCKED: ATOM     31  N   UNL     1      20.173 -19.754   1.230 -0.69 -0.00    +0.000 N 
DOCKED: ATOM     32  O   UNL     1      19.433 -18.692  -0.700 -1.34 -0.00    +0.000 OA
DOCKED: ATOM     33  H   UNL     1      20.934 -20.070   1.768 -0.55 -0.00    +0.000 HD
DOCKED: BRANCH  31  34
DOCKED: ATOM     34  O   UNL     1      18.907 -20.037   1.618 -0.74 -0.00    +0.000 OA
DOCKED: ATOM     35  H   UNL     1      18.281 -19.681   0.967 -0.04 -0.00    +0.000 HD
DOCKED: ENDBRANCH  31  34
DOCKED: ENDBRANCH  27  30
DOCKED: ENDBRANCH  22  24
DOCKED: ENDBRANCH  19  21
DOCKED: ENDBRANCH   1  19
DOCKED: TORSDOF 10
DOCKED: TER
DOCKED: ENDMDL
________________________________________________________________________________


	BEGINNING GENETIC ALGORITHM DOCKING 92 of 100
Run: 92 Seed: 523374494 1032109938 [ Run 92 of 100 GA/GALS ]
Beginning LAMARCKIAN GENETIC ALGORITHM (LGA), with a maximum of 2500000 energy evaluations.

Final-Value: -15.424


	FINAL GENETIC ALGORITHM DOCKED STATE
	_______________________________________________


Detailed state:  trans 28.905 -15.886 -1.397 quatxyzw -0.260651 0.468104 -0.472531 -0.699753 center 1.857 0.216 -0.019 ntor 10 153.4257 -130.5638 9.0985 -42.4714 178.7770 121.4296 -85.1992 109.2523 -19.6087 141.5660
State:	 28.905 -15.886  -1.397  -0.365  0.655 -0.661 -91.186    153.43 -130.56    9.10  -42.47  178.78  121.43  -85.20  109.25  -19.61  141.57

DOCKED: MODEL       92
DOCKED: USER    Run = 92
DOCKED: USER    DPF = ligand_dock.biased.dpf
DOCKED: USER  
DOCKED: USER    Estimated Free Energy of Binding    =  -10.24 kcal/mol  [=(1)+(2)+(3)-(4)]
DOCKED: USER    Estimated Inhibition Constant, Ki   =   31.26 nM (nanomolar)  [Temperature = 298.15 K]
DOCKED: USER    
DOCKED: USER    (1) Final Intermolecular Energy     =  -13.22 kcal/mol
DOCKED: USER        vdW + Hbond + desolv Energy     =  -13.22 kcal/mol
DOCKED: USER        Electrostatic Energy            =   +0.00 kcal/mol
DOCKED: USER    (2) Final Total Internal Energy     =   -2.20 kcal/mol
DOCKED: USER    (3) Torsional Free Energy           =   +2.98 kcal/mol
DOCKED: USER    (4) Unbound System's Energy  [=(2)] =   -2.20 kcal/mol
DOCKED: USER    
DOCKED: USER    
DOCKED: USER    NEWDPF move ligand.pdbqt
DOCKED: USER    NEWDPF about 1.857000 0.216000 -0.019000
DOCKED: USER    NEWDPF tran0 28.905032 -15.885539 -1.396508
DOCKED: USER    NEWDPF quaternion0 -0.260651 0.468104 -0.472531 -0.699753
DOCKED: USER    NEWDPF axisangle0 -0.364861 0.655255 -0.661451 -91.185583
DOCKED: USER    NEWDPF quat0 -0.364861 0.655255 -0.661451 -91.185583
DOCKED: USER    NEWDPF dihe0 153.43 -130.56 9.10 -42.47 178.78 121.43 -85.20 109.25 -19.61 141.57 
DOCKED: USER  keepresnum = 1 
DOCKED: USER  
DOCKED: REMARK  Name = 
DOCKED: REMARK  12 active torsions:
DOCKED: REMARK  status: ('A' for Active; 'I' for Inactive)
DOCKED: REMARK    1  A    between atoms: C_2  and  O_3
DOCKED: REMARK    2  A    between atoms: O_3  and  C_4
DOCKED: REMARK    3  A    between atoms: C_4  and  C_5
DOCKED: REMARK    4  A    between atoms: C_10  and  C_11
DOCKED: REMARK    5  A    between atoms: C_11  and  N_12
DOCKED: REMARK    6  A    between atoms: N_12  and  C_13
DOCKED: REMARK    7  A    between atoms: N_12  and  C_15
DOCKED: REMARK    8  A    between atoms: C_13  and  C_14
DOCKED: REMARK    9  A    between atoms: C_15  and  C_16
DOCKED: REMARK   10  A    between atoms: N_21  and  C_22
DOCKED: REMARK   11  A    between atoms: C_25  and  C_26
DOCKED: REMARK   12  A    between atoms: N_27  and  O_28
DOCKED: REMARK                            x       y       z     vdW  Elec       q    Type
DOCKED: REMARK                         _______ _______ _______ _____ _____    ______ ____
DOCKED: USER                              x       y       z     vdW  Elec       q    Type
DOCKED: USER                           _______ _______ _______ _____ _____    ______ ____
DOCKED: ROOT
DOCKED: ATOM      1  C   UNL     1      29.973 -16.132  -0.163 -0.16 -0.00    +0.000 C 
DOCKED: ENDROOT
DOCKED: BRANCH   1   2
DOCKED: ATOM      2  C   UNL     1      29.294 -14.867   0.276 -0.15 -0.00    +0.000 A 
DOCKED: ATOM      3  C   UNL     1      28.040 -14.920   0.903 -0.20 -0.00    +0.000 A 
DOCKED: ATOM      4  C   UNL     1      27.387 -13.742   1.280 -0.26 -0.00    +0.000 A 
DOCKED: ATOM      5  C   UNL     1      27.974 -12.496   1.021 -0.15 -0.00    +0.000 A 
DOCKED: ATOM      6  C   UNL     1      27.325 -11.309   1.394 -0.21 +0.00    +0.000 A 
DOCKED: ATOM      7  C   UNL     1      27.916 -10.063   1.128 -0.12 +0.00    +0.000 A 
DOCKED: ATOM      8  C   UNL     1      29.162 -10.011   0.486 -0.03 -0.00    +0.000 A 
DOCKED: ATOM      9  C   UNL     1      29.815 -11.187   0.109 -0.02 -0.00    +0.000 A 
DOCKED: ATOM     10  C   UNL     1      29.231 -12.435   0.372 -0.05 -0.00    +0.000 A 
DOCKED: ATOM     11  C   UNL     1      29.879 -13.621  -0.000 -0.06 -0.00    +0.000 A 
DOCKED: BRANCH   7  12
DOCKED: ATOM     12  C   UNL     1      27.233  -8.786   1.544 -0.11 +0.00    +0.000 C 
DOCKED: BRANCH  12  13
DOCKED: ATOM     13  N   UNL     1      27.115  -7.872   0.387 -0.14 +0.00    +0.000 N 
DOCKED: ATOM     14  H   UNL     1      27.635  -8.278  -0.391 +0.00 +0.00    +0.000 HD
DOCKED: BRANCH  13  15
DOCKED: ATOM     15  C   UNL     1      27.762  -6.567   0.661 -0.07 +0.00    +0.000 C 
DOCKED: ATOM     16  C   UNL     1      27.496  -6.088   2.088 -0.11 +0.00    +0.000 C 
DOCKED: ENDBRANCH  13  15
DOCKED: BRANCH  13  17
DOCKED: ATOM     17  C   UNL     1      25.717  -7.768  -0.101 -0.26 +0.00    +0.000 C 
DOCKED: ATOM     18  C   UNL     1      25.141  -9.080  -0.651 -0.24 +0.00    +0.000 C 
DOCKED: ENDBRANCH  13  17
DOCKED: ENDBRANCH  12  13
DOCKED: ENDBRANCH   7  12
DOCKED: ENDBRANCH   1   2
DOCKED: BRANCH   1  19
DOCKED: ATOM     19  O   UNL     1      29.275 -16.676  -1.278 -0.26 -0.00    +0.000 OA
DOCKED: BRANCH  19  21
DOCKED: ATOM     20  O   UNL     1      27.322 -15.879  -2.213 -0.33 -0.00    +0.000 OA
DOCKED: ATOM     21  C   UNL     1      27.882 -16.647  -1.383 -0.38 -0.00    +0.000 C 
DOCKED: ATOM     22  N   UNL     1      27.101 -17.471  -0.507 -0.49 -0.00    +0.000 N 
DOCKED: ATOM     23  H   UNL     1      27.567 -17.931   0.228 -0.35 -0.00    +0.000 HD
DOCKED: BRANCH  22  24
DOCKED: ATOM     24  C   UNL     1      25.682 -17.669  -0.631 -0.59 -0.00    +0.000 A 
DOCKED: ATOM     25  C   UNL     1      25.171 -18.972  -0.679 -0.18 -0.00    +0.000 A 
DOCKED: ATOM     26  C   UNL     1      23.799 -19.193  -0.822 -0.52 -0.00    +0.000 A 
DOCKED: ATOM     27  C   UNL     1      22.907 -18.112  -0.926 -0.73 -0.00    +0.000 A 
DOCKED: ATOM     28  C   UNL     1      23.425 -16.804  -0.914 -0.45 -0.00    +0.000 A 
DOCKED: ATOM     29  C   UNL     1      24.799 -16.585  -0.771 -0.48 -0.00    +0.000 A 
DOCKED: BRANCH  27  30
DOCKED: ATOM     30  C   UNL     1      21.453 -18.361  -1.081 -0.73 -0.00    +0.000 C 
DOCKED: ATOM     31  N   UNL     1      20.960 -19.594  -1.620 -0.74 -0.00    +0.000 N 
DOCKED: ATOM     32  O   UNL     1      20.630 -17.467  -0.745 -2.05 +0.00    +0.000 OA
DOCKED: ATOM     33  H   UNL     1      21.592 -20.265  -1.966 -0.48 -0.00    +0.000 HD
DOCKED: BRANCH  31  34
DOCKED: ATOM     34  O   UNL     1      19.629 -19.839  -1.657 -1.62 -0.00    +0.000 OA
DOCKED: ATOM     35  H   UNL     1      19.144 -19.032  -1.417 -0.52 -0.00    +0.000 HD
DOCKED: ENDBRANCH  31  34
DOCKED: ENDBRANCH  27  30
DOCKED: ENDBRANCH  22  24
DOCKED: ENDBRANCH  19  21
DOCKED: ENDBRANCH   1  19
DOCKED: TORSDOF 10
DOCKED: TER
DOCKED: ENDMDL
________________________________________________________________________________


	BEGINNING GENETIC ALGORITHM DOCKING 93 of 100
Run: 93 Seed: 2034717219 1288546627 [ Run 93 of 100 GA/GALS ]
Beginning LAMARCKIAN GENETIC ALGORITHM (LGA), with a maximum of 2500000 energy evaluations.

Final-Value: -15.845


	FINAL GENETIC ALGORITHM DOCKED STATE
	_______________________________________________


Detailed state:  trans 27.083 -15.799 -1.820 quatxyzw 0.752964 -0.557891 0.306731 -0.166490 center 1.857 0.216 -0.019 ntor 10 180.0000 122.3372 3.7853 -152.4760 -97.2275 -14.0247 81.4402 111.2667 17.8974 -72.2612
State:	 27.083 -15.799  -1.820   0.764 -0.566  0.311 -160.832    180.00  122.34    3.79 -152.48  -97.23  -14.02   81.44  111.27   17.90  -72.26

DOCKED: MODEL       93
DOCKED: USER    Run = 93
DOCKED: USER    DPF = ligand_dock.biased.dpf
DOCKED: USER  
DOCKED: USER    Estimated Free Energy of Binding    =  -10.71 kcal/mol  [=(1)+(2)+(3)-(4)]
DOCKED: USER    Estimated Inhibition Constant, Ki   =   14.15 nM (nanomolar)  [Temperature = 298.15 K]
DOCKED: USER    
DOCKED: USER    (1) Final Intermolecular Energy     =  -13.69 kcal/mol
DOCKED: USER        vdW + Hbond + desolv Energy     =  -13.69 kcal/mol
DOCKED: USER        Electrostatic Energy            =   +0.00 kcal/mol
DOCKED: USER    (2) Final Total Internal Energy     =   -2.15 kcal/mol
DOCKED: USER    (3) Torsional Free Energy           =   +2.98 kcal/mol
DOCKED: USER    (4) Unbound System's Energy  [=(2)] =   -2.15 kcal/mol
DOCKED: USER    
DOCKED: USER    
DOCKED: USER    NEWDPF move ligand.pdbqt
DOCKED: USER    NEWDPF about 1.857000 0.216000 -0.019000
DOCKED: USER    NEWDPF tran0 27.082929 -15.799457 -1.819544
DOCKED: USER    NEWDPF quaternion0 0.752964 -0.557891 0.306731 -0.166490
DOCKED: USER    NEWDPF axisangle0 0.763622 -0.565788 0.311073 -160.832341
DOCKED: USER    NEWDPF quat0 0.763622 -0.565788 0.311073 -160.832341
DOCKED: USER    NEWDPF dihe0 180.00 122.34 3.79 -152.48 -97.23 -14.02 81.44 111.27 17.90 -72.26 
DOCKED: USER  keepresnum = 1 
DOCKED: USER  
DOCKED: REMARK  Name = 
DOCKED: REMARK  12 active torsions:
DOCKED: REMARK  status: ('A' for Active; 'I' for Inactive)
DOCKED: REMARK    1  A    between atoms: C_2  and  O_3
DOCKED: REMARK    2  A    between atoms: O_3  and  C_4
DOCKED: REMARK    3  A    between atoms: C_4  and  C_5
DOCKED: REMARK    4  A    between atoms: C_10  and  C_11
DOCKED: REMARK    5  A    between atoms: C_11  and  N_12
DOCKED: REMARK    6  A    between atoms: N_12  and  C_13
DOCKED: REMARK    7  A    between atoms: N_12  and  C_15
DOCKED: REMARK    8  A    between atoms: C_13  and  C_14
DOCKED: REMARK    9  A    between atoms: C_15  and  C_16
DOCKED: REMARK   10  A    between atoms: N_21  and  C_22
DOCKED: REMARK   11  A    between atoms: C_25  and  C_26
DOCKED: REMARK   12  A    between atoms: N_27  and  O_28
DOCKED: REMARK                            x       y       z     vdW  Elec       q    Type
DOCKED: REMARK                         _______ _______ _______ _____ _____    ______ ____
DOCKED: USER                              x       y       z     vdW  Elec       q    Type
DOCKED: USER                           _______ _______ _______ _____ _____    ______ ____
DOCKED: ROOT
DOCKED: ATOM      1  C   UNL     1      28.084 -16.366  -3.002 -0.23 -0.00    +0.000 C 
DOCKED: ENDROOT
DOCKED: BRANCH   1   2
DOCKED: ATOM      2  C   UNL     1      27.777 -14.985  -3.505 -0.26 -0.00    +0.000 A 
DOCKED: ATOM      3  C   UNL     1      28.808 -14.048  -3.667 -0.12 -0.00    +0.000 A 
DOCKED: ATOM      4  C   UNL     1      28.522 -12.749  -4.099 -0.10 -0.00    +0.000 A 
DOCKED: ATOM      5  C   UNL     1      27.199 -12.368  -4.362 -0.19 -0.00    +0.000 A 
DOCKED: ATOM      6  C   UNL     1      26.903 -11.066  -4.795 -0.16 -0.00    +0.000 A 
DOCKED: ATOM      7  C   UNL     1      25.575 -10.689  -5.052 -0.29 -0.00    +0.000 A 
DOCKED: ATOM      8  C   UNL     1      24.543 -11.623  -4.875 -0.28 -0.00    +0.000 A 
DOCKED: ATOM      9  C   UNL     1      24.828 -12.921  -4.443 -0.15 -0.00    +0.000 A 
DOCKED: ATOM     10  C   UNL     1      26.152 -13.304  -4.184 -0.35 -0.00    +0.000 A 
DOCKED: ATOM     11  C   UNL     1      26.449 -14.605  -3.752 -0.41 -0.00    +0.000 A 
DOCKED: BRANCH   7  12
DOCKED: ATOM     12  C   UNL     1      25.253  -9.299  -5.536 -0.25 -0.00    +0.000 C 
DOCKED: BRANCH  12  13
DOCKED: ATOM     13  N   UNL     1      25.102  -9.296  -7.008 -0.21 -0.00    +0.000 N 
DOCKED: ATOM     14  H   UNL     1      25.827  -8.693  -7.399 +0.01 -0.00    +0.000 HD
DOCKED: BRANCH  13  15
DOCKED: ATOM     15  C   UNL     1      23.814  -8.688  -7.418 -0.33 -0.00    +0.000 C 
DOCKED: ATOM     16  C   UNL     1      22.853  -8.539  -6.238 -0.43 -0.00    +0.000 C 
DOCKED: ENDBRANCH  13  15
DOCKED: BRANCH  13  17
DOCKED: ATOM     17  C   UNL     1      25.359 -10.633  -7.598 -0.28 -0.00    +0.000 C 
DOCKED: ATOM     18  C   UNL     1      25.433 -10.643  -9.131 -0.32 -0.00    +0.000 C 
DOCKED: ENDBRANCH  13  17
DOCKED: ENDBRANCH  12  13
DOCKED: ENDBRANCH   7  12
DOCKED: ENDBRANCH   1   2
DOCKED: BRANCH   1  19
DOCKED: ATOM     19  O   UNL     1      27.596 -16.500  -1.671 -0.37 -0.00    +0.000 OA
DOCKED: BRANCH  19  21
DOCKED: ATOM     20  O   UNL     1      26.609 -18.348  -0.706 -0.64 -0.00    +0.000 OA
DOCKED: ATOM     21  C   UNL     1      26.477 -17.274  -1.354 -0.51 -0.00    +0.000 C 
DOCKED: ATOM     22  N   UNL     1      25.185 -16.851  -1.811 -0.56 -0.00    +0.000 N 
DOCKED: ATOM     23  H   UNL     1      25.146 -16.099  -2.445 -0.03 -0.00    +0.000 HD
DOCKED: BRANCH  22  24
DOCKED: ATOM     24  C   UNL     1      23.944 -17.452  -1.405 -0.63 -0.00    +0.000 A 
DOCKED: ATOM     25  C   UNL     1      23.665 -18.773  -1.778 -0.50 -0.00    +0.000 A 
DOCKED: ATOM     26  C   UNL     1      22.457 -19.375  -1.416 -0.48 -0.00    +0.000 A 
DOCKED: ATOM     27  C   UNL     1      21.497 -18.663  -0.677 -0.77 -0.00    +0.000 A 
DOCKED: ATOM     28  C   UNL     1      21.762 -17.324  -0.334 -0.47 -0.00    +0.000 A 
DOCKED: ATOM     29  C   UNL     1      22.972 -16.725  -0.697 -0.35 -0.00    +0.000 A 
DOCKED: BRANCH  27  30
DOCKED: ATOM     30  C   UNL     1      20.217 -19.313  -0.302 -0.86 -0.00    +0.000 C 
DOCKED: ATOM     31  N   UNL     1      20.189 -20.494   0.508 -0.69 -0.00    +0.000 N 
DOCKED: ATOM     32  O   UNL     1      19.129 -18.827  -0.716 -1.10 -0.00    +0.000 OA
DOCKED: ATOM     33  H   UNL     1      21.032 -20.933   0.765 -0.59 -0.00    +0.000 HD
DOCKED: BRANCH  31  34
DOCKED: ATOM     34  O   UNL     1      19.007 -21.010   0.921 -0.75 -0.00    +0.000 OA
DOCKED: ATOM     35  H   UNL     1      18.277 -20.499   0.535 -0.03 -0.00    +0.000 HD
DOCKED: ENDBRANCH  31  34
DOCKED: ENDBRANCH  27  30
DOCKED: ENDBRANCH  22  24
DOCKED: ENDBRANCH  19  21
DOCKED: ENDBRANCH   1  19
DOCKED: TORSDOF 10
DOCKED: TER
DOCKED: ENDMDL
________________________________________________________________________________


	BEGINNING GENETIC ALGORITHM DOCKING 94 of 100
Run: 94 Seed: 385829388 1403717941 [ Run 94 of 100 GA/GALS ]
Beginning LAMARCKIAN GENETIC ALGORITHM (LGA), with a maximum of 2500000 energy evaluations.

Final-Value: -16.275


	FINAL GENETIC ALGORITHM DOCKED STATE
	_______________________________________________


Detailed state:  trans 28.615 -15.859 -0.564 quatxyzw -0.855384 0.220854 -0.462049 0.077794 center 1.857 0.216 -0.019 ntor 10 -31.3602 -30.7163 2.4298 31.4532 -51.1846 179.6598 -114.6890 -134.3655 152.0656 -144.8660
State:	 28.615 -15.859  -0.564  -0.858  0.222 -0.463 171.076    -31.36  -30.72    2.43   31.45  -51.18  179.66 -114.69 -134.37  152.07 -144.87

DOCKED: MODEL       94
DOCKED: USER    Run = 94
DOCKED: USER    DPF = ligand_dock.biased.dpf
DOCKED: USER  
DOCKED: USER    Estimated Free Energy of Binding    =  -10.47 kcal/mol  [=(1)+(2)+(3)-(4)]
DOCKED: USER    Estimated Inhibition Constant, Ki   =   21.13 nM (nanomolar)  [Temperature = 298.15 K]
DOCKED: USER    
DOCKED: USER    (1) Final Intermolecular Energy     =  -13.45 kcal/mol
DOCKED: USER        vdW + Hbond + desolv Energy     =  -13.45 kcal/mol
DOCKED: USER        Electrostatic Energy            =   +0.00 kcal/mol
DOCKED: USER    (2) Final Total Internal Energy     =   -2.82 kcal/mol
DOCKED: USER    (3) Torsional Free Energy           =   +2.98 kcal/mol
DOCKED: USER    (4) Unbound System's Energy  [=(2)] =   -2.82 kcal/mol
DOCKED: USER    
DOCKED: USER    
DOCKED: USER    NEWDPF move ligand.pdbqt
DOCKED: USER    NEWDPF about 1.857000 0.216000 -0.019000
DOCKED: USER    NEWDPF tran0 28.614822 -15.859232 -0.563996
DOCKED: USER    NEWDPF quaternion0 -0.855384 0.220854 -0.462049 0.077794
DOCKED: USER    NEWDPF axisangle0 -0.857984 0.221526 -0.463454 171.076473
DOCKED: USER    NEWDPF quat0 -0.857984 0.221526 -0.463454 171.076473
DOCKED: USER    NEWDPF dihe0 -31.36 -30.72 2.43 31.45 -51.18 179.66 -114.69 -134.37 152.07 -144.87 
DOCKED: USER  keepresnum = 1 
DOCKED: USER  
DOCKED: REMARK  Name = 
DOCKED: REMARK  12 active torsions:
DOCKED: REMARK  status: ('A' for Active; 'I' for Inactive)
DOCKED: REMARK    1  A    between atoms: C_2  and  O_3
DOCKED: REMARK    2  A    between atoms: O_3  and  C_4
DOCKED: REMARK    3  A    between atoms: C_4  and  C_5
DOCKED: REMARK    4  A    between atoms: C_10  and  C_11
DOCKED: REMARK    5  A    between atoms: C_11  and  N_12
DOCKED: REMARK    6  A    between atoms: N_12  and  C_13
DOCKED: REMARK    7  A    between atoms: N_12  and  C_15
DOCKED: REMARK    8  A    between atoms: C_13  and  C_14
DOCKED: REMARK    9  A    between atoms: C_15  and  C_16
DOCKED: REMARK   10  A    between atoms: N_21  and  C_22
DOCKED: REMARK   11  A    between atoms: C_25  and  C_26
DOCKED: REMARK   12  A    between atoms: N_27  and  O_28
DOCKED: REMARK                            x       y       z     vdW  Elec       q    Type
DOCKED: REMARK                         _______ _______ _______ _____ _____    ______ ____
DOCKED: USER                              x       y       z     vdW  Elec       q    Type
DOCKED: USER                           _______ _______ _______ _____ _____    ______ ____
DOCKED: ROOT
DOCKED: ATOM      1  C   UNL     1      29.973 -15.738  -1.493 -0.13 -0.00    +0.000 C 
DOCKED: ENDROOT
DOCKED: BRANCH   1   2
DOCKED: ATOM      2  C   UNL     1      28.959 -15.035  -2.349 -0.13 -0.00    +0.000 A 
DOCKED: ATOM      3  C   UNL     1      28.480 -15.644  -3.519 -0.24 -0.00    +0.000 A 
DOCKED: ATOM      4  C   UNL     1      27.565 -14.978  -4.340 -0.35 -0.00    +0.000 A 
DOCKED: ATOM      5  C   UNL     1      27.127 -13.688  -4.008 -0.27 -0.00    +0.000 A 
DOCKED: ATOM      6  C   UNL     1      26.209 -13.012  -4.826 -0.21 -0.00    +0.000 A 
DOCKED: ATOM      7  C   UNL     1      25.778 -11.718  -4.491 -0.29 -0.00    +0.000 A 
DOCKED: ATOM      8  C   UNL     1      26.270 -11.104  -3.329 +0.08 -0.00    +0.000 A 
DOCKED: ATOM      9  C   UNL     1      27.185 -11.769  -2.509 -0.09 -0.00    +0.000 A 
DOCKED: ATOM     10  C   UNL     1      27.620 -13.061  -2.838 -0.14 -0.00    +0.000 A 
DOCKED: ATOM     11  C   UNL     1      28.537 -13.738  -2.020 -0.09 -0.00    +0.000 A 
DOCKED: BRANCH   7  12
DOCKED: ATOM     12  C   UNL     1      24.778 -10.995  -5.354 -0.43 -0.00    +0.000 C 
DOCKED: BRANCH  12  13
DOCKED: ATOM     13  N   UNL     1      25.391 -10.640  -6.653 -0.29 -0.00    +0.000 N 
DOCKED: ATOM     14  H   UNL     1      25.583 -11.505  -7.159 -0.00 -0.00    +0.000 HD
DOCKED: BRANCH  13  15
DOCKED: ATOM     15  C   UNL     1      26.707  -9.985  -6.468 -0.14 -0.00    +0.000 C 
DOCKED: ATOM     16  C   UNL     1      27.762 -10.545  -7.423 -0.13 -0.00    +0.000 C 
DOCKED: ENDBRANCH  13  15
DOCKED: BRANCH  13  17
DOCKED: ATOM     17  C   UNL     1      24.454  -9.888  -7.525 -0.38 -0.00    +0.000 C 
DOCKED: ATOM     18  C   UNL     1      23.530  -8.921  -6.773 -0.42 -0.00    +0.000 C 
DOCKED: ENDBRANCH  13  17
DOCKED: ENDBRANCH  12  13
DOCKED: ENDBRANCH   7  12
DOCKED: ENDBRANCH   1   2
DOCKED: BRANCH   1  19
DOCKED: ATOM     19  O   UNL     1      29.411 -15.985  -0.209 -0.23 -0.00    +0.000 OA
DOCKED: BRANCH  19  21
DOCKED: ATOM     20  O   UNL     1      27.401 -15.746   0.897 -0.34 -0.00    +0.000 OA
DOCKED: ATOM     21  C   UNL     1      28.062 -16.299  -0.024 -0.27 -0.00    +0.000 C 
DOCKED: ATOM     22  N   UNL     1      27.455 -17.287  -0.868 -0.44 -0.00    +0.000 N 
DOCKED: ATOM     23  H   UNL     1      28.042 -17.806  -1.463 -0.04 -0.00    +0.000 HD
DOCKED: BRANCH  22  24
DOCKED: ATOM     24  C   UNL     1      26.045 -17.569  -0.901 -0.54 -0.00    +0.000 A 
DOCKED: ATOM     25  C   UNL     1      25.251 -16.988  -1.899 -0.55 -0.00    +0.000 A 
DOCKED: ATOM     26  C   UNL     1      23.875 -17.227  -1.941 +0.01 -0.00    +0.000 A 
DOCKED: ATOM     27  C   UNL     1      23.262 -18.049  -0.980 -0.72 -0.00    +0.000 A 
DOCKED: ATOM     28  C   UNL     1      24.054 -18.602   0.043 -0.46 -0.00    +0.000 A 
DOCKED: ATOM     29  C   UNL     1      25.431 -18.362   0.083 -0.51 -0.00    +0.000 A 
DOCKED: BRANCH  27  30
DOCKED: ATOM     30  C   UNL     1      21.800 -18.291  -1.035 -0.76 -0.00    +0.000 C 
DOCKED: ATOM     31  N   UNL     1      21.267 -19.548  -1.470 -0.71 -0.00    +0.000 N 
DOCKED: ATOM     32  O   UNL     1      21.004 -17.369  -0.707 -1.99 -0.00    +0.000 OA
DOCKED: ATOM     33  H   UNL     1      21.872 -20.246  -1.810 -0.45 -0.00    +0.000 HD
DOCKED: BRANCH  31  34
DOCKED: ATOM     34  O   UNL     1      19.934 -19.780  -1.415 -1.65 -0.00    +0.000 OA
DOCKED: ATOM     35  H   UNL     1      19.479 -18.984  -1.094 -0.17 -0.00    +0.000 HD
DOCKED: ENDBRANCH  31  34
DOCKED: ENDBRANCH  27  30
DOCKED: ENDBRANCH  22  24
DOCKED: ENDBRANCH  19  21
DOCKED: ENDBRANCH   1  19
DOCKED: TORSDOF 10
DOCKED: TER
DOCKED: ENDMDL
________________________________________________________________________________


	BEGINNING GENETIC ALGORITHM DOCKING 95 of 100
Run: 95 Seed: 926342526 1333368268 [ Run 95 of 100 GA/GALS ]
Beginning LAMARCKIAN GENETIC ALGORITHM (LGA), with a maximum of 2500000 energy evaluations.

Final-Value: -17.456


	FINAL GENETIC ALGORITHM DOCKED STATE
	_______________________________________________


Detailed state:  trans 29.279 -16.529 -0.358 quatxyzw 0.562385 -0.659583 -0.212395 0.451178 center 1.857 0.216 -0.019 ntor 10 -16.2971 -18.3929 20.5104 -81.9508 120.6875 -96.7445 -54.4632 75.2595 0.5492 -96.0567
State:	 29.279 -16.529  -0.358   0.630 -0.739 -0.238 126.361    -16.30  -18.39   20.51  -81.95  120.69  -96.74  -54.46   75.26    0.55  -96.06

DOCKED: MODEL       95
DOCKED: USER    Run = 95
DOCKED: USER    DPF = ligand_dock.biased.dpf
DOCKED: USER  
DOCKED: USER    Estimated Free Energy of Binding    =  -12.40 kcal/mol  [=(1)+(2)+(3)-(4)]
DOCKED: USER    Estimated Inhibition Constant, Ki   =  820.54 pM (picomolar)  [Temperature = 298.15 K]
DOCKED: USER    
DOCKED: USER    (1) Final Intermolecular Energy     =  -15.38 kcal/mol
DOCKED: USER        vdW + Hbond + desolv Energy     =  -15.38 kcal/mol
DOCKED: USER        Electrostatic Energy            =   +0.00 kcal/mol
DOCKED: USER    (2) Final Total Internal Energy     =   -2.08 kcal/mol
DOCKED: USER    (3) Torsional Free Energy           =   +2.98 kcal/mol
DOCKED: USER    (4) Unbound System's Energy  [=(2)] =   -2.08 kcal/mol
DOCKED: USER    
DOCKED: USER    
DOCKED: USER    NEWDPF move ligand.pdbqt
DOCKED: USER    NEWDPF about 1.857000 0.216000 -0.019000
DOCKED: USER    NEWDPF tran0 29.278588 -16.529006 -0.358014
DOCKED: USER    NEWDPF quaternion0 0.562385 -0.659583 -0.212395 0.451178
DOCKED: USER    NEWDPF axisangle0 0.630170 -0.739083 -0.237995 126.361450
DOCKED: USER    NEWDPF quat0 0.630170 -0.739083 -0.237995 126.361450
DOCKED: USER    NEWDPF dihe0 -16.30 -18.39 20.51 -81.95 120.69 -96.74 -54.46 75.26 0.55 -96.06 
DOCKED: USER  keepresnum = 1 
DOCKED: USER  
DOCKED: REMARK  Name = 
DOCKED: REMARK  12 active torsions:
DOCKED: REMARK  status: ('A' for Active; 'I' for Inactive)
DOCKED: REMARK    1  A    between atoms: C_2  and  O_3
DOCKED: REMARK    2  A    between atoms: O_3  and  C_4
DOCKED: REMARK    3  A    between atoms: C_4  and  C_5
DOCKED: REMARK    4  A    between atoms: C_10  and  C_11
DOCKED: REMARK    5  A    between atoms: C_11  and  N_12
DOCKED: REMARK    6  A    between atoms: N_12  and  C_13
DOCKED: REMARK    7  A    between atoms: N_12  and  C_15
DOCKED: REMARK    8  A    between atoms: C_13  and  C_14
DOCKED: REMARK    9  A    between atoms: C_15  and  C_16
DOCKED: REMARK   10  A    between atoms: N_21  and  C_22
DOCKED: REMARK   11  A    between atoms: C_25  and  C_26
DOCKED: REMARK   12  A    between atoms: N_27  and  O_28
DOCKED: REMARK                            x       y       z     vdW  Elec       q    Type
DOCKED: REMARK                         _______ _______ _______ _____ _____    ______ ____
DOCKED: USER                              x       y       z     vdW  Elec       q    Type
DOCKED: USER                           _______ _______ _______ _____ _____    ______ ____
DOCKED: ROOT
DOCKED: ATOM      1  C   UNL     1      30.419 -15.436  -0.835 -0.11 -0.00    +0.000 C 
DOCKED: ENDROOT
DOCKED: BRANCH   1   2
DOCKED: ATOM      2  C   UNL     1      30.279 -15.106   0.623 -0.11 -0.00    +0.000 A 
DOCKED: ATOM      3  C   UNL     1      31.228 -15.571   1.546 -0.10 -0.00    +0.000 A 
DOCKED: ATOM      4  C   UNL     1      31.081 -15.298   2.909 -0.14 -0.00    +0.000 A 
DOCKED: ATOM      5  C   UNL     1      29.976 -14.569   3.369 -0.20 -0.00    +0.000 A 
DOCKED: ATOM      6  C   UNL     1      29.820 -14.292   4.736 -0.32 -0.00    +0.000 A 
DOCKED: ATOM      7  C   UNL     1      28.708 -13.565   5.190 -0.41 -0.00    +0.000 A 
DOCKED: ATOM      8  C   UNL     1      27.751 -13.115   4.268 -0.40 -0.00    +0.000 A 
DOCKED: ATOM      9  C   UNL     1      27.897 -13.388   2.906 -0.30 -0.00    +0.000 A 
DOCKED: ATOM     10  C   UNL     1      29.005 -14.113   2.445 -0.21 -0.00    +0.000 A 
DOCKED: ATOM     11  C   UNL     1      29.161 -14.389   1.079 -0.16 -0.00    +0.000 A 
DOCKED: BRANCH   7  12
DOCKED: ATOM     12  C   UNL     1      28.546 -13.248   6.654 -0.34 -0.00    +0.000 C 
DOCKED: BRANCH  12  13
DOCKED: ATOM     13  N   UNL     1      29.820 -13.480   7.369 -0.35 -0.00    +0.000 N 
DOCKED: ATOM     14  H   UNL     1      30.186 -14.386   7.076 -0.37 -0.00    +0.000 HD
DOCKED: BRANCH  13  15
DOCKED: ATOM     15  C   UNL     1      29.606 -13.590   8.831 -0.43 -0.00    +0.000 C 
DOCKED: ATOM     16  C   UNL     1      30.638 -14.504   9.491 -0.39 -0.00    +0.000 C 
DOCKED: ENDBRANCH  13  15
DOCKED: BRANCH  13  17
DOCKED: ATOM     17  C   UNL     1      30.865 -12.501   6.978 -0.22 -0.00    +0.000 C 
DOCKED: ATOM     18  C   UNL     1      30.399 -11.039   6.993 -0.16 -0.00    +0.000 C 
DOCKED: ENDBRANCH  13  17
DOCKED: ENDBRANCH  12  13
DOCKED: ENDBRANCH   7  12
DOCKED: ENDBRANCH   1   2
DOCKED: BRANCH   1  19
DOCKED: ATOM     19  O   UNL     1      29.718 -16.644  -1.112 -0.23 -0.00    +0.000 OA
DOCKED: BRANCH  19  21
DOCKED: ATOM     20  O   UNL     1      27.901 -16.276  -2.484 -0.33 -0.00    +0.000 OA
DOCKED: ATOM     21  C   UNL     1      28.347 -16.677  -1.375 -0.34 -0.00    +0.000 C 
DOCKED: ATOM     22  N   UNL     1      27.452 -17.133  -0.350 -0.43 -0.00    +0.000 N 
DOCKED: ATOM     23  H   UNL     1      27.824 -17.284   0.550 -0.31 -0.00    +0.000 HD
DOCKED: BRANCH  22  24
DOCKED: ATOM     24  C   UNL     1      26.051 -17.384  -0.549 -0.54 -0.00    +0.000 A 
DOCKED: ATOM     25  C   UNL     1      25.374 -18.239   0.330 -0.44 -0.00    +0.000 A 
DOCKED: ATOM     26  C   UNL     1      24.017 -18.518   0.147 -0.40 -0.00    +0.000 A 
DOCKED: ATOM     27  C   UNL     1      23.309 -17.952  -0.928 -0.71 -0.00    +0.000 A 
DOCKED: ATOM     28  C   UNL     1      23.999 -17.123  -1.831 -0.40 -0.00    +0.000 A 
DOCKED: ATOM     29  C   UNL     1      25.357 -16.844  -1.645 -0.54 -0.00    +0.000 A 
DOCKED: BRANCH  27  30
DOCKED: ATOM     30  C   UNL     1      21.870 -18.260  -1.113 -0.69 -0.00    +0.000 C 
DOCKED: ATOM     31  N   UNL     1      21.441 -19.466  -1.758 -0.58 -0.00    +0.000 N 
DOCKED: ATOM     32  O   UNL     1      21.002 -17.440  -0.707 -2.04 -0.00    +0.000 OA
DOCKED: ATOM     33  H   UNL     1      22.107 -20.072  -2.156 -0.55 -0.00    +0.000 HD
DOCKED: BRANCH  31  34
DOCKED: ATOM     34  O   UNL     1      20.124 -19.772  -1.825 -1.85 -0.00    +0.000 OA
DOCKED: ATOM     35  H   UNL     1      19.597 -18.968  -1.695 -0.26 -0.00    +0.000 HD
DOCKED: ENDBRANCH  31  34
DOCKED: ENDBRANCH  27  30
DOCKED: ENDBRANCH  22  24
DOCKED: ENDBRANCH  19  21
DOCKED: ENDBRANCH   1  19
DOCKED: TORSDOF 10
DOCKED: TER
DOCKED: ENDMDL
________________________________________________________________________________


	BEGINNING GENETIC ALGORITHM DOCKING 96 of 100
Run: 96 Seed: 1231131595 1004542888 [ Run 96 of 100 GA/GALS ]
Beginning LAMARCKIAN GENETIC ALGORITHM (LGA), with a maximum of 2500000 energy evaluations.

Final-Value: -15.386


	FINAL GENETIC ALGORITHM DOCKED STATE
	_______________________________________________


Detailed state:  trans 28.756 -15.187 -0.641 quatxyzw 0.738812 -0.459994 0.444969 -0.211104 center 1.857 0.216 -0.019 ntor 10 4.6268 180.0000 20.2078 -63.8337 133.7710 124.2021 36.8420 -154.6176 15.6247 -102.1679
State:	 28.756 -15.187  -0.641   0.756 -0.471  0.455 -155.626      4.63  180.00   20.21  -63.83  133.77  124.20   36.84 -154.62   15.62 -102.17

DOCKED: MODEL       96
DOCKED: USER    Run = 96
DOCKED: USER    DPF = ligand_dock.biased.dpf
DOCKED: USER  
DOCKED: USER    Estimated Free Energy of Binding    =   -9.97 kcal/mol  [=(1)+(2)+(3)-(4)]
DOCKED: USER    Estimated Inhibition Constant, Ki   =   49.01 nM (nanomolar)  [Temperature = 298.15 K]
DOCKED: USER    
DOCKED: USER    (1) Final Intermolecular Energy     =  -12.96 kcal/mol
DOCKED: USER        vdW + Hbond + desolv Energy     =  -12.96 kcal/mol
DOCKED: USER        Electrostatic Energy            =   +0.00 kcal/mol
DOCKED: USER    (2) Final Total Internal Energy     =   -2.43 kcal/mol
DOCKED: USER    (3) Torsional Free Energy           =   +2.98 kcal/mol
DOCKED: USER    (4) Unbound System's Energy  [=(2)] =   -2.43 kcal/mol
DOCKED: USER    
DOCKED: USER    
DOCKED: USER    NEWDPF move ligand.pdbqt
DOCKED: USER    NEWDPF about 1.857000 0.216000 -0.019000
DOCKED: USER    NEWDPF tran0 28.755519 -15.186575 -0.640773
DOCKED: USER    NEWDPF quaternion0 0.738812 -0.459994 0.444969 -0.211104
DOCKED: USER    NEWDPF axisangle0 0.755846 -0.470600 0.455228 -155.625868
DOCKED: USER    NEWDPF quat0 0.755846 -0.470600 0.455228 -155.625868
DOCKED: USER    NEWDPF dihe0 4.63 180.00 20.21 -63.83 133.77 124.20 36.84 -154.62 15.62 -102.17 
DOCKED: USER  keepresnum = 1 
DOCKED: USER  
DOCKED: REMARK  Name = 
DOCKED: REMARK  12 active torsions:
DOCKED: REMARK  status: ('A' for Active; 'I' for Inactive)
DOCKED: REMARK    1  A    between atoms: C_2  and  O_3
DOCKED: REMARK    2  A    between atoms: O_3  and  C_4
DOCKED: REMARK    3  A    between atoms: C_4  and  C_5
DOCKED: REMARK    4  A    between atoms: C_10  and  C_11
DOCKED: REMARK    5  A    between atoms: C_11  and  N_12
DOCKED: REMARK    6  A    between atoms: N_12  and  C_13
DOCKED: REMARK    7  A    between atoms: N_12  and  C_15
DOCKED: REMARK    8  A    between atoms: C_13  and  C_14
DOCKED: REMARK    9  A    between atoms: C_15  and  C_16
DOCKED: REMARK   10  A    between atoms: N_21  and  C_22
DOCKED: REMARK   11  A    between atoms: C_25  and  C_26
DOCKED: REMARK   12  A    between atoms: N_27  and  O_28
DOCKED: REMARK                            x       y       z     vdW  Elec       q    Type
DOCKED: REMARK                         _______ _______ _______ _____ _____    ______ ____
DOCKED: USER                              x       y       z     vdW  Elec       q    Type
DOCKED: USER                           _______ _______ _______ _____ _____    ______ ____
DOCKED: ROOT
DOCKED: ATOM      1  C   UNL     1      29.992 -15.877  -1.488 -0.14 -0.00    +0.000 C 
DOCKED: ENDROOT
DOCKED: BRANCH   1   2
DOCKED: ATOM      2  C   UNL     1      29.590 -14.757  -2.403 -0.08 -0.00    +0.000 A 
DOCKED: ATOM      3  C   UNL     1      30.488 -13.714  -2.678 -0.02 -0.00    +0.000 A 
DOCKED: ATOM      4  C   UNL     1      30.106 -12.650  -3.499 -0.03 -0.00    +0.000 A 
DOCKED: ATOM      5  C   UNL     1      28.816 -12.607  -4.045 -0.08 -0.00    +0.000 A 
DOCKED: ATOM      6  C   UNL     1      28.423 -11.541  -4.870 -0.08 -0.00    +0.000 A 
DOCKED: ATOM      7  C   UNL     1      27.127 -11.501  -5.409 -0.17 -0.00    +0.000 A 
DOCKED: ATOM      8  C   UNL     1      26.225 -12.537  -5.120 -0.09 -0.00    +0.000 A 
DOCKED: ATOM      9  C   UNL     1      26.606 -13.601  -4.299 -0.33 -0.00    +0.000 A 
DOCKED: ATOM     10  C   UNL     1      27.899 -13.646  -3.757 -0.17 -0.00    +0.000 A 
DOCKED: ATOM     11  C   UNL     1      28.292 -14.711  -2.934 -0.16 -0.00    +0.000 A 
DOCKED: BRANCH   7  12
DOCKED: ATOM     12  C   UNL     1      26.707 -10.370  -6.311 -0.17 -0.00    +0.000 C 
DOCKED: BRANCH  12  13
DOCKED: ATOM     13  N   UNL     1      25.492  -9.718  -5.776 -0.21 -0.00    +0.000 N 
DOCKED: ATOM     14  H   UNL     1      24.964 -10.415  -5.251 -0.02 -0.00    +0.000 HD
DOCKED: BRANCH  13  15
DOCKED: ATOM     15  C   UNL     1      24.592  -9.274  -6.867 -0.32 -0.00    +0.000 C 
DOCKED: ATOM     16  C   UNL     1      23.239  -8.804  -6.333 -0.44 -0.00    +0.000 C 
DOCKED: ENDBRANCH  13  15
DOCKED: BRANCH  13  17
DOCKED: ATOM     17  C   UNL     1      25.816  -8.660  -4.787 -0.17 -0.00    +0.000 C 
DOCKED: ATOM     18  C   UNL     1      25.366  -8.976  -3.354 -0.23 -0.00    +0.000 C 
DOCKED: ENDBRANCH  13  17
DOCKED: ENDBRANCH  12  13
DOCKED: ENDBRANCH   7  12
DOCKED: ENDBRANCH   1   2
DOCKED: BRANCH   1  19
DOCKED: ATOM     19  O   UNL     1      29.325 -15.725  -0.239 -0.21 -0.00    +0.000 OA
DOCKED: BRANCH  19  21
DOCKED: ATOM     20  O   UNL     1      27.309 -15.532   0.865 -0.34 -0.00    +0.000 OA
DOCKED: ATOM     21  C   UNL     1      27.986 -16.074  -0.051 -0.30 -0.00    +0.000 C 
DOCKED: ATOM     22  N   UNL     1      27.407 -17.086  -0.887 -0.43 -0.00    +0.000 N 
DOCKED: ATOM     23  H   UNL     1      28.009 -17.593  -1.478 -0.04 -0.00    +0.000 HD
DOCKED: BRANCH  22  24
DOCKED: ATOM     24  C   UNL     1      26.006 -17.408  -0.918 -0.54 -0.00    +0.000 A 
DOCKED: ATOM     25  C   UNL     1      25.571 -18.637  -0.407 -0.49 -0.00    +0.000 A 
DOCKED: ATOM     26  C   UNL     1      24.218 -18.985  -0.445 -0.35 -0.00    +0.000 A 
DOCKED: ATOM     27  C   UNL     1      23.270 -18.110  -1.005 -0.72 -0.00    +0.000 A 
DOCKED: ATOM     28  C   UNL     1      23.713 -16.891  -1.551 -0.30 -0.00    +0.000 A 
DOCKED: ATOM     29  C   UNL     1      25.067 -16.545  -1.511 -0.54 -0.00    +0.000 A 
DOCKED: BRANCH  27  30
DOCKED: ATOM     30  C   UNL     1      21.838 -18.494  -1.042 -0.80 -0.00    +0.000 C 
DOCKED: ATOM     31  N   UNL     1      21.370 -19.554  -1.884 -0.45 -0.00    +0.000 N 
DOCKED: ATOM     32  O   UNL     1      21.008 -17.866  -0.329 -1.93 +0.00    +0.000 OA
DOCKED: ATOM     33  H   UNL     1      21.991 -19.994  -2.509 -0.59 -0.00    +0.000 HD
DOCKED: BRANCH  31  34
DOCKED: ATOM     34  O   UNL     1      20.078 -19.953  -1.826 -1.80 -0.00    +0.000 OA
DOCKED: ATOM     35  H   UNL     1      19.539 -19.250  -1.428 -0.20 -0.00    +0.000 HD
DOCKED: ENDBRANCH  31  34
DOCKED: ENDBRANCH  27  30
DOCKED: ENDBRANCH  22  24
DOCKED: ENDBRANCH  19  21
DOCKED: ENDBRANCH   1  19
DOCKED: TORSDOF 10
DOCKED: TER
DOCKED: ENDMDL
________________________________________________________________________________


	BEGINNING GENETIC ALGORITHM DOCKING 97 of 100
Run: 97 Seed: 1244830997 1831678011 [ Run 97 of 100 GA/GALS ]
Beginning LAMARCKIAN GENETIC ALGORITHM (LGA), with a maximum of 2500000 energy evaluations.

Final-Value: -17.142


	FINAL GENETIC ALGORITHM DOCKED STATE
	_______________________________________________


Detailed state:  trans 28.167 -16.865 0.516 quatxyzw 0.656802 -0.607737 -0.408874 0.179137 center 1.857 0.216 -0.019 ntor 10 -153.5193 55.3052 -10.2498 -65.2038 -35.6966 -163.3501 118.2205 179.9034 -3.0222 -67.0028
State:	 28.167 -16.865   0.516   0.668 -0.618 -0.416 159.361   -153.52   55.31  -10.25  -65.20  -35.70 -163.35  118.22  179.90   -3.02  -67.00

DOCKED: MODEL       97
DOCKED: USER    Run = 97
DOCKED: USER    DPF = ligand_dock.biased.dpf
DOCKED: USER  
DOCKED: USER    Estimated Free Energy of Binding    =  -12.24 kcal/mol  [=(1)+(2)+(3)-(4)]
DOCKED: USER    Estimated Inhibition Constant, Ki   =    1.06 nM (nanomolar)  [Temperature = 298.15 K]
DOCKED: USER    
DOCKED: USER    (1) Final Intermolecular Energy     =  -15.23 kcal/mol
DOCKED: USER        vdW + Hbond + desolv Energy     =  -15.23 kcal/mol
DOCKED: USER        Electrostatic Energy            =   +0.00 kcal/mol
DOCKED: USER    (2) Final Total Internal Energy     =   -1.92 kcal/mol
DOCKED: USER    (3) Torsional Free Energy           =   +2.98 kcal/mol
DOCKED: USER    (4) Unbound System's Energy  [=(2)] =   -1.92 kcal/mol
DOCKED: USER    
DOCKED: USER    
DOCKED: USER    NEWDPF move ligand.pdbqt
DOCKED: USER    NEWDPF about 1.857000 0.216000 -0.019000
DOCKED: USER    NEWDPF tran0 28.166878 -16.864889 0.515775
DOCKED: USER    NEWDPF quaternion0 0.656802 -0.607737 -0.408874 0.179137
DOCKED: USER    NEWDPF axisangle0 0.667601 -0.617729 -0.415596 159.360996
DOCKED: USER    NEWDPF quat0 0.667601 -0.617729 -0.415596 159.360996
DOCKED: USER    NEWDPF dihe0 -153.52 55.31 -10.25 -65.20 -35.70 -163.35 118.22 179.90 -3.02 -67.00 
DOCKED: USER  keepresnum = 1 
DOCKED: USER  
DOCKED: REMARK  Name = 
DOCKED: REMARK  12 active torsions:
DOCKED: REMARK  status: ('A' for Active; 'I' for Inactive)
DOCKED: REMARK    1  A    between atoms: C_2  and  O_3
DOCKED: REMARK    2  A    between atoms: O_3  and  C_4
DOCKED: REMARK    3  A    between atoms: C_4  and  C_5
DOCKED: REMARK    4  A    between atoms: C_10  and  C_11
DOCKED: REMARK    5  A    between atoms: C_11  and  N_12
DOCKED: REMARK    6  A    between atoms: N_12  and  C_13
DOCKED: REMARK    7  A    between atoms: N_12  and  C_15
DOCKED: REMARK    8  A    between atoms: C_13  and  C_14
DOCKED: REMARK    9  A    between atoms: C_15  and  C_16
DOCKED: REMARK   10  A    between atoms: N_21  and  C_22
DOCKED: REMARK   11  A    between atoms: C_25  and  C_26
DOCKED: REMARK   12  A    between atoms: N_27  and  O_28
DOCKED: REMARK                            x       y       z     vdW  Elec       q    Type
DOCKED: REMARK                         _______ _______ _______ _____ _____    ______ ____
DOCKED: USER                              x       y       z     vdW  Elec       q    Type
DOCKED: USER                           _______ _______ _______ _____ _____    ______ ____
DOCKED: ROOT
DOCKED: ATOM      1  C   UNL     1      28.314 -15.530  -0.442 -0.26 -0.00    +0.000 C 
DOCKED: ENDROOT
DOCKED: BRANCH   1   2
DOCKED: ATOM      2  C   UNL     1      28.687 -14.977   0.903 -0.08 -0.00    +0.000 A 
DOCKED: ATOM      3  C   UNL     1      30.036 -14.854   1.266 -0.09 -0.00    +0.000 A 
DOCKED: ATOM      4  C   UNL     1      30.388 -14.375   2.532 -0.16 -0.00    +0.000 A 
DOCKED: ATOM      5  C   UNL     1      29.393 -14.025   3.456 -0.27 -0.00    +0.000 A 
DOCKED: ATOM      6  C   UNL     1      29.737 -13.545   4.729 -0.28 -0.00    +0.000 A 
DOCKED: ATOM      7  C   UNL     1      28.736 -13.200   5.651 -0.39 -0.00    +0.000 A 
DOCKED: ATOM      8  C   UNL     1      27.386 -13.338   5.292 -0.32 -0.00    +0.000 A 
DOCKED: ATOM      9  C   UNL     1      27.034 -13.817   4.028 -0.38 -0.00    +0.000 A 
DOCKED: ATOM     10  C   UNL     1      28.029 -14.163   3.102 -0.35 -0.00    +0.000 A 
DOCKED: ATOM     11  C   UNL     1      27.686 -14.643   1.829 -0.12 -0.00    +0.000 A 
DOCKED: BRANCH   7  12
DOCKED: ATOM     12  C   UNL     1      29.098 -12.665   7.012 -0.40 -0.00    +0.000 C 
DOCKED: BRANCH  12  13
DOCKED: ATOM     13  N   UNL     1      30.067 -13.567   7.671 -0.34 -0.00    +0.000 N 
DOCKED: ATOM     14  H   UNL     1      29.894 -14.516   7.338 -0.49 -0.00    +0.000 HD
DOCKED: BRANCH  13  15
DOCKED: ATOM     15  C   UNL     1      29.851 -13.614   9.137 -0.40 -0.00    +0.000 C 
DOCKED: ATOM     16  C   UNL     1      28.518 -12.982   9.537 -0.47 -0.00    +0.000 C 
DOCKED: ENDBRANCH  13  15
DOCKED: BRANCH  13  17
DOCKED: ATOM     17  C   UNL     1      31.466 -13.272   7.272 -0.20 -0.00    +0.000 C 
DOCKED: ATOM     18  C   UNL     1      32.398 -12.931   8.442 -0.17 -0.00    +0.000 C 
DOCKED: ENDBRANCH  13  17
DOCKED: ENDBRANCH  12  13
DOCKED: ENDBRANCH   7  12
DOCKED: ENDBRANCH   1   2
DOCKED: BRANCH   1  19
DOCKED: ATOM     19  O   UNL     1      28.229 -16.948  -0.359 -0.38 -0.00    +0.000 OA
DOCKED: BRANCH  19  21
DOCKED: ATOM     20  O   UNL     1      27.004 -18.901  -0.442 -0.55 -0.00    +0.000 OA
DOCKED: ATOM     21  C   UNL     1      27.025 -17.641  -0.504 -0.52 -0.00    +0.000 C 
DOCKED: ATOM     22  N   UNL     1      25.824 -16.902  -0.767 -0.51 -0.00    +0.000 N 
DOCKED: ATOM     23  H   UNL     1      25.910 -15.942  -0.965 -0.01 -0.00    +0.000 HD
DOCKED: BRANCH  22  24
DOCKED: ATOM     24  C   UNL     1      24.503 -17.471  -0.759 -0.64 -0.00    +0.000 A 
DOCKED: ATOM     25  C   UNL     1      24.334 -18.820  -1.098 -0.51 -0.00    +0.000 A 
DOCKED: ATOM     26  C   UNL     1      23.059 -19.393  -1.120 -0.61 -0.00    +0.000 A 
DOCKED: ATOM     27  C   UNL     1      21.924 -18.624  -0.809 -0.75 -0.00    +0.000 A 
DOCKED: ATOM     28  C   UNL     1      22.092 -17.261  -0.503 -0.62 -0.00    +0.000 A 
DOCKED: ATOM     29  C   UNL     1      23.369 -16.690  -0.481 -0.18 -0.00    +0.000 A 
DOCKED: BRANCH  27  30
DOCKED: ATOM     30  C   UNL     1      20.577 -19.244  -0.839 -0.90 -0.00    +0.000 C 
DOCKED: ATOM     31  N   UNL     1      19.734 -19.256   0.319 -0.64 -0.00    +0.000 N 
DOCKED: ATOM     32  O   UNL     1      20.167 -19.786  -1.902 -1.85 -0.00    +0.000 OA
DOCKED: ATOM     33  H   UNL     1      20.075 -18.915   1.177 -0.23 -0.00    +0.000 HD
DOCKED: BRANCH  31  34
DOCKED: ATOM     34  O   UNL     1      18.471 -19.737   0.239 -0.76 -0.00    +0.000 OA
DOCKED: ATOM     35  H   UNL     1      18.237 -19.880  -0.693 -0.39 -0.00    +0.000 HD
DOCKED: ENDBRANCH  31  34
DOCKED: ENDBRANCH  27  30
DOCKED: ENDBRANCH  22  24
DOCKED: ENDBRANCH  19  21
DOCKED: ENDBRANCH   1  19
DOCKED: TORSDOF 10
DOCKED: TER
DOCKED: ENDMDL
________________________________________________________________________________


	BEGINNING GENETIC ALGORITHM DOCKING 98 of 100
Run: 98 Seed: 1808138260 324839986 [ Run 98 of 100 GA/GALS ]
Beginning LAMARCKIAN GENETIC ALGORITHM (LGA), with a maximum of 2500000 energy evaluations.

Final-Value: -14.600


	FINAL GENETIC ALGORITHM DOCKED STATE
	_______________________________________________


Detailed state:  trans 28.733 -14.725 -5.415 quatxyzw -0.285512 -0.631428 -0.537950 0.479991 center 1.857 0.216 -0.019 ntor 10 -179.9419 168.2108 -4.9369 -83.2421 -144.1541 99.9357 93.6699 -109.8500 180.0000 -160.3179
State:	 28.733 -14.725  -5.415  -0.325 -0.720 -0.613 122.630   -179.94  168.21   -4.94  -83.24 -144.15   99.94   93.67 -109.85  180.00 -160.32

DOCKED: MODEL       98
DOCKED: USER    Run = 98
DOCKED: USER    DPF = ligand_dock.biased.dpf
DOCKED: USER  
DOCKED: USER    Estimated Free Energy of Binding    =   -9.01 kcal/mol  [=(1)+(2)+(3)-(4)]
DOCKED: USER    Estimated Inhibition Constant, Ki   =  250.51 nM (nanomolar)  [Temperature = 298.15 K]
DOCKED: USER    
DOCKED: USER    (1) Final Intermolecular Energy     =  -11.99 kcal/mol
DOCKED: USER        vdW + Hbond + desolv Energy     =  -11.99 kcal/mol
DOCKED: USER        Electrostatic Energy            =   +0.00 kcal/mol
DOCKED: USER    (2) Final Total Internal Energy     =   -2.61 kcal/mol
DOCKED: USER    (3) Torsional Free Energy           =   +2.98 kcal/mol
DOCKED: USER    (4) Unbound System's Energy  [=(2)] =   -2.61 kcal/mol
DOCKED: USER    
DOCKED: USER    
DOCKED: USER    NEWDPF move ligand.pdbqt
DOCKED: USER    NEWDPF about 1.857000 0.216000 -0.019000
DOCKED: USER    NEWDPF tran0 28.732612 -14.725448 -5.415057
DOCKED: USER    NEWDPF quaternion0 -0.285512 -0.631428 -0.537950 0.479991
DOCKED: USER    NEWDPF axisangle0 -0.325454 -0.719762 -0.613207 122.630381
DOCKED: USER    NEWDPF quat0 -0.325454 -0.719762 -0.613207 122.630381
DOCKED: USER    NEWDPF dihe0 -179.94 168.21 -4.94 -83.24 -144.15 99.94 93.67 -109.85 180.00 -160.32 
DOCKED: USER  keepresnum = 1 
DOCKED: USER  
DOCKED: REMARK  Name = 
DOCKED: REMARK  12 active torsions:
DOCKED: REMARK  status: ('A' for Active; 'I' for Inactive)
DOCKED: REMARK    1  A    between atoms: C_2  and  O_3
DOCKED: REMARK    2  A    between atoms: O_3  and  C_4
DOCKED: REMARK    3  A    between atoms: C_4  and  C_5
DOCKED: REMARK    4  A    between atoms: C_10  and  C_11
DOCKED: REMARK    5  A    between atoms: C_11  and  N_12
DOCKED: REMARK    6  A    between atoms: N_12  and  C_13
DOCKED: REMARK    7  A    between atoms: N_12  and  C_15
DOCKED: REMARK    8  A    between atoms: C_13  and  C_14
DOCKED: REMARK    9  A    between atoms: C_15  and  C_16
DOCKED: REMARK   10  A    between atoms: N_21  and  C_22
DOCKED: REMARK   11  A    between atoms: C_25  and  C_26
DOCKED: REMARK   12  A    between atoms: N_27  and  O_28
DOCKED: REMARK                            x       y       z     vdW  Elec       q    Type
DOCKED: REMARK                         _______ _______ _______ _____ _____    ______ ____
DOCKED: USER                              x       y       z     vdW  Elec       q    Type
DOCKED: USER                           _______ _______ _______ _____ _____    ______ ____
DOCKED: ROOT
DOCKED: ATOM      1  C   UNL     1      30.270 -14.422  -5.931 -0.19 -0.00    +0.000 C 
DOCKED: ENDROOT
DOCKED: BRANCH   1   2
DOCKED: ATOM      2  C   UNL     1      30.337 -15.892  -5.636 -0.23 -0.00    +0.000 A 
DOCKED: ATOM      3  C   UNL     1      30.491 -16.341  -4.315 -0.17 -0.00    +0.000 A 
DOCKED: ATOM      4  C   UNL     1      30.592 -17.708  -4.040 -0.20 -0.00    +0.000 A 
DOCKED: ATOM      5  C   UNL     1      30.554 -18.643  -5.083 -0.28 -0.00    +0.000 A 
DOCKED: ATOM      6  C   UNL     1      30.656 -20.017  -4.815 -0.19 -0.00    +0.000 A 
DOCKED: ATOM      7  C   UNL     1      30.623 -20.949  -5.865 -0.37 -0.00    +0.000 A 
DOCKED: ATOM      8  C   UNL     1      30.485 -20.498  -7.187 -0.37 -0.00    +0.000 A 
DOCKED: ATOM      9  C   UNL     1      30.385 -19.133  -7.463 -0.32 -0.00    +0.000 A 
DOCKED: ATOM     10  C   UNL     1      30.417 -18.197  -6.419 -0.33 -0.00    +0.000 A 
DOCKED: ATOM     11  C   UNL     1      30.315 -16.823  -6.686 -0.30 -0.00    +0.000 A 
DOCKED: BRANCH   7  12
DOCKED: ATOM     12  C   UNL     1      30.712 -22.426  -5.582 -0.31 -0.00    +0.000 C 
DOCKED: BRANCH  12  13
DOCKED: ATOM     13  N   UNL     1      31.388 -23.118  -6.701 -0.22 -0.00    +0.000 N 
DOCKED: ATOM     14  H   UNL     1      30.963 -22.801  -7.573 -0.10 -0.00    +0.000 HD
DOCKED: BRANCH  13  15
DOCKED: ATOM     15  C   UNL     1      31.153 -24.581  -6.653 -0.18 -0.00    +0.000 C 
DOCKED: ATOM     16  C   UNL     1      30.575 -25.021  -5.308 -0.21 -0.00    +0.000 C 
DOCKED: ENDBRANCH  13  15
DOCKED: BRANCH  13  17
DOCKED: ATOM     17  C   UNL     1      32.818 -22.735  -6.811 -0.10 -0.00    +0.000 C 
DOCKED: ATOM     18  C   UNL     1      33.224 -22.203  -8.193 -0.07 -0.00    +0.000 C 
DOCKED: ENDBRANCH  13  17
DOCKED: ENDBRANCH  12  13
DOCKED: ENDBRANCH   7  12
DOCKED: ENDBRANCH   1   2
DOCKED: BRANCH   1  19
DOCKED: ATOM     19  O   UNL     1      28.914 -13.992  -5.868 -0.26 -0.00    +0.000 OA
DOCKED: BRANCH  19  21
DOCKED: ATOM     20  O   UNL     1      27.009 -15.292  -5.849 -1.07 +0.00    +0.000 OA
DOCKED: ATOM     21  C   UNL     1      27.924 -14.717  -5.200 -0.40 -0.00    +0.000 C 
DOCKED: ATOM     22  N   UNL     1      27.941 -14.760  -3.766 -0.23 -0.00    +0.000 N 
DOCKED: ATOM     23  H   UNL     1      28.574 -14.169  -3.296 +0.01 -0.00    +0.000 HD
DOCKED: BRANCH  22  24
DOCKED: ATOM     24  C   UNL     1      27.096 -15.607  -2.970 -0.33 -0.00    +0.000 A 
DOCKED: ATOM     25  C   UNL     1      25.708 -15.567  -3.158 -0.50 -0.00    +0.000 A 
DOCKED: ATOM     26  C   UNL     1      24.862 -16.363  -2.383 -0.35 -0.00    +0.000 A 
DOCKED: ATOM     27  C   UNL     1      25.387 -17.215  -1.395 -0.56 -0.00    +0.000 A 
DOCKED: ATOM     28  C   UNL     1      26.778 -17.228  -1.183 -0.44 -0.00    +0.000 A 
DOCKED: ATOM     29  C   UNL     1      27.623 -16.430  -1.960 -0.31 -0.00    +0.000 A 
DOCKED: BRANCH  27  30
DOCKED: ATOM     30  C   UNL     1      24.477 -18.052  -0.577 -0.75 -0.00    +0.000 C 
DOCKED: ATOM     31  N   UNL     1      23.103 -18.237  -0.941 -0.74 -0.00    +0.000 N 
DOCKED: ATOM     32  O   UNL     1      24.913 -18.605   0.469 -0.65 -0.00    +0.000 OA
DOCKED: ATOM     33  H   UNL     1      22.728 -17.743  -1.705 -0.03 -0.00    +0.000 HD
DOCKED: BRANCH  31  34
DOCKED: ATOM     34  O   UNL     1      22.319 -19.087  -0.236 -0.84 -0.00    +0.000 OA
DOCKED: ATOM     35  H   UNL     1      22.856 -19.548   0.429 -0.38 -0.00    +0.000 HD
DOCKED: ENDBRANCH  31  34
DOCKED: ENDBRANCH  27  30
DOCKED: ENDBRANCH  22  24
DOCKED: ENDBRANCH  19  21
DOCKED: ENDBRANCH   1  19
DOCKED: TORSDOF 10
DOCKED: TER
DOCKED: ENDMDL
________________________________________________________________________________


	BEGINNING GENETIC ALGORITHM DOCKING 99 of 100
Run: 99 Seed: 2105912379 679383591 [ Run 99 of 100 GA/GALS ]
Beginning LAMARCKIAN GENETIC ALGORITHM (LGA), with a maximum of 2500000 energy evaluations.

Final-Value: -14.472


	FINAL GENETIC ALGORITHM DOCKED STATE
	_______________________________________________


Detailed state:  trans 29.044 -16.204 -1.593 quatxyzw -0.505138 -0.055763 -0.719402 -0.473483 center 1.857 0.216 -0.019 ntor 10 134.4034 -62.0186 -4.9576 1.6780 53.4637 138.2122 -145.8400 -57.1127 166.8736 95.5046
State:	 29.044 -16.204  -1.593  -0.573 -0.063 -0.817 -123.479    134.40  -62.02   -4.96    1.68   53.46  138.21 -145.84  -57.11  166.87   95.50

DOCKED: MODEL       99
DOCKED: USER    Run = 99
DOCKED: USER    DPF = ligand_dock.biased.dpf
DOCKED: USER  
DOCKED: USER    Estimated Free Energy of Binding    =   -9.23 kcal/mol  [=(1)+(2)+(3)-(4)]
DOCKED: USER    Estimated Inhibition Constant, Ki   =  172.46 nM (nanomolar)  [Temperature = 298.15 K]
DOCKED: USER    
DOCKED: USER    (1) Final Intermolecular Energy     =  -12.21 kcal/mol
DOCKED: USER        vdW + Hbond + desolv Energy     =  -12.21 kcal/mol
DOCKED: USER        Electrostatic Energy            =   +0.00 kcal/mol
DOCKED: USER    (2) Final Total Internal Energy     =   -2.26 kcal/mol
DOCKED: USER    (3) Torsional Free Energy           =   +2.98 kcal/mol
DOCKED: USER    (4) Unbound System's Energy  [=(2)] =   -2.26 kcal/mol
DOCKED: USER    
DOCKED: USER    
DOCKED: USER    NEWDPF move ligand.pdbqt
DOCKED: USER    NEWDPF about 1.857000 0.216000 -0.019000
DOCKED: USER    NEWDPF tran0 29.044324 -16.204143 -1.593418
DOCKED: USER    NEWDPF quaternion0 -0.505138 -0.055763 -0.719402 -0.473483
DOCKED: USER    NEWDPF axisangle0 -0.573498 -0.063309 -0.816757 -123.478752
DOCKED: USER    NEWDPF quat0 -0.573498 -0.063309 -0.816757 -123.478752
DOCKED: USER    NEWDPF dihe0 134.40 -62.02 -4.96 1.68 53.46 138.21 -145.84 -57.11 166.87 95.50 
DOCKED: USER  keepresnum = 1 
DOCKED: USER  
DOCKED: REMARK  Name = 
DOCKED: REMARK  12 active torsions:
DOCKED: REMARK  status: ('A' for Active; 'I' for Inactive)
DOCKED: REMARK    1  A    between atoms: C_2  and  O_3
DOCKED: REMARK    2  A    between atoms: O_3  and  C_4
DOCKED: REMARK    3  A    between atoms: C_4  and  C_5
DOCKED: REMARK    4  A    between atoms: C_10  and  C_11
DOCKED: REMARK    5  A    between atoms: C_11  and  N_12
DOCKED: REMARK    6  A    between atoms: N_12  and  C_13
DOCKED: REMARK    7  A    between atoms: N_12  and  C_15
DOCKED: REMARK    8  A    between atoms: C_13  and  C_14
DOCKED: REMARK    9  A    between atoms: C_15  and  C_16
DOCKED: REMARK   10  A    between atoms: N_21  and  C_22
DOCKED: REMARK   11  A    between atoms: C_25  and  C_26
DOCKED: REMARK   12  A    between atoms: N_27  and  O_28
DOCKED: REMARK                            x       y       z     vdW  Elec       q    Type
DOCKED: REMARK                         _______ _______ _______ _____ _____    ______ ____
DOCKED: USER                              x       y       z     vdW  Elec       q    Type
DOCKED: USER                           _______ _______ _______ _____ _____    ______ ____
DOCKED: ROOT
DOCKED: ATOM      1  C   UNL     1      29.585 -14.907  -0.728 -0.12 -0.00    +0.000 C 
DOCKED: ENDROOT
DOCKED: BRANCH   1   2
DOCKED: ATOM      2  C   UNL     1      29.210 -14.263  -2.031 -0.08 -0.00    +0.000 A 
DOCKED: ATOM      3  C   UNL     1      30.173 -14.096  -3.039 -0.04 -0.00    +0.000 A 
DOCKED: ATOM      4  C   UNL     1      29.838 -13.463  -4.239 -0.06 -0.00    +0.000 A 
DOCKED: ATOM      5  C   UNL     1      28.539 -12.977  -4.443 -0.12 -0.00    +0.000 A 
DOCKED: ATOM      6  C   UNL     1      28.194 -12.339  -5.644 -0.15 -0.00    +0.000 A 
DOCKED: ATOM      7  C   UNL     1      26.893 -11.849  -5.840 -0.17 -0.00    +0.000 A 
DOCKED: ATOM      8  C   UNL     1      25.936 -12.003  -4.826 -0.29 -0.00    +0.000 A 
DOCKED: ATOM      9  C   UNL     1      26.270 -12.635  -3.626 -0.18 -0.00    +0.000 A 
DOCKED: ATOM     10  C   UNL     1      27.568 -13.127  -3.424 -0.16 -0.00    +0.000 A 
DOCKED: ATOM     11  C   UNL     1      27.912 -13.764  -2.223 -0.13 -0.00    +0.000 A 
DOCKED: BRANCH   7  12
DOCKED: ATOM     12  C   UNL     1      26.512 -11.182  -7.136 -0.15 -0.00    +0.000 C 
DOCKED: BRANCH  12  13
DOCKED: ATOM     13  N   UNL     1      26.295  -9.735  -6.917 -0.14 -0.00    +0.000 N 
DOCKED: ATOM     14  H   UNL     1      26.978  -9.412  -6.231 +0.01 -0.00    +0.000 HD
DOCKED: BRANCH  13  15
DOCKED: ATOM     15  C   UNL     1      24.967  -9.473  -6.313 -0.29 -0.00    +0.000 C 
DOCKED: ATOM     16  C   UNL     1      23.829  -9.987  -7.193 -0.44 -0.00    +0.000 C 
DOCKED: ENDBRANCH  13  15
DOCKED: BRANCH  13  17
DOCKED: ATOM     17  C   UNL     1      26.576  -8.938  -8.138 -0.10 -0.00    +0.000 C 
DOCKED: ATOM     18  C   UNL     1      26.913  -9.779  -9.377 -0.15 -0.00    +0.000 C 
DOCKED: ENDBRANCH  13  17
DOCKED: ENDBRANCH  12  13
DOCKED: ENDBRANCH   7  12
DOCKED: ENDBRANCH   1   2
DOCKED: BRANCH   1  19
DOCKED: ATOM     19  O   UNL     1      29.115 -16.251  -0.717 -0.25 -0.00    +0.000 OA
DOCKED: BRANCH  19  21
DOCKED: ATOM     20  O   UNL     1      27.369 -16.278   0.790 -0.36 -0.00    +0.000 OA
DOCKED: ATOM     21  C   UNL     1      27.811 -16.591  -0.349 -0.38 -0.00    +0.000 C 
DOCKED: ATOM     22  N   UNL     1      27.000 -17.336  -1.268 -0.45 -0.00    +0.000 N 
DOCKED: ATOM     23  H   UNL     1      27.434 -17.697  -2.075 -0.03 -0.00    +0.000 HD
DOCKED: BRANCH  22  24
DOCKED: ATOM     24  C   UNL     1      25.596 -17.591  -1.089 -0.57 -0.00    +0.000 A 
DOCKED: ATOM     25  C   UNL     1      24.692 -16.523  -1.137 -0.51 -0.00    +0.000 A 
DOCKED: ATOM     26  C   UNL     1      23.325 -16.739  -0.943 -0.39 -0.00    +0.000 A 
DOCKED: ATOM     27  C   UNL     1      22.834 -18.032  -0.690 -0.74 -0.00    +0.000 A 
DOCKED: ATOM     28  C   UNL     1      23.748 -19.098  -0.606 -0.50 -0.00    +0.000 A 
DOCKED: ATOM     29  C   UNL     1      25.115 -18.880  -0.800 -0.17 -0.00    +0.000 A 
DOCKED: BRANCH  27  30
DOCKED: ATOM     30  C   UNL     1      21.381 -18.246  -0.483 -0.73 -0.00    +0.000 C 
DOCKED: ATOM     31  N   UNL     1      20.894 -19.288   0.372 -0.70 -0.00    +0.000 N 
DOCKED: ATOM     32  O   UNL     1      20.553 -17.507  -1.081 -2.10 -0.00    +0.000 OA
DOCKED: ATOM     33  H   UNL     1      21.526 -19.925   0.776 -0.51 -0.00    +0.000 HD
DOCKED: BRANCH  31  34
DOCKED: ATOM     34  O   UNL     1      19.569 -19.399   0.625 -0.82 -0.00    +0.000 OA
DOCKED: ATOM     35  H   UNL     1      19.097 -18.654   0.219 -0.23 -0.00    +0.000 HD
DOCKED: ENDBRANCH  31  34
DOCKED: ENDBRANCH  27  30
DOCKED: ENDBRANCH  22  24
DOCKED: ENDBRANCH  19  21
DOCKED: ENDBRANCH   1  19
DOCKED: TORSDOF 10
DOCKED: TER
DOCKED: ENDMDL
________________________________________________________________________________


	BEGINNING GENETIC ALGORITHM DOCKING 100 of 100
Run: 100 Seed: 68575204 321379906 [ Run 100 of 100 GA/GALS ]
Beginning LAMARCKIAN GENETIC ALGORITHM (LGA), with a maximum of 2500000 energy evaluations.

Final-Value: -13.537


	FINAL GENETIC ALGORITHM DOCKED STATE
	_______________________________________________


Detailed state:  trans 28.120 -13.068 -2.858 quatxyzw 0.386457 -0.629478 -0.155056 0.656023 center 1.857 0.216 -0.019 ntor 10 68.0303 179.9468 33.6171 161.2756 98.1956 172.5853 -167.9675 106.9054 177.7302 176.5908
State:	 28.120 -13.068  -2.858   0.512 -0.834 -0.205 98.005     68.03  179.95   33.62  161.28   98.20  172.59 -167.97  106.91  177.73  176.59

DOCKED: MODEL      100
DOCKED: USER    Run = 100
DOCKED: USER    DPF = ligand_dock.biased.dpf
DOCKED: USER  
DOCKED: USER    Estimated Free Energy of Binding    =   -7.84 kcal/mol  [=(1)+(2)+(3)-(4)]
DOCKED: USER    Estimated Inhibition Constant, Ki   =    1.80 uM (micromolar)  [Temperature = 298.15 K]
DOCKED: USER    
DOCKED: USER    (1) Final Intermolecular Energy     =  -10.82 kcal/mol
DOCKED: USER        vdW + Hbond + desolv Energy     =  -10.82 kcal/mol
DOCKED: USER        Electrostatic Energy            =   +0.00 kcal/mol
DOCKED: USER    (2) Final Total Internal Energy     =   -2.72 kcal/mol
DOCKED: USER    (3) Torsional Free Energy           =   +2.98 kcal/mol
DOCKED: USER    (4) Unbound System's Energy  [=(2)] =   -2.72 kcal/mol
DOCKED: USER    
DOCKED: USER    
DOCKED: USER    NEWDPF move ligand.pdbqt
DOCKED: USER    NEWDPF about 1.857000 0.216000 -0.019000
DOCKED: USER    NEWDPF tran0 28.119976 -13.067574 -2.857644
DOCKED: USER    NEWDPF quaternion0 0.386457 -0.629478 -0.155056 0.656023
DOCKED: USER    NEWDPF axisangle0 0.512039 -0.834032 -0.205443 98.005398
DOCKED: USER    NEWDPF quat0 0.512039 -0.834032 -0.205443 98.005398
DOCKED: USER    NEWDPF dihe0 68.03 179.95 33.62 161.28 98.20 172.59 -167.97 106.91 177.73 176.59 
DOCKED: USER  keepresnum = 1 
DOCKED: USER  
DOCKED: REMARK  Name = 
DOCKED: REMARK  12 active torsions:
DOCKED: REMARK  status: ('A' for Active; 'I' for Inactive)
DOCKED: REMARK    1  A    between atoms: C_2  and  O_3
DOCKED: REMARK    2  A    between atoms: O_3  and  C_4
DOCKED: REMARK    3  A    between atoms: C_4  and  C_5
DOCKED: REMARK    4  A    between atoms: C_10  and  C_11
DOCKED: REMARK    5  A    between atoms: C_11  and  N_12
DOCKED: REMARK    6  A    between atoms: N_12  and  C_13
DOCKED: REMARK    7  A    between atoms: N_12  and  C_15
DOCKED: REMARK    8  A    between atoms: C_13  and  C_14
DOCKED: REMARK    9  A    between atoms: C_15  and  C_16
DOCKED: REMARK   10  A    between atoms: N_21  and  C_22
DOCKED: REMARK   11  A    between atoms: C_25  and  C_26
DOCKED: REMARK   12  A    between atoms: N_27  and  O_28
DOCKED: REMARK                            x       y       z     vdW  Elec       q    Type
DOCKED: REMARK                         _______ _______ _______ _____ _____    ______ ____
DOCKED: USER                              x       y       z     vdW  Elec       q    Type
DOCKED: USER                           _______ _______ _______ _____ _____    ______ ____
DOCKED: ROOT
DOCKED: ATOM      1  C   UNL     1      29.609 -12.391  -2.642 -0.03 -0.00    +0.000 C 
DOCKED: ENDROOT
DOCKED: BRANCH   1   2
DOCKED: ATOM      2  C   UNL     1      29.092 -12.432  -1.233 -0.04 -0.00    +0.000 A 
DOCKED: ATOM      3  C   UNL     1      28.229 -11.428  -0.769 -0.07 -0.00    +0.000 A 
DOCKED: ATOM      4  C   UNL     1      27.774 -11.441   0.553 -0.12 -0.00    +0.000 A 
DOCKED: ATOM      5  C   UNL     1      28.187 -12.452   1.432 -0.14 -0.00    +0.000 A 
DOCKED: ATOM      6  C   UNL     1      27.737 -12.473   2.761 -0.25 -0.00    +0.000 A 
DOCKED: ATOM      7  C   UNL     1      28.158 -13.486   3.637 -0.35 -0.00    +0.000 A 
DOCKED: ATOM      8  C   UNL     1      29.033 -14.481   3.176 -0.21 -0.00    +0.000 A 
DOCKED: ATOM      9  C   UNL     1      29.489 -14.468   1.855 -0.12 -0.00    +0.000 A 
DOCKED: ATOM     10  C   UNL     1      29.071 -13.459   0.974 -0.11 -0.00    +0.000 A 
DOCKED: ATOM     11  C   UNL     1      29.521 -13.438  -0.354 -0.05 -0.00    +0.000 A 
DOCKED: BRANCH   7  12
DOCKED: ATOM     12  C   UNL     1      27.662 -13.524   5.059 -0.51 -0.00    +0.000 C 
DOCKED: BRANCH  12  13
DOCKED: ATOM     13  N   UNL     1      28.353 -12.495   5.867 -0.40 -0.00    +0.000 N 
DOCKED: ATOM     14  H   UNL     1      28.212 -12.719   6.852 -0.03 +0.00    +0.000 HD
DOCKED: BRANCH  13  15
DOCKED: ATOM     15  C   UNL     1      27.746 -11.157   5.670 -0.37 +0.00    +0.000 C 
DOCKED: ATOM     16  C   UNL     1      28.784 -10.117   5.249 -0.26 +0.00    +0.000 C 
DOCKED: ENDBRANCH  13  15
DOCKED: BRANCH  13  17
DOCKED: ATOM     17  C   UNL     1      29.824 -12.530   5.675 -0.26 -0.00    +0.000 C 
DOCKED: ATOM     18  C   UNL     1      30.614 -12.958   6.919 -0.27 -0.00    +0.000 C 
DOCKED: ENDBRANCH  13  17
DOCKED: ENDBRANCH  12  13
DOCKED: ENDBRANCH   7  12
DOCKED: ENDBRANCH   1   2
DOCKED: BRANCH   1  19
DOCKED: ATOM     19  O   UNL     1      28.734 -13.133  -3.485 -0.10 -0.00    +0.000 OA
DOCKED: BRANCH  19  21
DOCKED: ATOM     20  O   UNL     1      26.461 -13.384  -3.183 -0.30 -0.00    +0.000 OA
DOCKED: ATOM     21  C   UNL     1      27.626 -13.829  -2.996 -0.21 -0.00    +0.000 C 
DOCKED: ATOM     22  N   UNL     1      27.837 -15.032  -2.243 -0.20 -0.00    +0.000 N 
DOCKED: ATOM     23  H   UNL     1      28.760 -15.256  -1.985 +0.01 -0.00    +0.000 HD
DOCKED: BRANCH  22  24
DOCKED: ATOM     24  C   UNL     1      26.789 -15.931  -1.842 -0.36 -0.00    +0.000 A 
DOCKED: ATOM     25  C   UNL     1      25.797 -16.286  -2.765 -0.44 -0.00    +0.000 A 
DOCKED: ATOM     26  C   UNL     1      24.754 -17.140  -2.395 -0.33 -0.00    +0.000 A 
DOCKED: ATOM     27  C   UNL     1      24.679 -17.652  -1.088 -0.65 -0.00    +0.000 A 
DOCKED: ATOM     28  C   UNL     1      25.656 -17.266  -0.152 -0.37 -0.00    +0.000 A 
DOCKED: ATOM     29  C   UNL     1      26.698 -16.412  -0.524 -0.41 -0.00    +0.000 A 
DOCKED: BRANCH  27  30
DOCKED: ATOM     30  C   UNL     1      23.565 -18.555  -0.708 -0.83 -0.00    +0.000 C 
DOCKED: ATOM     31  N   UNL     1      22.470 -18.094   0.094 -0.72 -0.00    +0.000 N 
DOCKED: ATOM     32  O   UNL     1      23.585 -19.758  -1.084 -0.78 -0.00    +0.000 OA
DOCKED: ATOM     33  H   UNL     1      22.485 -17.183   0.466 -0.03 -0.00    +0.000 HD
DOCKED: BRANCH  31  34
DOCKED: ATOM     34  O   UNL     1      21.417 -18.907   0.342 -1.00 -0.00    +0.000 OA
DOCKED: ATOM     35  H   UNL     1      21.724 -19.826   0.405 -0.49 -0.00    +0.000 HD
DOCKED: ENDBRANCH  31  34
DOCKED: ENDBRANCH  27  30
DOCKED: ENDBRANCH  22  24
DOCKED: ENDBRANCH  19  21
DOCKED: ENDBRANCH   1  19
DOCKED: TORSDOF 10
DOCKED: TER
DOCKED: ENDMDL
________________________________________________________________________________

DPF>                           # do this many hybrid GA-LS runs

DPF> analysis                             # perform a ranked cluster analysis


		CLUSTER ANALYSIS OF CONFORMATIONS
		_________________________________

Number of conformations = 100

RMSD cluster analysis will be performed using the ligand atoms only (35 / 35 total atoms).

Outputting structurally similar clusters, ranked in order of increasing energy.


________________________________________________________________________________

Number of distinct conformational clusters found = 21,  out of 100 runs,
Using an rmsd-tolerance of 2.0 A


	CLUSTERING HISTOGRAM
	____________________

________________________________________________________________________________
     |           |     |           |     |                                    
Clus | Lowest    | Run | Mean      | Num | Histogram                          
-ter | Binding   |     | Binding   | in  |                                    
Rank | Energy    |     | Energy    | Clus|    5    10   15   20   25   30   35
_____|___________|_____|___________|_____|____:____|____:____|____:____|____:___
   1 |    -13.18 |  66 |    -11.58 |  17 |#################
   2 |    -12.40 |  95 |    -10.89 |  11 |###########
   3 |    -12.05 |  48 |    -10.73 |  12 |############
   4 |    -11.76 |  77 |    -10.73 |  21 |#####################
   5 |    -11.44 |  52 |    -10.40 |   7 |#######
   6 |    -11.44 |  43 |    -10.65 |  14 |##############
   7 |    -11.15 |  13 |    -11.15 |   1 |#
   8 |    -11.08 |  85 |    -10.36 |   2 |##
   9 |    -11.05 |   9 |    -11.05 |   1 |#
  10 |    -11.02 |  46 |    -11.02 |   1 |#
  11 |    -10.75 |  86 |    -10.75 |   1 |#
  12 |    -10.71 |  61 |     -9.68 |   3 |###
  13 |    -10.39 |  80 |    -10.39 |   1 |#
  14 |    -10.24 |  92 |    -10.24 |   1 |#
  15 |     -9.80 |  11 |     -9.80 |   1 |#
  16 |     -9.78 |  17 |     -9.78 |   1 |#
  17 |     -9.73 |  83 |     -9.73 |   1 |#
  18 |     -9.25 |  45 |     -9.25 |   1 |#
  19 |     -8.95 |  79 |     -8.95 |   1 |#
  20 |     -8.75 |   2 |     -8.75 |   1 |#
  21 |     -7.84 | 100 |     -7.84 |   1 |#
_____|___________|_____|___________|_____|______________________________________


Number of multi-member conformational clusters found = 8, out of 100 runs.

	RMSD TABLE
	__________

_____________________________________________________________________
     |      |      |           |         |                 |
Rank | Sub- | Run  | Binding   | Cluster | Reference       | Grep
     | Rank |      | Energy    | RMSD    | RMSD            | Pattern
_____|______|______|___________|_________|_________________|___________
   1      1     66      -13.18      0.00     23.41           RANKING
   1      2     90      -12.62      1.87     24.00           RANKING
   1      3     97      -12.24      1.15     23.83           RANKING
   1      4     25      -12.02      1.40     23.11           RANKING
   1      5     19      -11.92      1.07     23.39           RANKING
   1      6     47      -11.83      1.50     22.96           RANKING
   1      7      5      -11.75      0.64     23.53           RANKING
   1      8     23      -11.74      2.00     23.51           RANKING
   1      9     49      -11.61      1.16     23.02           RANKING
   1     10      3      -11.59      1.37     23.87           RANKING
   1     11     88      -11.58      1.75     24.20           RANKING
   1     12     31      -11.50      1.81     23.97           RANKING
   1     13      6      -11.13      1.75     22.63           RANKING
   1     14     70      -11.12      1.91     23.90           RANKING
   1     15     68      -10.60      1.86     23.11           RANKING
   1     16     73      -10.30      1.92     23.29           RANKING
   1     17     14      -10.12      1.45     23.15           RANKING
   2      1     95      -12.40      0.00     24.26           RANKING
   2      2     84      -11.97      1.32     23.63           RANKING
   2      3     72      -11.01      1.64     23.22           RANKING
   2      4     51      -11.00      1.84     23.82           RANKING
   2      5     56      -10.80      1.53     24.00           RANKING
   2      6     76      -10.57      1.63     23.87           RANKING
   2      7     12      -10.44      1.24     23.74           RANKING
   2      8     18      -10.42      1.43     23.62           RANKING
   2      9     30      -10.42      1.88     23.65           RANKING
   2     10     32      -10.39      1.32     24.02           RANKING
   2     11     87      -10.37      1.93     23.27           RANKING
   3      1     48      -12.05      0.00     23.66           RANKING
   3      2     62      -11.14      1.73     22.57           RANKING
   3      3     10      -11.04      1.62     24.00           RANKING
   3      4     44      -10.99      1.67     24.20           RANKING
   3      5     24      -10.93      0.99     23.34           RANKING
   3      6     75      -10.86      1.73     24.00           RANKING
   3      7     57      -10.44      1.43     23.81           RANKING
   3      8     41      -10.43      1.80     23.92           RANKING
   3      9     21      -10.38      1.77     24.78           RANKING
   3     10     42      -10.23      1.58     23.27           RANKING
   3     11     59      -10.21      1.89     23.60           RANKING
   3     12     34      -10.12      1.75     24.14           RANKING
   4      1     77      -11.76      0.00     21.75           RANKING
   4      2     22      -11.58      1.01     21.58           RANKING
   4      3     55      -11.38      1.65     22.11           RANKING
   4      4     50      -11.37      1.55     22.05           RANKING
   4      5     38      -11.20      1.20     22.13           RANKING
   4      6     33      -11.19      1.66     22.11           RANKING
   4      7      7      -11.16      1.93     22.66           RANKING
   4      8     81      -10.86      1.08     21.92           RANKING
   4      9      1      -10.82      1.59     21.88           RANKING
   4     10     26      -10.74      1.86     22.71           RANKING
   4     11     93      -10.71      1.28     21.85           RANKING
   4     12     78      -10.59      1.45     21.73           RANKING
   4     13     37      -10.58      1.77     22.50           RANKING
   4     14     15      -10.57      1.48     21.81           RANKING
   4     15     74      -10.48      1.35     21.34           RANKING
   4     16     94      -10.47      1.79     22.49           RANKING
   4     17     29      -10.43      1.79     22.20           RANKING
   4     18     54      -10.31      1.84     22.47           RANKING
   4     19     96       -9.97      1.84     22.51           RANKING
   4     20     67       -9.84      1.16     22.14           RANKING
   4     21     99       -9.23      1.86     22.51           RANKING
   5      1     52      -11.44      0.00     27.13           RANKING
   5      2     63      -11.14      1.06     27.28           RANKING
   5      3     36      -10.73      1.59     26.55           RANKING
   5      4     82      -10.08      1.46     26.54           RANKING
   5      5     71      -10.03      1.32     27.96           RANKING
   5      6     91       -9.75      1.90     25.88           RANKING
   5      7      4       -9.61      1.44     26.86           RANKING
   6      1     43      -11.44      0.00     25.68           RANKING
   6      2     53      -11.42      1.07     25.78           RANKING
   6      3     27      -11.33      1.73     26.62           RANKING
   6      4     69      -11.25      1.48     26.03           RANKING
   6      5     28      -11.05      1.80     26.67           RANKING
   6      6     40      -10.75      1.86     25.84           RANKING
   6      7     16      -10.72      1.52     26.18           RANKING
   6      8     39      -10.64      1.15     26.03           RANKING
   6      9     58      -10.60      1.17     26.11           RANKING
   6     10     65      -10.13      1.42     25.37           RANKING
   6     11     20      -10.07      1.91     26.57           RANKING
   6     12     64       -9.95      1.47     26.29           RANKING
   6     13     35       -9.90      1.40     25.82           RANKING
   6     14      8       -9.85      1.99     25.38           RANKING
   7      1     13      -11.15      0.00     22.57           RANKING
   8      1     85      -11.08      0.00     25.80           RANKING
   8      2     60       -9.65      1.65     25.62           RANKING
   9      1      9      -11.05      0.00     24.13           RANKING
  10      1     46      -11.02      0.00     27.18           RANKING
  11      1     86      -10.75      0.00     25.37           RANKING
  12      1     61      -10.71      0.00     27.08           RANKING
  12      2     89       -9.34      1.94     27.07           RANKING
  12      3     98       -9.01      1.86     26.98           RANKING
  13      1     80      -10.39      0.00     21.21           RANKING
  14      1     92      -10.24      0.00     22.34           RANKING
  15      1     11       -9.80      0.00     22.45           RANKING
  16      1     17       -9.78      0.00     27.74           RANKING
  17      1     83       -9.73      0.00     23.13           RANKING
  18      1     45       -9.25      0.00     24.97           RANKING
  19      1     79       -8.95      0.00     21.31           RANKING
  20      1      2       -8.75      0.00     26.19           RANKING
  21      1    100       -7.84      0.00     23.10           RANKING
_______________________________________________________________________



	INFORMATION ENTROPY ANALYSIS FOR THIS CLUSTERING
	________________________________________________


Information entropy for this clustering = 0.51  (rmstol = 2.00 Angstrom)

_______________________________________________________________________


	STATISTICAL MECHANICAL ANALYSIS
	_______________________________


Partition function, Q =   101.82            at Temperature, T = 298.15 K
Free energy,        A ~ -2739.19 kcal/mol   at Temperature, T = 298.15 K
Internal energy,    U =   -10.71 kcal/mol   at Temperature, T = 298.15 K
Entropy,            S =     9.15 kcal/mol/K at Temperature, T = 298.15 K

_______________________________________________________________________


	LOWEST ENERGY DOCKED CONFORMATION from EACH CLUSTER
	___________________________________________________



Keeping original residue number (specified in the input PDBQ file) for outputting.

MODEL       66
USER    Run = 66
USER    Cluster Rank = 1
USER    Number of conformations in this cluster = 17
USER  
USER    RMSD from reference structure       = 23.407 A
USER  
USER    Estimated Free Energy of Binding    =  -13.18 kcal/mol  [=(1)+(2)+(3)-(4)]
USER    Estimated Inhibition Constant, Ki   =  220.06 pM (picomolar)  [Temperature = 298.15 K]
USER    
USER    (1) Final Intermolecular Energy     =  -16.16 kcal/mol
USER        vdW + Hbond + desolv Energy     =  -16.16 kcal/mol
USER        Electrostatic Energy            =   +0.00 kcal/mol
USER    (2) Final Total Internal Energy     =   -2.00 kcal/mol
USER    (3) Torsional Free Energy           =   +2.98 kcal/mol
USER    (4) Unbound System's Energy  [=(2)] =   -2.00 kcal/mol
USER    
USER    
USER  
USER    DPF = ligand_dock.biased.dpf
USER    NEWDPF move	ligand.pdbqt
USER    NEWDPF about	1.857000 0.216000 -0.019000
USER    NEWDPF tran0	27.379546 -15.700674 0.557903
USER    NEWDPF axisangle0	0.753050 -0.505133 -0.421611 160.251354
USER    NEWDPF quaternion0	0.741895 -0.497650 -0.415366 0.171488
USER    NEWDPF dihe0	106.35 -100.62 12.30 -45.60 97.81 61.43 -90.32 -136.41 108.48 -83.46 
USER  
USER                              x       y       z    vdW   Elec        q     RMS 
ATOM      1  C   UNL     1      27.258 -14.309  -0.320 -0.27 -0.00    +0.000    23.407
ATOM      2  C   UNL     1      27.363 -13.773   1.079 -0.26 -0.00    +0.000    23.407
ATOM      3  C   UNL     1      26.767 -12.547   1.412 -0.29 -0.00    +0.000    23.407
ATOM      4  C   UNL     1      26.894 -12.026   2.703 -0.22 +0.00    +0.000    23.407
ATOM      5  C   UNL     1      27.631 -12.718   3.674 -0.31 -0.00    +0.000    23.407
ATOM      6  C   UNL     1      27.764 -12.202   4.972 -0.35 +0.00    +0.000    23.407
ATOM      7  C   UNL     1      28.508 -12.898   5.940 -0.39 -0.00    +0.000    23.407
ATOM      8  C   UNL     1      29.116 -14.116   5.601 -0.28 -0.00    +0.000    23.407
ATOM      9  C   UNL     1      28.990 -14.637   4.311 -0.40 -0.00    +0.000    23.407
ATOM     10  C   UNL     1      28.249 -13.947   3.340 -0.35 -0.00    +0.000    23.407
ATOM     11  C   UNL     1      28.115 -14.463   2.043 -0.23 -0.00    +0.000    23.407
ATOM     12  C   UNL     1      28.638 -12.359   7.340 -0.40 -0.00    +0.000    23.407
ATOM     13  N   UNL     1      29.317 -13.348   8.204 -0.40 -0.00    +0.000    23.407
ATOM     14  H   UNL     1      29.379 -14.227   7.691 -0.42 -0.00    +0.000    23.407
ATOM     15  C   UNL     1      28.515 -13.649   9.414 -0.45 -0.00    +0.000    23.407
ATOM     16  C   UNL     1      28.812 -12.672  10.552 -0.46 -0.00    +0.000    23.407
ATOM     17  C   UNL     1      30.725 -12.970   8.486 -0.28 -0.00    +0.000    23.407
ATOM     18  C   UNL     1      31.427 -12.244   7.330 -0.17 -0.00    +0.000    23.407
ATOM     19  O   UNL     1      27.533 -15.706  -0.309 -0.34 -0.00    +0.000    23.407
ATOM     20  O   UNL     1      26.642 -17.682   0.479 -0.58 -0.00    +0.000    23.407
ATOM     21  C   UNL     1      26.526 -16.673  -0.269 -0.46 -0.00    +0.000    23.407
ATOM     22  N   UNL     1      25.380 -16.521  -1.119 -0.51 -0.00    +0.000    23.407
ATOM     23  H   UNL     1      25.404 -15.809  -1.798 -0.01 -0.00    +0.000    23.407
ATOM     24  C   UNL     1      24.201 -17.340  -1.044 -0.64 -0.00    +0.000    23.407
ATOM     25  C   UNL     1      22.957 -16.735  -0.819 -0.33 -0.00    +0.000    23.407
ATOM     26  C   UNL     1      21.798 -17.509  -0.720 -0.62 -0.00    +0.000    23.407
ATOM     27  C   UNL     1      21.860 -18.909  -0.837 -0.75 -0.00    +0.000    23.407
ATOM     28  C   UNL     1      23.115 -19.517  -1.027 -0.49 -0.00    +0.000    23.407
ATOM     29  C   UNL     1      24.273 -18.741  -1.127 -0.56 -0.00    +0.000    23.407
ATOM     30  C   UNL     1      20.623 -19.718  -0.727 -0.87 -0.00    +0.000    23.407
ATOM     31  N   UNL     1      20.329 -20.476   0.454 -0.68 -0.00    +0.000    23.407
ATOM     32  O   UNL     1      19.815 -19.754  -1.695 -1.78 -0.00    +0.000    23.407
ATOM     33  H   UNL     1      20.990 -20.526   1.181 -0.57 -0.00    +0.000    23.407
ATOM     34  O   UNL     1      19.146 -21.125   0.571 -0.75 -0.00    +0.000    23.407
ATOM     35  H   UNL     1      18.698 -21.140  -0.290 -0.28 -0.00    +0.000    23.407
TER
ENDMDL
MODEL       95
USER    Run = 95
USER    Cluster Rank = 2
USER    Number of conformations in this cluster = 11
USER  
USER    RMSD from reference structure       = 24.259 A
USER  
USER    Estimated Free Energy of Binding    =  -12.40 kcal/mol  [=(1)+(2)+(3)-(4)]
USER    Estimated Inhibition Constant, Ki   =  820.54 pM (picomolar)  [Temperature = 298.15 K]
USER    
USER    (1) Final Intermolecular Energy     =  -15.38 kcal/mol
USER        vdW + Hbond + desolv Energy     =  -15.38 kcal/mol
USER        Electrostatic Energy            =   +0.00 kcal/mol
USER    (2) Final Total Internal Energy     =   -2.08 kcal/mol
USER    (3) Torsional Free Energy           =   +2.98 kcal/mol
USER    (4) Unbound System's Energy  [=(2)] =   -2.08 kcal/mol
USER    
USER    
USER  
USER    DPF = ligand_dock.biased.dpf
USER    NEWDPF move	ligand.pdbqt
USER    NEWDPF about	1.857000 0.216000 -0.019000
USER    NEWDPF tran0	29.278588 -16.529006 -0.358014
USER    NEWDPF axisangle0	0.630170 -0.739083 -0.237995 126.361450
USER    NEWDPF quaternion0	0.562385 -0.659583 -0.212395 0.451178
USER    NEWDPF dihe0	-16.30 -18.39 20.51 -81.95 120.69 -96.74 -54.46 75.26 0.55 -96.06 
USER  
USER                              x       y       z    vdW   Elec        q     RMS 
ATOM      1  C   UNL     1      30.419 -15.436  -0.835 -0.11 -0.00    +0.000    24.259
ATOM      2  C   UNL     1      30.279 -15.106   0.623 -0.11 -0.00    +0.000    24.259
ATOM      3  C   UNL     1      31.228 -15.571   1.546 -0.10 -0.00    +0.000    24.259
ATOM      4  C   UNL     1      31.081 -15.298   2.909 -0.14 -0.00    +0.000    24.259
ATOM      5  C   UNL     1      29.976 -14.569   3.369 -0.20 -0.00    +0.000    24.259
ATOM      6  C   UNL     1      29.820 -14.292   4.736 -0.32 -0.00    +0.000    24.259
ATOM      7  C   UNL     1      28.708 -13.565   5.190 -0.41 -0.00    +0.000    24.259
ATOM      8  C   UNL     1      27.751 -13.115   4.268 -0.40 -0.00    +0.000    24.259
ATOM      9  C   UNL     1      27.897 -13.388   2.906 -0.30 -0.00    +0.000    24.259
ATOM     10  C   UNL     1      29.005 -14.113   2.445 -0.21 -0.00    +0.000    24.259
ATOM     11  C   UNL     1      29.161 -14.389   1.079 -0.16 -0.00    +0.000    24.259
ATOM     12  C   UNL     1      28.546 -13.248   6.654 -0.34 -0.00    +0.000    24.259
ATOM     13  N   UNL     1      29.820 -13.480   7.369 -0.35 -0.00    +0.000    24.259
ATOM     14  H   UNL     1      30.186 -14.386   7.076 -0.37 -0.00    +0.000    24.259
ATOM     15  C   UNL     1      29.606 -13.590   8.831 -0.43 -0.00    +0.000    24.259
ATOM     16  C   UNL     1      30.638 -14.504   9.491 -0.39 -0.00    +0.000    24.259
ATOM     17  C   UNL     1      30.865 -12.501   6.978 -0.22 -0.00    +0.000    24.259
ATOM     18  C   UNL     1      30.399 -11.039   6.993 -0.16 -0.00    +0.000    24.259
ATOM     19  O   UNL     1      29.718 -16.644  -1.112 -0.23 -0.00    +0.000    24.259
ATOM     20  O   UNL     1      27.901 -16.276  -2.484 -0.33 -0.00    +0.000    24.259
ATOM     21  C   UNL     1      28.347 -16.677  -1.375 -0.34 -0.00    +0.000    24.259
ATOM     22  N   UNL     1      27.452 -17.133  -0.350 -0.43 -0.00    +0.000    24.259
ATOM     23  H   UNL     1      27.824 -17.284   0.550 -0.31 -0.00    +0.000    24.259
ATOM     24  C   UNL     1      26.051 -17.384  -0.549 -0.54 -0.00    +0.000    24.259
ATOM     25  C   UNL     1      25.374 -18.239   0.330 -0.44 -0.00    +0.000    24.259
ATOM     26  C   UNL     1      24.017 -18.518   0.147 -0.40 -0.00    +0.000    24.259
ATOM     27  C   UNL     1      23.309 -17.952  -0.928 -0.71 -0.00    +0.000    24.259
ATOM     28  C   UNL     1      23.999 -17.123  -1.831 -0.40 -0.00    +0.000    24.259
ATOM     29  C   UNL     1      25.357 -16.844  -1.645 -0.54 -0.00    +0.000    24.259
ATOM     30  C   UNL     1      21.870 -18.260  -1.113 -0.69 -0.00    +0.000    24.259
ATOM     31  N   UNL     1      21.441 -19.466  -1.758 -0.58 -0.00    +0.000    24.259
ATOM     32  O   UNL     1      21.002 -17.440  -0.707 -2.04 -0.00    +0.000    24.259
ATOM     33  H   UNL     1      22.107 -20.072  -2.156 -0.55 -0.00    +0.000    24.259
ATOM     34  O   UNL     1      20.124 -19.772  -1.825 -1.85 -0.00    +0.000    24.259
ATOM     35  H   UNL     1      19.597 -18.968  -1.695 -0.26 -0.00    +0.000    24.259
TER
ENDMDL
MODEL       48
USER    Run = 48
USER    Cluster Rank = 3
USER    Number of conformations in this cluster = 12
USER  
USER    RMSD from reference structure       = 23.661 A
USER  
USER    Estimated Free Energy of Binding    =  -12.05 kcal/mol  [=(1)+(2)+(3)-(4)]
USER    Estimated Inhibition Constant, Ki   =    1.47 nM (nanomolar)  [Temperature = 298.15 K]
USER    
USER    (1) Final Intermolecular Energy     =  -15.03 kcal/mol
USER        vdW + Hbond + desolv Energy     =  -15.03 kcal/mol
USER        Electrostatic Energy            =   +0.00 kcal/mol
USER    (2) Final Total Internal Energy     =   -1.98 kcal/mol
USER    (3) Torsional Free Energy           =   +2.98 kcal/mol
USER    (4) Unbound System's Energy  [=(2)] =   -1.98 kcal/mol
USER    
USER    
USER  
USER    DPF = ligand_dock.biased.dpf
USER    NEWDPF move	ligand.pdbqt
USER    NEWDPF about	1.857000 0.216000 -0.019000
USER    NEWDPF tran0	27.338890 -16.157515 -1.231212
USER    NEWDPF axisangle0	-0.701763 0.432001 -0.566484 164.067012
USER    NEWDPF quaternion0	-0.694990 0.427832 -0.561017 0.138594
USER    NEWDPF dihe0	7.66 -94.73 17.14 -4.80 -72.40 64.85 108.79 78.70 -76.46 -83.12 
USER  
USER                              x       y       z    vdW   Elec        q     RMS 
ATOM      1  C   UNL     1      28.825 -16.713  -1.686 -0.30 -0.00    +0.000    23.661
ATOM      2  C   UNL     1      28.554 -15.680  -2.741 -0.21 -0.00    +0.000    23.661
ATOM      3  C   UNL     1      27.661 -14.628  -2.487 -0.20 -0.00    +0.000    23.661
ATOM      4  C   UNL     1      27.377 -13.685  -3.480 -0.21 -0.00    +0.000    23.661
ATOM      5  C   UNL     1      27.973 -13.790  -4.744 -0.23 -0.00    +0.000    23.661
ATOM      6  C   UNL     1      27.693 -12.849  -5.747 -0.20 -0.00    +0.000    23.661
ATOM      7  C   UNL     1      28.289 -12.962  -7.013 -0.19 -0.00    +0.000    23.661
ATOM      8  C   UNL     1      29.169 -14.023  -7.271 -0.28 -0.00    +0.000    23.661
ATOM      9  C   UNL     1      29.453 -14.966  -6.280 -0.31 -0.00    +0.000    23.661
ATOM     10  C   UNL     1      28.861 -14.859  -5.013 -0.26 -0.00    +0.000    23.661
ATOM     11  C   UNL     1      29.141 -15.799  -4.011 -0.23 -0.00    +0.000    23.661
ATOM     12  C   UNL     1      28.007 -11.943  -8.087 -0.23 -0.00    +0.000    23.661
ATOM     13  N   UNL     1      28.819 -12.235  -9.288 -0.25 -0.00    +0.000    23.661
ATOM     14  H   UNL     1      28.967 -13.243  -9.334 -0.59 -0.00    +0.000    23.661
ATOM     15  C   UNL     1      30.171 -11.637  -9.185 -0.14 -0.00    +0.000    23.661
ATOM     16  C   UNL     1      31.069 -12.054 -10.350 -0.15 -0.00    +0.000    23.661
ATOM     17  C   UNL     1      28.100 -11.898 -10.542 -0.35 -0.00    +0.000    23.661
ATOM     18  C   UNL     1      26.571 -11.986 -10.437 -0.46 -0.00    +0.000    23.661
ATOM     19  O   UNL     1      27.840 -16.607  -0.663 -0.39 -0.00    +0.000    23.661
ATOM     20  O   UNL     1      26.789 -18.611  -0.212 -0.66 -0.00    +0.000    23.661
ATOM     21  C   UNL     1      26.705 -17.421  -0.623 -0.56 -0.00    +0.000    23.661
ATOM     22  N   UNL     1      25.455 -16.896  -1.093 -0.54 -0.00    +0.000    23.661
ATOM     23  H   UNL     1      25.466 -16.025  -1.551 -0.01 -0.00    +0.000    23.661
ATOM     24  C   UNL     1      24.189 -17.560  -0.941 -0.66 -0.00    +0.000    23.661
ATOM     25  C   UNL     1      24.118 -18.951  -1.091 -0.56 -0.00    +0.000    23.661
ATOM     26  C   UNL     1      22.896 -19.618  -0.970 -0.36 -0.00    +0.000    23.661
ATOM     27  C   UNL     1      21.715 -18.905  -0.703 -0.77 -0.00    +0.000    23.661
ATOM     28  C   UNL     1      21.781 -17.504  -0.588 -0.61 -0.00    +0.000    23.661
ATOM     29  C   UNL     1      23.005 -16.838  -0.709 -0.45 -0.00    +0.000    23.661
ATOM     30  C   UNL     1      20.425 -19.625  -0.580 -0.88 -0.00    +0.000    23.661
ATOM     31  N   UNL     1      20.013 -20.216   0.659 -0.70 -0.00    +0.000    23.661
ATOM     32  O   UNL     1      19.677 -19.736  -1.590 -1.68 -0.00    +0.000    23.661
ATOM     33  H   UNL     1      20.625 -20.212   1.430 -0.46 -0.00    +0.000    23.661
ATOM     34  O   UNL     1      18.787 -20.779   0.772 -0.79 -0.00    +0.000    23.661
ATOM     35  H   UNL     1      18.424 -20.946  -0.112 -0.17 -0.00    +0.000    23.661
TER
ENDMDL
MODEL       77
USER    Run = 77
USER    Cluster Rank = 4
USER    Number of conformations in this cluster = 21
USER  
USER    RMSD from reference structure       = 21.752 A
USER  
USER    Estimated Free Energy of Binding    =  -11.76 kcal/mol  [=(1)+(2)+(3)-(4)]
USER    Estimated Inhibition Constant, Ki   =    2.42 nM (nanomolar)  [Temperature = 298.15 K]
USER    
USER    (1) Final Intermolecular Energy     =  -14.74 kcal/mol
USER        vdW + Hbond + desolv Energy     =  -14.74 kcal/mol
USER        Electrostatic Energy            =   +0.00 kcal/mol
USER    (2) Final Total Internal Energy     =   -2.05 kcal/mol
USER    (3) Torsional Free Energy           =   +2.98 kcal/mol
USER    (4) Unbound System's Energy  [=(2)] =   -2.05 kcal/mol
USER    
USER    
USER  
USER    DPF = ligand_dock.biased.dpf
USER    NEWDPF move	ligand.pdbqt
USER    NEWDPF about	1.857000 0.216000 -0.019000
USER    NEWDPF tran0	27.171344 -15.694073 -0.453048
USER    NEWDPF axisangle0	-0.758311 0.509561 -0.406585 178.749503
USER    NEWDPF quaternion0	-0.758266 0.509531 -0.406561 0.010912
USER    NEWDPF dihe0	-35.89 59.40 -2.50 -13.89 102.17 85.54 -66.17 100.09 -10.76 -79.85 
USER  
USER                              x       y       z    vdW   Elec        q     RMS 
ATOM      1  C   UNL     1      28.570 -15.909  -1.301 -0.26 -0.00    +0.000    21.752
ATOM      2  C   UNL     1      28.128 -14.560  -1.788 -0.15 -0.00    +0.000    21.752
ATOM      3  C   UNL     1      28.536 -13.398  -1.115 -0.09 -0.00    +0.000    21.752
ATOM      4  C   UNL     1      28.096 -12.141  -1.542 -0.08 -0.00    +0.000    21.752
ATOM      5  C   UNL     1      27.232 -12.031  -2.640 -0.11 -0.00    +0.000    21.752
ATOM      6  C   UNL     1      26.785 -10.774  -3.076 -0.09 -0.00    +0.000    21.752
ATOM      7  C   UNL     1      25.915 -10.671  -4.173 -0.22 -0.00    +0.000    21.752
ATOM      8  C   UNL     1      25.496 -11.835  -4.836 -0.32 -0.00    +0.000    21.752
ATOM      9  C   UNL     1      25.934 -13.091  -4.409 -0.34 -0.00    +0.000    21.752
ATOM     10  C   UNL     1      26.803 -13.201  -3.313 -0.23 -0.00    +0.000    21.752
ATOM     11  C   UNL     1      27.250 -14.457  -2.879 -0.24 -0.00    +0.000    21.752
ATOM     12  C   UNL     1      25.448  -9.323  -4.657 -0.25 -0.00    +0.000    21.752
ATOM     13  N   UNL     1      24.260  -9.479  -5.524 -0.36 -0.00    +0.000    21.752
ATOM     14  H   UNL     1      23.829 -10.379  -5.314 -0.11 -0.00    +0.000    21.752
ATOM     15  C   UNL     1      24.641  -9.544  -6.956 -0.34 -0.00    +0.000    21.752
ATOM     16  C   UNL     1      23.989 -10.732  -7.664 -0.27 -0.00    +0.000    21.752
ATOM     17  C   UNL     1      23.211  -8.474  -5.220 -0.40 -0.00    +0.000    21.752
ATOM     18  C   UNL     1      22.744  -7.660  -6.434 -0.40 -0.00    +0.000    21.752
ATOM     19  O   UNL     1      27.759 -16.298  -0.197 -0.38 -0.00    +0.000    21.752
ATOM     20  O   UNL     1      26.837 -18.404  -0.015 -0.65 -0.00    +0.000    21.752
ATOM     21  C   UNL     1      26.692 -17.190  -0.324 -0.54 -0.00    +0.000    21.752
ATOM     22  N   UNL     1      25.445 -16.714  -0.849 -0.51 -0.00    +0.000    21.752
ATOM     23  H   UNL     1      25.422 -15.805  -1.225 -0.01 -0.00    +0.000    21.752
ATOM     24  C   UNL     1      24.226 -17.477  -0.862 -0.65 -0.00    +0.000    21.752
ATOM     25  C   UNL     1      23.000 -16.817  -0.702 -0.44 -0.00    +0.000    21.752
ATOM     26  C   UNL     1      21.803 -17.537  -0.688 -0.64 -0.00    +0.000    21.752
ATOM     27  C   UNL     1      21.807 -18.936  -0.827 -0.75 -0.00    +0.000    21.752
ATOM     28  C   UNL     1      23.041 -19.600  -0.952 -0.40 -0.00    +0.000    21.752
ATOM     29  C   UNL     1      24.238 -18.878  -0.966 -0.55 -0.00    +0.000    21.752
ATOM     30  C   UNL     1      20.528 -19.687  -0.807 -0.87 -0.00    +0.000    21.752
ATOM     31  N   UNL     1      20.083 -20.373   0.370 -0.71 -0.00    +0.000    21.752
ATOM     32  O   UNL     1      19.821 -19.737  -1.850 -1.85 -0.00    +0.000    21.752
ATOM     33  H   UNL     1      20.665 -20.414   1.162 -0.46 -0.00    +0.000    21.752
ATOM     34  O   UNL     1      18.866 -20.966   0.395 -0.77 -0.00    +0.000    21.752
ATOM     35  H   UNL     1      18.407 -20.800  -0.445 -0.26 -0.00    +0.000    21.752
TER
ENDMDL
MODEL       52
USER    Run = 52
USER    Cluster Rank = 5
USER    Number of conformations in this cluster = 7
USER  
USER    RMSD from reference structure       = 27.126 A
USER  
USER    Estimated Free Energy of Binding    =  -11.44 kcal/mol  [=(1)+(2)+(3)-(4)]
USER    Estimated Inhibition Constant, Ki   =    4.10 nM (nanomolar)  [Temperature = 298.15 K]
USER    
USER    (1) Final Intermolecular Energy     =  -14.43 kcal/mol
USER        vdW + Hbond + desolv Energy     =  -14.43 kcal/mol
USER        Electrostatic Energy            =   +0.00 kcal/mol
USER    (2) Final Total Internal Energy     =   -2.12 kcal/mol
USER    (3) Torsional Free Energy           =   +2.98 kcal/mol
USER    (4) Unbound System's Energy  [=(2)] =   -2.12 kcal/mol
USER    
USER    
USER  
USER    DPF = ligand_dock.biased.dpf
USER    NEWDPF move	ligand.pdbqt
USER    NEWDPF about	1.857000 0.216000 -0.019000
USER    NEWDPF tran0	29.737091 -15.916961 -0.198797
USER    NEWDPF axisangle0	0.318457 0.947935 -0.002043 -153.480541
USER    NEWDPF quaternion0	0.309967 0.922664 -0.001989 -0.229366
USER    NEWDPF dihe0	-98.88 32.96 16.64 -19.82 -39.28 -127.72 -162.34 -170.27 46.73 81.69 
USER  
USER                              x       y       z    vdW   Elec        q     RMS 
ATOM      1  C   UNL     1      30.110 -16.755  -1.571 -0.20 -0.00    +0.000    27.126
ATOM      2  C   UNL     1      30.813 -17.568  -0.522 -0.16 -0.00    +0.000    27.126
ATOM      3  C   UNL     1      30.932 -18.958  -0.670 -0.16 -0.00    +0.000    27.126
ATOM      4  C   UNL     1      31.552 -19.724   0.322 -0.14 -0.00    +0.000    27.126
ATOM      5  C   UNL     1      32.049 -19.111   1.480 -0.14 -0.00    +0.000    27.126
ATOM      6  C   UNL     1      32.672 -19.873   2.481 -0.20 -0.00    +0.000    27.126
ATOM      7  C   UNL     1      33.163 -19.253   3.642 -0.29 -0.00    +0.000    27.126
ATOM      8  C   UNL     1      33.029 -17.865   3.795 -0.20 -0.00    +0.000    27.126
ATOM      9  C   UNL     1      32.409 -17.099   2.805 -0.25 -0.00    +0.000    27.126
ATOM     10  C   UNL     1      31.916 -17.711   1.643 -0.13 -0.00    +0.000    27.126
ATOM     11  C   UNL     1      31.294 -16.950   0.643 -0.09 -0.00    +0.000    27.126
ATOM     12  C   UNL     1      33.850 -20.063   4.710 -0.34 -0.00    +0.000    27.126
ATOM     13  N   UNL     1      33.557 -21.501   4.526 -0.31 -0.00    +0.000    27.126
ATOM     14  H   UNL     1      33.179 -21.629   3.588 -0.07 -0.00    +0.000    27.126
ATOM     15  C   UNL     1      32.493 -21.958   5.451 -0.51 -0.00    +0.000    27.126
ATOM     16  C   UNL     1      31.140 -21.330   5.117 -0.73 -0.00    +0.000    27.126
ATOM     17  C   UNL     1      34.788 -22.329   4.559 -0.17 -0.00    +0.000    27.126
ATOM     18  C   UNL     1      35.047 -23.023   5.903 -0.36 -0.00    +0.000    27.126
ATOM     19  O   UNL     1      29.271 -15.795  -0.936 -0.19 -0.00    +0.000    27.126
ATOM     20  O   UNL     1      27.169 -15.056  -0.338 -0.31 -0.00    +0.000    27.126
ATOM     21  C   UNL     1      27.900 -15.996  -0.754 -0.33 -0.00    +0.000    27.126
ATOM     22  N   UNL     1      27.347 -17.294  -1.008 -0.44 -0.00    +0.000    27.126
ATOM     23  H   UNL     1      27.973 -18.035  -1.175 -0.07 -0.00    +0.000    27.126
ATOM     24  C   UNL     1      25.939 -17.585  -1.034 -0.54 -0.00    +0.000    27.126
ATOM     25  C   UNL     1      25.086 -16.785  -1.804 -0.56 -0.00    +0.000    27.126
ATOM     26  C   UNL     1      23.710 -17.031  -1.830 -0.04 -0.00    +0.000    27.126
ATOM     27  C   UNL     1      23.158 -18.081  -1.077 -0.71 -0.00    +0.000    27.126
ATOM     28  C   UNL     1      24.011 -18.861  -0.275 -0.38 -0.00    +0.000    27.126
ATOM     29  C   UNL     1      25.387 -18.614  -0.251 -0.50 -0.00    +0.000    27.126
ATOM     30  C   UNL     1      21.696 -18.329  -1.110 -0.68 -0.00    +0.000    27.126
ATOM     31  N   UNL     1      21.158 -19.564  -1.598 -0.69 -0.00    +0.000    27.126
ATOM     32  O   UNL     1      20.904 -17.430  -0.715 -2.02 +0.00    +0.000    27.126
ATOM     33  H   UNL     1      21.759 -20.239  -1.989 -0.50 -0.00    +0.000    27.126
ATOM     34  O   UNL     1      19.828 -19.806  -1.524 -1.68 -0.00    +0.000    27.126
ATOM     35  H   UNL     1      19.355 -18.973  -1.369 -0.34 -0.00    +0.000    27.126
TER
ENDMDL
MODEL       43
USER    Run = 43
USER    Cluster Rank = 6
USER    Number of conformations in this cluster = 14
USER  
USER    RMSD from reference structure       = 25.681 A
USER  
USER    Estimated Free Energy of Binding    =  -11.44 kcal/mol  [=(1)+(2)+(3)-(4)]
USER    Estimated Inhibition Constant, Ki   =    4.13 nM (nanomolar)  [Temperature = 298.15 K]
USER    
USER    (1) Final Intermolecular Energy     =  -14.42 kcal/mol
USER        vdW + Hbond + desolv Energy     =  -14.42 kcal/mol
USER        Electrostatic Energy            =   +0.00 kcal/mol
USER    (2) Final Total Internal Energy     =   -2.39 kcal/mol
USER    (3) Torsional Free Energy           =   +2.98 kcal/mol
USER    (4) Unbound System's Energy  [=(2)] =   -2.39 kcal/mol
USER    
USER    
USER  
USER    DPF = ligand_dock.biased.dpf
USER    NEWDPF move	ligand.pdbqt
USER    NEWDPF about	1.857000 0.216000 -0.019000
USER    NEWDPF tran0	29.349247 -16.321066 -0.655385
USER    NEWDPF axisangle0	-0.550288 -0.428753 -0.716487 -151.592940
USER    NEWDPF quaternion0	-0.533466 -0.415646 -0.694585 -0.245367
USER    NEWDPF dihe0	-54.06 -10.14 14.30 21.76 -21.56 179.37 -166.57 -74.10 -16.16 100.29 
USER  
USER                              x       y       z    vdW   Elec        q     RMS 
ATOM      1  C   UNL     1      29.696 -14.724  -0.882 -0.10 -0.00    +0.000    25.681
ATOM      2  C   UNL     1      29.765 -15.249  -2.287 -0.09 -0.00    +0.000    25.681
ATOM      3  C   UNL     1      28.595 -15.376  -3.051 -0.19 -0.00    +0.000    25.681
ATOM      4  C   UNL     1      28.649 -15.899  -4.347 -0.26 -0.00    +0.000    25.681
ATOM      5  C   UNL     1      29.872 -16.315  -4.889 -0.25 -0.00    +0.000    25.681
ATOM      6  C   UNL     1      29.936 -16.842  -6.188 -0.27 -0.00    +0.000    25.681
ATOM      7  C   UNL     1      31.164 -17.262  -6.725 -0.26 -0.00    +0.000    25.681
ATOM      8  C   UNL     1      32.331 -17.149  -5.954 -0.08 -0.00    +0.000    25.681
ATOM      9  C   UNL     1      32.277 -16.627  -4.659 -0.05 -0.00    +0.000    25.681
ATOM     10  C   UNL     1      31.054 -16.206  -4.118 -0.10 -0.00    +0.000    25.681
ATOM     11  C   UNL     1      30.990 -15.678  -2.820 -0.06 -0.00    +0.000    25.681
ATOM     12  C   UNL     1      31.242 -17.810  -8.126 -0.34 -0.00    +0.000    25.681
ATOM     13  N   UNL     1      30.573 -19.128  -8.194 -0.39 -0.00    +0.000    25.681
ATOM     14  H   UNL     1      29.611 -19.011  -7.875 -0.09 -0.00    +0.000    25.681
ATOM     15  C   UNL     1      31.189 -20.096  -7.255 -0.35 -0.00    +0.000    25.681
ATOM     16  C   UNL     1      30.240 -20.466  -6.115 -0.46 -0.00    +0.000    25.681
ATOM     17  C   UNL     1      30.456 -19.623  -9.588 -0.30 -0.00    +0.000    25.681
ATOM     18  C   UNL     1      31.792 -19.729 -10.335 -0.28 -0.00    +0.000    25.681
ATOM     19  O   UNL     1      29.155 -15.730  -0.032 -0.23 -0.00    +0.000    25.681
ATOM     20  O   UNL     1      27.023 -15.207   0.675 -0.34 -0.00    +0.000    25.681
ATOM     21  C   UNL     1      27.786 -15.993   0.049 -0.32 -0.00    +0.000    25.681
ATOM     22  N   UNL     1      27.269 -17.188  -0.552 -0.45 -0.00    +0.000    25.681
ATOM     23  H   UNL     1      27.916 -17.849  -0.888 -0.09 -0.00    +0.000    25.681
ATOM     24  C   UNL     1      25.870 -17.485  -0.695 -0.57 -0.00    +0.000    25.681
ATOM     25  C   UNL     1      25.002 -16.493  -1.172 -0.52 -0.00    +0.000    25.681
ATOM     26  C   UNL     1      23.634 -16.747  -1.299 -0.39 -0.00    +0.000    25.681
ATOM     27  C   UNL     1      23.102 -17.999  -0.945 -0.71 -0.00    +0.000    25.681
ATOM     28  C   UNL     1      23.969 -18.982  -0.433 -0.45 -0.00    +0.000    25.681
ATOM     29  C   UNL     1      25.338 -18.726  -0.306 -0.36 -0.00    +0.000    25.681
ATOM     30  C   UNL     1      21.648 -18.253  -1.083 -0.71 -0.00    +0.000    25.681
ATOM     31  N   UNL     1      21.153 -19.475  -1.645 -0.70 -0.00    +0.000    25.681
ATOM     32  O   UNL     1      20.825 -17.372  -0.711 -1.94 +0.00    +0.000    25.681
ATOM     33  H   UNL     1      21.782 -20.133  -2.018 -0.52 -0.00    +0.000    25.681
ATOM     34  O   UNL     1      19.822 -19.726  -1.666 -1.77 -0.00    +0.000    25.681
ATOM     35  H   UNL     1      19.335 -18.908  -1.478 -0.39 -0.00    +0.000    25.681
TER
ENDMDL
MODEL       13
USER    Run = 13
USER    Cluster Rank = 7
USER    Number of conformations in this cluster = 1
USER  
USER    RMSD from reference structure       = 22.575 A
USER  
USER    Estimated Free Energy of Binding    =  -11.15 kcal/mol  [=(1)+(2)+(3)-(4)]
USER    Estimated Inhibition Constant, Ki   =    6.69 nM (nanomolar)  [Temperature = 298.15 K]
USER    
USER    (1) Final Intermolecular Energy     =  -14.14 kcal/mol
USER        vdW + Hbond + desolv Energy     =  -14.14 kcal/mol
USER        Electrostatic Energy            =   +0.00 kcal/mol
USER    (2) Final Total Internal Energy     =   -2.20 kcal/mol
USER    (3) Torsional Free Energy           =   +2.98 kcal/mol
USER    (4) Unbound System's Energy  [=(2)] =   -2.20 kcal/mol
USER    
USER    
USER  
USER    DPF = ligand_dock.biased.dpf
USER    NEWDPF move	ligand.pdbqt
USER    NEWDPF about	1.857000 0.216000 -0.019000
USER    NEWDPF tran0	27.162407 -14.686694 -1.834365
USER    NEWDPF axisangle0	-0.061373 0.807937 -0.586064 -101.744584
USER    NEWDPF quaternion0	-0.047610 0.626750 -0.454634 -0.631051
USER    NEWDPF dihe0	-134.18 16.73 -2.93 -42.95 -31.24 152.12 -165.10 -151.08 -116.91 84.25 
USER  
USER                              x       y       z    vdW   Elec        q     RMS 
ATOM      1  C   UNL     1      28.115 -15.735  -0.989 -0.28 -0.00    +0.000    22.575
ATOM      2  C   UNL     1      27.902 -14.643   0.019 -0.22 -0.00    +0.000    22.575
ATOM      3  C   UNL     1      27.434 -13.385  -0.391 -0.18 -0.00    +0.000    22.575
ATOM      4  C   UNL     1      27.270 -12.354   0.538 -0.19 -0.00    +0.000    22.575
ATOM      5  C   UNL     1      27.585 -12.563   1.888 -0.23 -0.00    +0.000    22.575
ATOM      6  C   UNL     1      27.424 -11.533   2.828 -0.26 +0.00    +0.000    22.575
ATOM      7  C   UNL     1      27.746 -11.746   4.178 -0.29 +0.00    +0.000    22.575
ATOM      8  C   UNL     1      28.229 -13.000   4.584 -0.37 -0.00    +0.000    22.575
ATOM      9  C   UNL     1      28.393 -14.031   3.656 -0.39 -0.00    +0.000    22.575
ATOM     10  C   UNL     1      28.074 -13.824   2.306 -0.27 -0.00    +0.000    22.575
ATOM     11  C   UNL     1      28.234 -14.853   1.367 -0.11 -0.00    +0.000    22.575
ATOM     12  C   UNL     1      27.557 -10.651   5.194 -0.36 +0.00    +0.000    22.575
ATOM     13  N   UNL     1      28.832  -9.935   5.413 -0.23 +0.00    +0.000    22.575
ATOM     14  H   UNL     1      29.568 -10.439   4.917 +0.00 +0.00    +0.000    22.575
ATOM     15  C   UNL     1      29.226  -9.957   6.841 -0.27 +0.00    +0.000    22.575
ATOM     16  C   UNL     1      28.769 -11.238   7.539 -0.35 +0.00    +0.000    22.575
ATOM     17  C   UNL     1      28.823  -8.580   4.805 -0.18 +0.00    +0.000    22.575
ATOM     18  C   UNL     1      28.171  -7.500   5.679 -0.21 +0.00    +0.000    22.575
ATOM     19  O   UNL     1      27.253 -15.521  -2.101 -0.30 -0.00    +0.000    22.575
ATOM     20  O   UNL     1      25.518 -16.372  -3.361 -0.60 -0.00    +0.000    22.575
ATOM     21  C   UNL     1      26.008 -16.144  -2.221 -0.51 -0.00    +0.000    22.575
ATOM     22  N   UNL     1      25.281 -16.482  -1.032 -0.51 -0.00    +0.000    22.575
ATOM     23  H   UNL     1      25.624 -16.145  -0.173 -0.02 -0.00    +0.000    22.575
ATOM     24  C   UNL     1      24.085 -17.279  -1.011 -0.64 -0.00    +0.000    22.575
ATOM     25  C   UNL     1      24.048 -18.480  -1.732 -0.47 -0.00    +0.000    22.575
ATOM     26  C   UNL     1      22.890 -19.264  -1.747 -0.43 -0.00    +0.000    22.575
ATOM     27  C   UNL     1      21.742 -18.857  -1.047 -0.74 -0.00    +0.000    22.575
ATOM     28  C   UNL     1      21.769 -17.633  -0.353 -0.58 -0.00    +0.000    22.575
ATOM     29  C   UNL     1      22.928 -16.851  -0.338 -0.31 -0.00    +0.000    22.575
ATOM     30  C   UNL     1      20.519 -19.697  -1.075 -0.86 -0.00    +0.000    22.575
ATOM     31  N   UNL     1      19.881 -20.128   0.133 -0.74 -0.00    +0.000    22.575
ATOM     32  O   UNL     1      20.036 -20.053  -2.184 -1.82 -0.00    +0.000    22.575
ATOM     33  H   UNL     1      20.296 -19.931   1.004 -0.11 -0.00    +0.000    22.575
ATOM     34  O   UNL     1      18.711 -20.808   0.082 -0.75 -0.00    +0.000    22.575
ATOM     35  H   UNL     1      18.417 -20.878  -0.841 -0.35 -0.00    +0.000    22.575
TER
ENDMDL
MODEL       85
USER    Run = 85
USER    Cluster Rank = 8
USER    Number of conformations in this cluster = 2
USER  
USER    RMSD from reference structure       = 25.796 A
USER  
USER    Estimated Free Energy of Binding    =  -11.08 kcal/mol  [=(1)+(2)+(3)-(4)]
USER    Estimated Inhibition Constant, Ki   =    7.59 nM (nanomolar)  [Temperature = 298.15 K]
USER    
USER    (1) Final Intermolecular Energy     =  -14.06 kcal/mol
USER        vdW + Hbond + desolv Energy     =  -14.06 kcal/mol
USER        Electrostatic Energy            =   +0.00 kcal/mol
USER    (2) Final Total Internal Energy     =   -2.02 kcal/mol
USER    (3) Torsional Free Energy           =   +2.98 kcal/mol
USER    (4) Unbound System's Energy  [=(2)] =   -2.02 kcal/mol
USER    
USER    
USER  
USER    DPF = ligand_dock.biased.dpf
USER    NEWDPF move	ligand.pdbqt
USER    NEWDPF about	1.857000 0.216000 -0.019000
USER    NEWDPF tran0	27.995365 -15.971876 -3.008130
USER    NEWDPF axisangle0	0.259028 0.738778 0.622183 150.164653
USER    NEWDPF quaternion0	0.250298 0.713878 0.601214 0.257431
USER    NEWDPF dihe0	-153.74 120.66 10.71 173.72 -69.21 -172.69 -97.43 2.42 84.23 55.37 
USER  
USER                              x       y       z    vdW   Elec        q     RMS 
ATOM      1  C   UNL     1      27.577 -14.591  -3.808 -0.31 -0.00    +0.000    25.796
ATOM      2  C   UNL     1      28.580 -15.191  -4.750 -0.29 -0.00    +0.000    25.796
ATOM      3  C   UNL     1      28.973 -14.492  -5.901 -0.30 -0.00    +0.000    25.796
ATOM      4  C   UNL     1      29.879 -15.062  -6.801 -0.29 -0.00    +0.000    25.796
ATOM      5  C   UNL     1      30.392 -16.345  -6.568 -0.30 -0.00    +0.000    25.796
ATOM      6  C   UNL     1      31.301 -16.926  -7.466 -0.26 -0.00    +0.000    25.796
ATOM      7  C   UNL     1      31.808 -18.214  -7.229 -0.20 -0.00    +0.000    25.796
ATOM      8  C   UNL     1      31.402 -18.918  -6.085 -0.23 -0.00    +0.000    25.796
ATOM      9  C   UNL     1      30.497 -18.349  -5.186 -0.29 -0.00    +0.000    25.796
ATOM     10  C   UNL     1      29.987 -17.063  -5.417 -0.30 -0.00    +0.000    25.796
ATOM     11  C   UNL     1      29.079 -16.482  -4.519 -0.16 -0.00    +0.000    25.796
ATOM     12  C   UNL     1      32.799 -18.835  -8.179 -0.12 -0.00    +0.000    25.796
ATOM     13  N   UNL     1      32.196 -18.974  -9.522 -0.20 -0.00    +0.000    25.796
ATOM     14  H   UNL     1      32.631 -19.774  -9.983 +0.00 -0.00    +0.000    25.796
ATOM     15  C   UNL     1      32.505 -17.804 -10.378 -0.22 -0.00    +0.000    25.796
ATOM     16  C   UNL     1      33.598 -16.926  -9.769 -0.13 -0.00    +0.000    25.796
ATOM     17  C   UNL     1      30.752 -19.313  -9.453 -0.42 -0.00    +0.000    25.796
ATOM     18  C   UNL     1      30.116 -19.646 -10.810 -0.34 -0.00    +0.000    25.796
ATOM     19  O   UNL     1      27.258 -15.540  -2.796 -0.33 -0.00    +0.000    25.796
ATOM     20  O   UNL     1      24.990 -15.498  -3.216 -0.56 -0.00    +0.000    25.796
ATOM     21  C   UNL     1      25.949 -15.949  -2.531 -0.52 -0.00    +0.000    25.796
ATOM     22  N   UNL     1      25.708 -16.854  -1.445 -0.52 -0.00    +0.000    25.796
ATOM     23  H   UNL     1      26.458 -17.055  -0.840 -0.02 -0.00    +0.000    25.796
ATOM     24  C   UNL     1      24.445 -17.488  -1.182 -0.64 -0.00    +0.000    25.796
ATOM     25  C   UNL     1      24.338 -18.881  -1.292 -0.25 -0.00    +0.000    25.796
ATOM     26  C   UNL     1      23.117 -19.520  -1.064 -0.49 -0.00    +0.000    25.796
ATOM     27  C   UNL     1      21.972 -18.778  -0.728 -0.76 -0.00    +0.000    25.796
ATOM     28  C   UNL     1      22.072 -17.376  -0.653 -0.64 -0.00    +0.000    25.796
ATOM     29  C   UNL     1      23.295 -16.738  -0.881 -0.39 -0.00    +0.000    25.796
ATOM     30  C   UNL     1      20.681 -19.470  -0.492 -0.88 -0.00    +0.000    25.796
ATOM     31  N   UNL     1      20.324 -19.963   0.805 -0.68 -0.00    +0.000    25.796
ATOM     32  O   UNL     1      19.885 -19.642  -1.454 -1.66 -0.00    +0.000    25.796
ATOM     33  H   UNL     1      20.972 -19.912   1.544 -0.51 -0.00    +0.000    25.796
ATOM     34  O   UNL     1      19.099 -20.499   1.017 -0.77 -0.00    +0.000    25.796
ATOM     35  H   UNL     1      18.651 -20.630   0.166 -0.07 -0.00    +0.000    25.796
TER
ENDMDL
MODEL        9
USER    Run = 9
USER    Cluster Rank = 9
USER    Number of conformations in this cluster = 1
USER  
USER    RMSD from reference structure       = 24.130 A
USER  
USER    Estimated Free Energy of Binding    =  -11.05 kcal/mol  [=(1)+(2)+(3)-(4)]
USER    Estimated Inhibition Constant, Ki   =    7.96 nM (nanomolar)  [Temperature = 298.15 K]
USER    
USER    (1) Final Intermolecular Energy     =  -14.03 kcal/mol
USER        vdW + Hbond + desolv Energy     =  -14.03 kcal/mol
USER        Electrostatic Energy            =   +0.00 kcal/mol
USER    (2) Final Total Internal Energy     =   -1.78 kcal/mol
USER    (3) Torsional Free Energy           =   +2.98 kcal/mol
USER    (4) Unbound System's Energy  [=(2)] =   -1.78 kcal/mol
USER    
USER    
USER  
USER    DPF = ligand_dock.biased.dpf
USER    NEWDPF move	ligand.pdbqt
USER    NEWDPF about	1.857000 0.216000 -0.019000
USER    NEWDPF tran0	24.710056 -17.242674 -2.095768
USER    NEWDPF axisangle0	0.193528 0.136925 0.971493 172.909280
USER    NEWDPF quaternion0	0.193157 0.136663 0.969634 0.061839
USER    NEWDPF dihe0	130.27 173.43 -5.06 -73.87 89.94 -96.07 -24.84 -14.28 159.73 -35.65 
USER  
USER                              x       y       z    vdW   Elec        q     RMS 
ATOM      1  C   UNL     1      25.281 -16.173  -0.977 -0.52 -0.00    +0.000    24.130
ATOM      2  C   UNL     1      26.363 -16.126  -2.017 -0.42 -0.00    +0.000    24.130
ATOM      3  C   UNL     1      27.550 -16.851  -1.833 -0.31 -0.00    +0.000    24.130
ATOM      4  C   UNL     1      28.576 -16.780  -2.781 -0.15 -0.00    +0.000    24.130
ATOM      5  C   UNL     1      28.433 -15.973  -3.918 -0.23 -0.00    +0.000    24.130
ATOM      6  C   UNL     1      29.458 -15.895  -4.873 -0.26 -0.00    +0.000    24.130
ATOM      7  C   UNL     1      29.310 -15.081  -6.008 -0.31 -0.00    +0.000    24.130
ATOM      8  C   UNL     1      28.129 -14.344  -6.182 -0.30 -0.00    +0.000    24.130
ATOM      9  C   UNL     1      27.104 -14.414  -5.235 -0.32 -0.00    +0.000    24.130
ATOM     10  C   UNL     1      27.244 -15.226  -4.100 -0.39 -0.00    +0.000    24.130
ATOM     11  C   UNL     1      26.220 -15.303  -3.145 -0.44 -0.00    +0.000    24.130
ATOM     12  C   UNL     1      30.398 -15.009  -7.047 -0.29 -0.00    +0.000    24.130
ATOM     13  N   UNL     1      31.347 -16.129  -6.868 -0.21 -0.00    +0.000    24.130
ATOM     14  H   UNL     1      31.479 -16.276  -5.867 +0.00 -0.00    +0.000    24.130
ATOM     15  C   UNL     1      32.688 -15.793  -7.402 -0.11 -0.00    +0.000    24.130
ATOM     16  C   UNL     1      32.656 -15.556  -8.912 -0.18 -0.00    +0.000    24.130
ATOM     17  C   UNL     1      30.796 -17.412  -7.371 -0.34 -0.00    +0.000    24.130
ATOM     18  C   UNL     1      30.675 -18.510  -6.305 -0.37 -0.00    +0.000    24.130
ATOM     19  O   UNL     1      24.171 -16.903  -1.488 -0.68 -0.00    +0.000    24.130
ATOM     20  O   UNL     1      23.780 -18.084   0.454 -0.70 -0.00    +0.000    24.130
ATOM     21  C   UNL     1      23.378 -17.728  -0.687 -0.79 -0.00    +0.000    24.130
ATOM     22  N   UNL     1      22.122 -18.197  -1.198 -0.68 -0.00    +0.000    24.130
ATOM     23  H   UNL     1      21.921 -18.028  -2.147 +0.11 -0.00    +0.000    24.130
ATOM     24  C   UNL     1      21.139 -18.897  -0.417 -0.75 -0.00    +0.000    24.130
ATOM     25  C   UNL     1      20.020 -19.448  -1.055 -0.78 -0.00    +0.000    24.130
ATOM     26  C   UNL     1      19.038 -20.114  -0.316 -0.62 -0.00    +0.000    24.130
ATOM     27  C   UNL     1      19.151 -20.236   1.079 -0.68 -0.00    +0.000    24.130
ATOM     28  C   UNL     1      20.257 -19.650   1.722 -0.47 -0.00    +0.000    24.130
ATOM     29  C   UNL     1      21.239 -18.985   0.982 -0.03 -0.00    +0.000    24.130
ATOM     30  C   UNL     1      18.099 -20.942   1.851 -0.73 -0.00    +0.000    24.130
ATOM     31  N   UNL     1      17.249 -20.242   2.767 -0.55 -0.00    +0.000    24.130
ATOM     32  O   UNL     1      17.956 -22.187   1.710 -0.62 -0.00    +0.000    24.130
ATOM     33  H   UNL     1      17.406 -19.288   2.951 -0.08 +0.00    +0.000    24.130
ATOM     34  O   UNL     1      16.231 -20.889   3.383 -0.79 -0.00    +0.000    24.130
ATOM     35  H   UNL     1      16.164 -21.793   3.035 -0.06 -0.00    +0.000    24.130
TER
ENDMDL
MODEL       46
USER    Run = 46
USER    Cluster Rank = 10
USER    Number of conformations in this cluster = 1
USER  
USER    RMSD from reference structure       = 27.185 A
USER  
USER    Estimated Free Energy of Binding    =  -11.02 kcal/mol  [=(1)+(2)+(3)-(4)]
USER    Estimated Inhibition Constant, Ki   =    8.31 nM (nanomolar)  [Temperature = 298.15 K]
USER    
USER    (1) Final Intermolecular Energy     =  -14.01 kcal/mol
USER        vdW + Hbond + desolv Energy     =  -14.01 kcal/mol
USER        Electrostatic Energy            =   +0.00 kcal/mol
USER    (2) Final Total Internal Energy     =   -2.20 kcal/mol
USER    (3) Torsional Free Energy           =   +2.98 kcal/mol
USER    (4) Unbound System's Energy  [=(2)] =   -2.20 kcal/mol
USER    
USER    
USER  
USER    DPF = ligand_dock.biased.dpf
USER    NEWDPF move	ligand.pdbqt
USER    NEWDPF about	1.857000 0.216000 -0.019000
USER    NEWDPF tran0	29.704019 -17.286308 -0.923876
USER    NEWDPF axisangle0	0.532856 0.594230 0.602458 -179.260006
USER    NEWDPF quaternion0	0.532845 0.594218 0.602445 -0.006458
USER    NEWDPF dihe0	179.86 -134.18 9.96 -36.54 104.21 -137.93 12.26 -54.82 -143.01 94.00 
USER  
USER                              x       y       z    vdW   Elec        q     RMS 
ATOM      1  C   UNL     1      30.343 -16.127  -1.909 -0.13 -0.00    +0.000    27.185
ATOM      2  C   UNL     1      30.541 -17.365  -2.735 -0.16 -0.00    +0.000    27.185
ATOM      3  C   UNL     1      30.997 -18.549  -2.134 -0.14 -0.00    +0.000    27.185
ATOM      4  C   UNL     1      31.219 -19.694  -2.905 -0.05 -0.00    +0.000    27.185
ATOM      5  C   UNL     1      31.001 -19.666  -4.289 -0.13 -0.00    +0.000    27.185
ATOM      6  C   UNL     1      31.223 -20.810  -5.071 -0.26 -0.00    +0.000    27.185
ATOM      7  C   UNL     1      31.008 -20.775  -6.458 -0.33 -0.00    +0.000    27.185
ATOM      8  C   UNL     1      30.567 -19.587  -7.060 -0.39 -0.00    +0.000    27.185
ATOM      9  C   UNL     1      30.345 -18.442  -6.290 -0.34 -0.00    +0.000    27.185
ATOM     10  C   UNL     1      30.558 -18.471  -4.904 -0.26 -0.00    +0.000    27.185
ATOM     11  C   UNL     1      30.337 -17.327  -4.123 -0.22 -0.00    +0.000    27.185
ATOM     12  C   UNL     1      31.225 -22.006  -7.299 -0.26 -0.00    +0.000    27.185
ATOM     13  N   UNL     1      32.216 -22.894  -6.654 -0.14 -0.00    +0.000    27.185
ATOM     14  H   UNL     1      32.535 -22.443  -5.797 +0.00 -0.00    +0.000    27.185
ATOM     15  C   UNL     1      33.427 -23.052  -7.495 -0.06 -0.00    +0.000    27.185
ATOM     16  C   UNL     1      33.200 -22.551  -8.921 -0.08 -0.00    +0.000    27.185
ATOM     17  C   UNL     1      31.613 -24.175  -6.210 -0.17 -0.00    +0.000    27.185
ATOM     18  C   UNL     1      30.605 -24.033  -5.061 -0.24 -0.00    +0.000    27.185
ATOM     19  O   UNL     1      29.517 -16.436  -0.791 -0.24 -0.00    +0.000    27.185
ATOM     20  O   UNL     1      27.519 -15.370  -1.232 -0.26 -0.00    +0.000    27.185
ATOM     21  C   UNL     1      28.122 -16.412  -0.856 -0.34 -0.00    +0.000    27.185
ATOM     22  N   UNL     1      27.386 -17.575  -0.449 -0.47 -0.00    +0.000    27.185
ATOM     23  H   UNL     1      27.884 -18.304  -0.014 -0.48 -0.00    +0.000    27.185
ATOM     24  C   UNL     1      25.971 -17.745  -0.634 -0.57 -0.00    +0.000    27.185
ATOM     25  C   UNL     1      25.195 -18.248   0.418 -0.36 -0.00    +0.000    27.185
ATOM     26  C   UNL     1      23.821 -18.445   0.258 -0.38 -0.00    +0.000    27.185
ATOM     27  C   UNL     1      23.193 -18.147  -0.964 -0.72 -0.00    +0.000    27.185
ATOM     28  C   UNL     1      23.980 -17.675  -2.032 -0.23 -0.00    +0.000    27.185
ATOM     29  C   UNL     1      25.355 -17.479  -1.869 -0.48 -0.00    +0.000    27.185
ATOM     30  C   UNL     1      21.734 -18.363  -1.122 -0.68 -0.00    +0.000    27.185
ATOM     31  N   UNL     1      21.218 -19.543  -1.751 -0.62 -0.00    +0.000    27.185
ATOM     32  O   UNL     1      20.928 -17.487  -0.707 -2.08 -0.00    +0.000    27.185
ATOM     33  H   UNL     1      21.836 -20.193  -2.155 -0.54 -0.00    +0.000    27.185
ATOM     34  O   UNL     1      19.883 -19.765  -1.792 -1.86 -0.00    +0.000    27.185
ATOM     35  H   UNL     1      19.412 -18.969  -1.496 -0.33 -0.00    +0.000    27.185
TER
ENDMDL
MODEL       86
USER    Run = 86
USER    Cluster Rank = 11
USER    Number of conformations in this cluster = 1
USER  
USER    RMSD from reference structure       = 25.370 A
USER  
USER    Estimated Free Energy of Binding    =  -10.75 kcal/mol  [=(1)+(2)+(3)-(4)]
USER    Estimated Inhibition Constant, Ki   =   13.14 nM (nanomolar)  [Temperature = 298.15 K]
USER    
USER    (1) Final Intermolecular Energy     =  -13.74 kcal/mol
USER        vdW + Hbond + desolv Energy     =  -13.74 kcal/mol
USER        Electrostatic Energy            =   +0.00 kcal/mol
USER    (2) Final Total Internal Energy     =   -2.01 kcal/mol
USER    (3) Torsional Free Energy           =   +2.98 kcal/mol
USER    (4) Unbound System's Energy  [=(2)] =   -2.01 kcal/mol
USER    
USER    
USER  
USER    DPF = ligand_dock.biased.dpf
USER    NEWDPF move	ligand.pdbqt
USER    NEWDPF about	1.857000 0.216000 -0.019000
USER    NEWDPF tran0	29.022216 -16.221932 -2.066346
USER    NEWDPF axisangle0	-0.553231 0.448169 -0.702196 138.750182
USER    NEWDPF quaternion0	-0.517773 0.419444 -0.657190 0.352249
USER    NEWDPF dihe0	-107.54 170.00 9.86 -135.12 177.17 -39.04 -108.20 -70.73 -165.82 -102.05 
USER  
USER                              x       y       z    vdW   Elec        q     RMS 
ATOM      1  C   UNL     1      30.223 -17.346  -1.930 -0.21 -0.00    +0.000    25.370
ATOM      2  C   UNL     1      30.422 -16.863  -3.338 -0.16 -0.00    +0.000    25.370
ATOM      3  C   UNL     1      29.439 -17.102  -4.311 -0.10 -0.00    +0.000    25.370
ATOM      4  C   UNL     1      29.637 -16.688  -5.632 -0.29 -0.00    +0.000    25.370
ATOM      5  C   UNL     1      30.825 -16.042  -5.999 -0.21 -0.00    +0.000    25.370
ATOM      6  C   UNL     1      31.032 -15.624  -7.323 -0.24 -0.00    +0.000    25.370
ATOM      7  C   UNL     1      32.227 -14.982  -7.686 -0.13 -0.00    +0.000    25.370
ATOM      8  C   UNL     1      33.215 -14.758  -6.715 -0.03 -0.00    +0.000    25.370
ATOM      9  C   UNL     1      33.019 -15.172  -5.395 -0.02 -0.00    +0.000    25.370
ATOM     10  C   UNL     1      31.827 -15.814  -5.026 -0.06 -0.00    +0.000    25.370
ATOM     11  C   UNL     1      31.620 -16.231  -3.703 -0.06 -0.00    +0.000    25.370
ATOM     12  C   UNL     1      32.446 -14.513  -9.100 -0.16 -0.00    +0.000    25.370
ATOM     13  N   UNL     1      31.604 -13.330  -9.380 -0.13 -0.00    +0.000    25.370
ATOM     14  H   UNL     1      30.781 -13.641  -9.895 -0.51 -0.00    +0.000    25.370
ATOM     15  C   UNL     1      32.296 -12.374 -10.277 -0.13 -0.00    +0.000    25.370
ATOM     16  C   UNL     1      32.676 -13.017 -11.611 -0.15 -0.00    +0.000    25.370
ATOM     17  C   UNL     1      31.069 -12.719  -8.138 -0.14 -0.00    +0.000    25.370
ATOM     18  C   UNL     1      29.539 -12.612  -8.095 -0.22 -0.00    +0.000    25.370
ATOM     19  O   UNL     1      29.284 -16.501  -1.273 -0.24 -0.00    +0.000    25.370
ATOM     20  O   UNL     1      27.398 -16.221  -2.572 -0.36 -0.00    +0.000    25.370
ATOM     21  C   UNL     1      27.906 -16.600  -1.481 -0.37 -0.00    +0.000    25.370
ATOM     22  N   UNL     1      27.075 -17.097  -0.423 -0.46 -0.00    +0.000    25.370
ATOM     23  H   UNL     1      27.488 -17.229   0.461 -0.18 -0.00    +0.000    25.370
ATOM     24  C   UNL     1      25.681 -17.415  -0.567 -0.56 -0.00    +0.000    25.370
ATOM     25  C   UNL     1      25.286 -18.757  -0.646 -0.37 -0.00    +0.000    25.370
ATOM     26  C   UNL     1      23.940 -19.094  -0.810 -0.54 -0.00    +0.000    25.370
ATOM     27  C   UNL     1      22.958 -18.092  -0.905 -0.73 -0.00    +0.000    25.370
ATOM     28  C   UNL     1      23.360 -16.744  -0.861 -0.41 -0.00    +0.000    25.370
ATOM     29  C   UNL     1      24.708 -16.410  -0.697 -0.39 -0.00    +0.000    25.370
ATOM     30  C   UNL     1      21.534 -18.464  -1.081 -0.76 -0.00    +0.000    25.370
ATOM     31  N   UNL     1      21.155 -19.710  -1.681 -0.63 -0.00    +0.000    25.370
ATOM     32  O   UNL     1      20.632 -17.664  -0.710 -2.21 +0.00    +0.000    25.370
ATOM     33  H   UNL     1      21.846 -20.304  -2.053 -0.49 -0.00    +0.000    25.370
ATOM     34  O   UNL     1      19.852 -20.071  -1.739 -1.69 -0.00    +0.000    25.370
ATOM     35  H   UNL     1      19.295 -19.320  -1.476 -0.38 -0.00    +0.000    25.370
TER
ENDMDL
MODEL       61
USER    Run = 61
USER    Cluster Rank = 12
USER    Number of conformations in this cluster = 3
USER  
USER    RMSD from reference structure       = 27.084 A
USER  
USER    Estimated Free Energy of Binding    =  -10.71 kcal/mol  [=(1)+(2)+(3)-(4)]
USER    Estimated Inhibition Constant, Ki   =   14.07 nM (nanomolar)  [Temperature = 298.15 K]
USER    
USER    (1) Final Intermolecular Energy     =  -13.69 kcal/mol
USER        vdW + Hbond + desolv Energy     =  -13.69 kcal/mol
USER        Electrostatic Energy            =   +0.00 kcal/mol
USER    (2) Final Total Internal Energy     =   -1.77 kcal/mol
USER    (3) Torsional Free Energy           =   +2.98 kcal/mol
USER    (4) Unbound System's Energy  [=(2)] =   -1.77 kcal/mol
USER    
USER    
USER  
USER    DPF = ligand_dock.biased.dpf
USER    NEWDPF move	ligand.pdbqt
USER    NEWDPF about	1.857000 0.216000 -0.019000
USER    NEWDPF tran0	29.952502 -15.819626 -3.352425
USER    NEWDPF axisangle0	0.502350 0.798848 0.330887 -157.131426
USER    NEWDPF quaternion0	0.492380 0.782993 0.324319 -0.198244
USER    NEWDPF dihe0	107.03 130.08 -170.66 21.34 -180.00 16.48 103.99 -49.32 -152.92 117.87 
USER  
USER                              x       y       z    vdW   Elec        q     RMS 
ATOM      1  C   UNL     1      30.551 -15.690  -4.884 -0.17 -0.00    +0.000    27.084
ATOM      2  C   UNL     1      30.764 -17.149  -4.602 -0.20 -0.00    +0.000    27.084
ATOM      3  C   UNL     1      31.444 -17.551  -3.442 -0.12 -0.00    +0.000    27.084
ATOM      4  C   UNL     1      31.678 -18.906  -3.193 -0.13 -0.00    +0.000    27.084
ATOM      5  C   UNL     1      31.247 -19.877  -4.108 -0.17 -0.00    +0.000    27.084
ATOM      6  C   UNL     1      31.478 -21.240  -3.867 -0.17 -0.00    +0.000    27.084
ATOM      7  C   UNL     1      31.048 -22.207  -4.790 -0.25 -0.00    +0.000    27.084
ATOM      8  C   UNL     1      30.382 -21.802  -5.957 -0.20 -0.00    +0.000    27.084
ATOM      9  C   UNL     1      30.149 -20.448  -6.206 -0.41 -0.00    +0.000    27.084
ATOM     10  C   UNL     1      30.575 -19.477  -5.288 -0.31 -0.00    +0.000    27.084
ATOM     11  C   UNL     1      30.344 -18.115  -5.529 -0.31 -0.00    +0.000    27.084
ATOM     12  C   UNL     1      31.276 -23.673  -4.527 -0.19 -0.00    +0.000    27.084
ATOM     13  N   UNL     1      30.006 -24.418  -4.665 -0.27 -0.00    +0.000    27.084
ATOM     14  H   UNL     1      29.634 -24.238  -5.598 -0.48 -0.00    +0.000    27.084
ATOM     15  C   UNL     1      28.979 -23.914  -3.722 -0.34 -0.00    +0.000    27.084
ATOM     16  C   UNL     1      29.076 -24.595  -2.357 -0.40 -0.00    +0.000    27.084
ATOM     17  C   UNL     1      30.212 -25.887  -4.613 -0.20 -0.00    +0.000    27.084
ATOM     18  C   UNL     1      29.032 -26.709  -5.146 -0.32 -0.00    +0.000    27.084
ATOM     19  O   UNL     1      29.749 -15.124  -3.853 -0.14 -0.00    +0.000    27.084
ATOM     20  O   UNL     1      27.605 -15.630  -4.537 -0.55 -0.00    +0.000    27.084
ATOM     21  C   UNL     1      28.442 -15.547  -3.598 -0.28 -0.00    +0.000    27.084
ATOM     22  N   UNL     1      28.057 -15.842  -2.248 -0.25 -0.00    +0.000    27.084
ATOM     23  H   UNL     1      28.689 -15.613  -1.529 +0.00 -0.00    +0.000    27.084
ATOM     24  C   UNL     1      26.810 -16.453  -1.875 -0.38 -0.00    +0.000    27.084
ATOM     25  C   UNL     1      25.624 -16.018  -2.482 -0.49 -0.00    +0.000    27.084
ATOM     26  C   UNL     1      24.395 -16.578  -2.123 -0.21 -0.00    +0.000    27.084
ATOM     27  C   UNL     1      24.326 -17.582  -1.141 -0.66 -0.00    +0.000    27.084
ATOM     28  C   UNL     1      25.513 -17.992  -0.507 -0.61 -0.00    +0.000    27.084
ATOM     29  C   UNL     1      26.742 -17.430  -0.869 -0.48 -0.00    +0.000    27.084
ATOM     30  C   UNL     1      23.014 -18.165  -0.767 -0.83 -0.00    +0.000    27.084
ATOM     31  N   UNL     1      21.790 -17.456  -0.993 -0.62 -0.00    +0.000    27.084
ATOM     32  O   UNL     1      22.972 -19.303  -0.225 -0.73 -0.00    +0.000    27.084
ATOM     33  H   UNL     1      21.814 -16.533  -1.335 -0.03 -0.00    +0.000    27.084
ATOM     34  O   UNL     1      20.600 -18.050  -0.737 -2.27 -0.00    +0.000    27.084
ATOM     35  H   UNL     1      19.881 -17.495  -1.079 -0.54 -0.00    +0.000    27.084
TER
ENDMDL
MODEL       80
USER    Run = 80
USER    Cluster Rank = 13
USER    Number of conformations in this cluster = 1
USER  
USER    RMSD from reference structure       = 21.206 A
USER  
USER    Estimated Free Energy of Binding    =  -10.39 kcal/mol  [=(1)+(2)+(3)-(4)]
USER    Estimated Inhibition Constant, Ki   =   24.34 nM (nanomolar)  [Temperature = 298.15 K]
USER    
USER    (1) Final Intermolecular Energy     =  -13.37 kcal/mol
USER        vdW + Hbond + desolv Energy     =  -13.37 kcal/mol
USER        Electrostatic Energy            =   +0.00 kcal/mol
USER    (2) Final Total Internal Energy     =   -1.70 kcal/mol
USER    (3) Torsional Free Energy           =   +2.98 kcal/mol
USER    (4) Unbound System's Energy  [=(2)] =   -1.70 kcal/mol
USER    
USER    
USER  
USER    DPF = ligand_dock.biased.dpf
USER    NEWDPF move	ligand.pdbqt
USER    NEWDPF about	1.857000 0.216000 -0.019000
USER    NEWDPF tran0	28.506472 -14.331744 -1.499384
USER    NEWDPF axisangle0	0.897211 -0.161171 0.411141 175.444852
USER    NEWDPF quaternion0	0.896502 -0.161043 0.410816 0.039741
USER    NEWDPF dihe0	24.72 -30.42 -149.05 -73.84 -180.00 57.48 -177.53 -81.56 -176.73 -153.35 
USER  
USER                              x       y       z    vdW   Elec        q     RMS 
ATOM      1  C   UNL     1      29.707 -13.756  -2.474 -0.06 -0.00    +0.000    21.206
ATOM      2  C   UNL     1      28.486 -13.170  -3.123 -0.09 -0.00    +0.000    21.206
ATOM      3  C   UNL     1      27.653 -13.975  -3.915 -0.22 -0.00    +0.000    21.206
ATOM      4  C   UNL     1      26.536 -13.425  -4.552 -0.31 -0.00    +0.000    21.206
ATOM      5  C   UNL     1      26.245 -12.061  -4.415 -0.27 -0.00    +0.000    21.206
ATOM      6  C   UNL     1      25.127 -11.500  -5.052 -0.33 -0.00    +0.000    21.206
ATOM      7  C   UNL     1      24.844 -10.132  -4.916 -0.34 -0.00    +0.000    21.206
ATOM      8  C   UNL     1      25.688  -9.325  -4.136 -0.21 -0.00    +0.000    21.206
ATOM      9  C   UNL     1      26.804  -9.873  -3.500 -0.12 -0.00    +0.000    21.206
ATOM     10  C   UNL     1      27.092 -11.240  -3.632 -0.13 -0.00    +0.000    21.206
ATOM     11  C   UNL     1      28.209 -11.800  -2.996 -0.07 -0.00    +0.000    21.206
ATOM     12  C   UNL     1      23.634  -9.529  -5.580 -0.29 -0.00    +0.000    21.206
ATOM     13  N   UNL     1      23.409  -8.156  -5.077 -0.37 -0.00    +0.000    21.206
ATOM     14  H   UNL     1      23.615  -8.148  -4.078 -0.38 -0.00    +0.000    21.206
ATOM     15  C   UNL     1      21.984  -7.765  -5.195 -0.42 -0.00    +0.000    21.206
ATOM     16  C   UNL     1      21.781  -6.272  -4.935 -0.37 -0.00    +0.000    21.206
ATOM     17  C   UNL     1      24.359  -7.182  -5.670 -0.17 -0.00    +0.000    21.206
ATOM     18  C   UNL     1      24.710  -7.456  -7.139 -0.13 -0.00    +0.000    21.206
ATOM     19  O   UNL     1      29.343 -14.331  -1.224 -0.09 -0.00    +0.000    21.206
ATOM     20  O   UNL     1      27.142 -14.021  -0.607 -0.25 -0.00    +0.000    21.206
ATOM     21  C   UNL     1      28.058 -14.812  -0.960 -0.21 -0.00    +0.000    21.206
ATOM     22  N   UNL     1      27.809 -16.222  -1.057 -0.31 -0.00    +0.000    21.206
ATOM     23  H   UNL     1      28.584 -16.817  -1.178 -0.02 -0.00    +0.000    21.206
ATOM     24  C   UNL     1      26.504 -16.821  -0.989 -0.46 -0.00    +0.000    21.206
ATOM     25  C   UNL     1      25.407 -16.143  -1.535 -0.49 -0.00    +0.000    21.206
ATOM     26  C   UNL     1      24.124 -16.693  -1.462 -0.48 -0.00    +0.000    21.206
ATOM     27  C   UNL     1      23.911 -17.932  -0.834 -0.70 -0.00    +0.000    21.206
ATOM     28  C   UNL     1      25.008 -18.595  -0.254 -0.51 -0.00    +0.000    21.206
ATOM     29  C   UNL     1      26.291 -18.043  -0.328 -0.57 -0.00    +0.000    21.206
ATOM     30  C   UNL     1      22.543 -18.501  -0.762 -0.84 -0.00    +0.000    21.206
ATOM     31  N   UNL     1      21.381 -17.670  -0.867 -0.69 -0.00    +0.000    21.206
ATOM     32  O   UNL     1      22.395 -19.742  -0.590 -0.75 -0.00    +0.000    21.206
ATOM     33  H   UNL     1      21.481 -16.692  -0.915 -0.07 -0.00    +0.000    21.206
ATOM     34  O   UNL     1      20.146 -18.224  -0.900 -2.04 -0.00    +0.000    21.206
ATOM     35  H   UNL     1      19.555 -17.667  -1.433 -0.62 -0.00    +0.000    21.206
TER
ENDMDL
MODEL       92
USER    Run = 92
USER    Cluster Rank = 14
USER    Number of conformations in this cluster = 1
USER  
USER    RMSD from reference structure       = 22.345 A
USER  
USER    Estimated Free Energy of Binding    =  -10.24 kcal/mol  [=(1)+(2)+(3)-(4)]
USER    Estimated Inhibition Constant, Ki   =   31.26 nM (nanomolar)  [Temperature = 298.15 K]
USER    
USER    (1) Final Intermolecular Energy     =  -13.22 kcal/mol
USER        vdW + Hbond + desolv Energy     =  -13.22 kcal/mol
USER        Electrostatic Energy            =   +0.00 kcal/mol
USER    (2) Final Total Internal Energy     =   -2.20 kcal/mol
USER    (3) Torsional Free Energy           =   +2.98 kcal/mol
USER    (4) Unbound System's Energy  [=(2)] =   -2.20 kcal/mol
USER    
USER    
USER  
USER    DPF = ligand_dock.biased.dpf
USER    NEWDPF move	ligand.pdbqt
USER    NEWDPF about	1.857000 0.216000 -0.019000
USER    NEWDPF tran0	28.905032 -15.885539 -1.396508
USER    NEWDPF axisangle0	-0.364861 0.655255 -0.661451 -91.185583
USER    NEWDPF quaternion0	-0.260651 0.468104 -0.472531 -0.699753
USER    NEWDPF dihe0	153.43 -130.56 9.10 -42.47 178.78 121.43 -85.20 109.25 -19.61 141.57 
USER  
USER                              x       y       z    vdW   Elec        q     RMS 
ATOM      1  C   UNL     1      29.973 -16.132  -0.163 -0.16 -0.00    +0.000    22.345
ATOM      2  C   UNL     1      29.294 -14.867   0.276 -0.15 -0.00    +0.000    22.345
ATOM      3  C   UNL     1      28.040 -14.920   0.903 -0.20 -0.00    +0.000    22.345
ATOM      4  C   UNL     1      27.387 -13.742   1.280 -0.26 -0.00    +0.000    22.345
ATOM      5  C   UNL     1      27.974 -12.496   1.021 -0.15 -0.00    +0.000    22.345
ATOM      6  C   UNL     1      27.325 -11.309   1.394 -0.21 +0.00    +0.000    22.345
ATOM      7  C   UNL     1      27.916 -10.063   1.128 -0.12 +0.00    +0.000    22.345
ATOM      8  C   UNL     1      29.162 -10.011   0.486 -0.03 -0.00    +0.000    22.345
ATOM      9  C   UNL     1      29.815 -11.187   0.109 -0.02 -0.00    +0.000    22.345
ATOM     10  C   UNL     1      29.231 -12.435   0.372 -0.05 -0.00    +0.000    22.345
ATOM     11  C   UNL     1      29.879 -13.621  -0.000 -0.06 -0.00    +0.000    22.345
ATOM     12  C   UNL     1      27.233  -8.786   1.544 -0.11 +0.00    +0.000    22.345
ATOM     13  N   UNL     1      27.115  -7.872   0.387 -0.14 +0.00    +0.000    22.345
ATOM     14  H   UNL     1      27.635  -8.278  -0.391 +0.00 +0.00    +0.000    22.345
ATOM     15  C   UNL     1      27.762  -6.567   0.661 -0.07 +0.00    +0.000    22.345
ATOM     16  C   UNL     1      27.496  -6.088   2.088 -0.11 +0.00    +0.000    22.345
ATOM     17  C   UNL     1      25.717  -7.768  -0.101 -0.26 +0.00    +0.000    22.345
ATOM     18  C   UNL     1      25.141  -9.080  -0.651 -0.24 +0.00    +0.000    22.345
ATOM     19  O   UNL     1      29.275 -16.676  -1.278 -0.26 -0.00    +0.000    22.345
ATOM     20  O   UNL     1      27.322 -15.879  -2.213 -0.33 -0.00    +0.000    22.345
ATOM     21  C   UNL     1      27.882 -16.647  -1.383 -0.38 -0.00    +0.000    22.345
ATOM     22  N   UNL     1      27.101 -17.471  -0.507 -0.49 -0.00    +0.000    22.345
ATOM     23  H   UNL     1      27.567 -17.931   0.228 -0.35 -0.00    +0.000    22.345
ATOM     24  C   UNL     1      25.682 -17.669  -0.631 -0.59 -0.00    +0.000    22.345
ATOM     25  C   UNL     1      25.171 -18.972  -0.679 -0.18 -0.00    +0.000    22.345
ATOM     26  C   UNL     1      23.799 -19.193  -0.822 -0.52 -0.00    +0.000    22.345
ATOM     27  C   UNL     1      22.907 -18.112  -0.926 -0.73 -0.00    +0.000    22.345
ATOM     28  C   UNL     1      23.425 -16.804  -0.914 -0.45 -0.00    +0.000    22.345
ATOM     29  C   UNL     1      24.799 -16.585  -0.771 -0.48 -0.00    +0.000    22.345
ATOM     30  C   UNL     1      21.453 -18.361  -1.081 -0.73 -0.00    +0.000    22.345
ATOM     31  N   UNL     1      20.960 -19.594  -1.620 -0.74 -0.00    +0.000    22.345
ATOM     32  O   UNL     1      20.630 -17.467  -0.745 -2.05 +0.00    +0.000    22.345
ATOM     33  H   UNL     1      21.592 -20.265  -1.966 -0.48 -0.00    +0.000    22.345
ATOM     34  O   UNL     1      19.629 -19.839  -1.657 -1.62 -0.00    +0.000    22.345
ATOM     35  H   UNL     1      19.144 -19.032  -1.417 -0.52 -0.00    +0.000    22.345
TER
ENDMDL
MODEL       11
USER    Run = 11
USER    Cluster Rank = 15
USER    Number of conformations in this cluster = 1
USER  
USER    RMSD from reference structure       = 22.447 A
USER  
USER    Estimated Free Energy of Binding    =   -9.80 kcal/mol  [=(1)+(2)+(3)-(4)]
USER    Estimated Inhibition Constant, Ki   =   65.42 nM (nanomolar)  [Temperature = 298.15 K]
USER    
USER    (1) Final Intermolecular Energy     =  -12.78 kcal/mol
USER        vdW + Hbond + desolv Energy     =  -12.78 kcal/mol
USER        Electrostatic Energy            =   +0.00 kcal/mol
USER    (2) Final Total Internal Energy     =   -1.73 kcal/mol
USER    (3) Torsional Free Energy           =   +2.98 kcal/mol
USER    (4) Unbound System's Energy  [=(2)] =   -1.73 kcal/mol
USER    
USER    
USER  
USER    DPF = ligand_dock.biased.dpf
USER    NEWDPF move	ligand.pdbqt
USER    NEWDPF about	1.857000 0.216000 -0.019000
USER    NEWDPF tran0	28.781101 -16.118332 -1.367440
USER    NEWDPF axisangle0	0.747304 -0.519327 0.414531 165.765354
USER    NEWDPF quaternion0	0.741546 -0.515325 0.411337 0.123901
USER    NEWDPF dihe0	-15.87 20.51 -127.81 21.74 149.29 -146.02 -98.92 23.54 -7.30 -126.25 
USER  
USER                              x       y       z    vdW   Elec        q     RMS 
ATOM      1  C   UNL     1      30.305 -16.057  -1.998 -0.13 -0.00    +0.000    22.447
ATOM      2  C   UNL     1      29.808 -14.669  -2.278 -0.07 -0.00    +0.000    22.447
ATOM      3  C   UNL     1      30.057 -13.632  -1.366 -0.03 -0.00    +0.000    22.447
ATOM      4  C   UNL     1      29.564 -12.346  -1.604 -0.03 -0.00    +0.000    22.447
ATOM      5  C   UNL     1      28.804 -12.082  -2.752 -0.05 -0.00    +0.000    22.447
ATOM      6  C   UNL     1      28.305 -10.794  -2.998 -0.05 -0.00    +0.000    22.447
ATOM      7  C   UNL     1      27.539 -10.538  -4.147 -0.09 -0.00    +0.000    22.447
ATOM      8  C   UNL     1      27.277 -11.579  -5.051 -0.16 -0.00    +0.000    22.447
ATOM      9  C   UNL     1      27.769 -12.865  -4.813 -0.18 -0.00    +0.000    22.447
ATOM     10  C   UNL     1      28.534 -13.127  -3.668 -0.10 -0.00    +0.000    22.447
ATOM     11  C   UNL     1      29.034 -14.415  -3.421 -0.12 -0.00    +0.000    22.447
ATOM     12  C   UNL     1      27.017  -9.153  -4.428 -0.09 -0.00    +0.000    22.447
ATOM     13  N   UNL     1      26.672  -8.473  -3.160 -0.10 -0.00    +0.000    22.447
ATOM     14  H   UNL     1      27.505  -8.463  -2.570 +0.00 -0.00    +0.000    22.447
ATOM     15  C   UNL     1      25.654  -9.235  -2.399 -0.17 -0.00    +0.000    22.447
ATOM     16  C   UNL     1      25.794  -9.024  -0.891 -0.26 +0.00    +0.000    22.447
ATOM     17  C   UNL     1      26.334  -7.043  -3.368 -0.08 -0.00    +0.000    22.447
ATOM     18  C   UNL     1      24.858  -6.786  -3.703 -0.16 -0.00    +0.000    22.447
ATOM     19  O   UNL     1      29.382 -16.721  -1.141 -0.26 -0.00    +0.000    22.447
ATOM     20  O   UNL     1      27.620 -16.729  -2.630 -0.35 -0.00    +0.000    22.447
ATOM     21  C   UNL     1      28.021 -16.829  -1.438 -0.37 -0.00    +0.000    22.447
ATOM     22  N   UNL     1      27.086 -17.011  -0.365 -0.45 -0.00    +0.000    22.447
ATOM     23  H   UNL     1      27.422 -16.924   0.556 -0.17 -0.00    +0.000    22.447
ATOM     24  C   UNL     1      25.692 -17.314  -0.547 -0.55 -0.00    +0.000    22.447
ATOM     25  C   UNL     1      25.199 -18.558  -0.132 -0.47 -0.00    +0.000    22.447
ATOM     26  C   UNL     1      23.854 -18.887  -0.317 -0.47 -0.00    +0.000    22.447
ATOM     27  C   UNL     1      22.973 -17.978  -0.928 -0.71 -0.00    +0.000    22.447
ATOM     28  C   UNL     1      23.477 -16.743  -1.377 -0.23 -0.00    +0.000    22.447
ATOM     29  C   UNL     1      24.824 -16.416  -1.190 -0.51 -0.00    +0.000    22.447
ATOM     30  C   UNL     1      21.548 -18.342  -1.121 -0.64 -0.00    +0.000    22.447
ATOM     31  N   UNL     1      21.169 -19.555  -1.783 -0.63 -0.00    +0.000    22.447
ATOM     32  O   UNL     1      20.646 -17.563  -0.708 -2.14 +0.00    +0.000    22.447
ATOM     33  H   UNL     1      21.860 -20.129  -2.186 -0.56 -0.00    +0.000    22.447
ATOM     34  O   UNL     1      19.866 -19.915  -1.856 -1.80 -0.00    +0.000    22.447
ATOM     35  H   UNL     1      19.762 -20.824  -1.533 -0.61 -0.00    +0.000    22.447
TER
ENDMDL
MODEL       17
USER    Run = 17
USER    Cluster Rank = 16
USER    Number of conformations in this cluster = 1
USER  
USER    RMSD from reference structure       = 27.742 A
USER  
USER    Estimated Free Energy of Binding    =   -9.78 kcal/mol  [=(1)+(2)+(3)-(4)]
USER    Estimated Inhibition Constant, Ki   =   68.07 nM (nanomolar)  [Temperature = 298.15 K]
USER    
USER    (1) Final Intermolecular Energy     =  -12.76 kcal/mol
USER        vdW + Hbond + desolv Energy     =  -12.76 kcal/mol
USER        Electrostatic Energy            =   +0.00 kcal/mol
USER    (2) Final Total Internal Energy     =   -1.68 kcal/mol
USER    (3) Torsional Free Energy           =   +2.98 kcal/mol
USER    (4) Unbound System's Energy  [=(2)] =   -1.68 kcal/mol
USER    
USER    
USER  
USER    DPF = ligand_dock.biased.dpf
USER    NEWDPF move	ligand.pdbqt
USER    NEWDPF about	1.857000 0.216000 -0.019000
USER    NEWDPF tran0	30.138806 -17.806011 -0.220797
USER    NEWDPF axisangle0	0.522466 0.649078 0.552926 -145.841431
USER    NEWDPF quaternion0	0.499425 0.620453 0.528542 -0.293695
USER    NEWDPF dihe0	-50.61 109.92 -0.56 -158.16 139.30 178.44 169.46 54.47 35.85 136.12 
USER  
USER                              x       y       z    vdW   Elec        q     RMS 
ATOM      1  C   UNL     1      31.334 -17.369  -1.272 -0.14 -0.00    +0.000    27.742
ATOM      2  C   UNL     1      31.294 -18.857  -1.464 -0.16 -0.00    +0.000    27.742
ATOM      3  C   UNL     1      31.346 -19.404  -2.755 -0.11 -0.00    +0.000    27.742
ATOM      4  C   UNL     1      31.271 -20.787  -2.942 -0.04 -0.00    +0.000    27.742
ATOM      5  C   UNL     1      31.131 -21.642  -1.840 +0.00 -0.00    +0.000    27.742
ATOM      6  C   UNL     1      31.054 -23.032  -2.017 -0.14 -0.00    +0.000    27.742
ATOM      7  C   UNL     1      30.908 -23.882  -0.910 -0.19 -0.00    +0.000    27.742
ATOM      8  C   UNL     1      30.841 -23.334   0.380 -0.25 -0.00    +0.000    27.742
ATOM      9  C   UNL     1      30.914 -21.951   0.567 -0.25 -0.00    +0.000    27.742
ATOM     10  C   UNL     1      31.061 -21.096  -0.535 -0.14 -0.00    +0.000    27.742
ATOM     11  C   UNL     1      31.137 -19.707  -0.357 -0.16 -0.00    +0.000    27.742
ATOM     12  C   UNL     1      30.845 -25.376  -1.093 -0.24 -0.00    +0.000    27.742
ATOM     13  N   UNL     1      29.571 -25.756  -1.740 -0.32 -0.00    +0.000    27.742
ATOM     14  H   UNL     1      29.092 -26.420  -1.131 -0.34 -0.00    +0.000    27.742
ATOM     15  C   UNL     1      29.805 -26.479  -3.012 -0.26 -0.00    +0.000    27.742
ATOM     16  C   UNL     1      29.298 -27.920  -2.951 -0.30 -0.00    +0.000    27.742
ATOM     17  C   UNL     1      28.640 -24.606  -1.855 -0.37 -0.00    +0.000    27.742
ATOM     18  C   UNL     1      27.331 -24.924  -2.593 -0.50 -0.00    +0.000    27.742
ATOM     19  O   UNL     1      30.219 -16.969  -0.482 -0.22 -0.00    +0.000    27.742
ATOM     20  O   UNL     1      28.725 -18.711  -0.713 +0.06 -0.00    +0.000    27.742
ATOM     21  C   UNL     1      28.930 -17.466  -0.689 -0.21 -0.00    +0.000    27.742
ATOM     22  N   UNL     1      27.855 -16.544  -0.916 -0.34 -0.00    +0.000    27.742
ATOM     23  H   UNL     1      28.085 -15.596  -1.048 +0.00 -0.00    +0.000    27.742
ATOM     24  C   UNL     1      26.467 -16.912  -0.963 -0.47 -0.00    +0.000    27.742
ATOM     25  C   UNL     1      26.049 -18.098  -0.346 -0.58 -0.00    +0.000    27.742
ATOM     26  C   UNL     1      24.709 -18.492  -0.396 -0.60 -0.00    +0.000    27.742
ATOM     27  C   UNL     1      23.758 -17.709  -1.072 -0.68 -0.00    +0.000    27.742
ATOM     28  C   UNL     1      24.185 -16.536  -1.723 -0.31 -0.00    +0.000    27.742
ATOM     29  C   UNL     1      25.527 -16.144  -1.671 -0.49 -0.00    +0.000    27.742
ATOM     30  C   UNL     1      22.340 -18.140  -1.120 -0.72 -0.00    +0.000    27.742
ATOM     31  N   UNL     1      21.951 -19.357  -1.769 -0.60 -0.00    +0.000    27.742
ATOM     32  O   UNL     1      21.452 -17.417  -0.592 -1.61 -0.00    +0.000    27.742
ATOM     33  H   UNL     1      22.620 -19.887  -2.259 -0.48 -0.00    +0.000    27.742
ATOM     34  O   UNL     1      20.666 -19.781  -1.711 -1.55 -0.00    +0.000    27.742
ATOM     35  H   UNL     1      20.141 -19.154  -1.187 -0.05 -0.00    +0.000    27.742
TER
ENDMDL
MODEL       83
USER    Run = 83
USER    Cluster Rank = 17
USER    Number of conformations in this cluster = 1
USER  
USER    RMSD from reference structure       = 23.133 A
USER  
USER    Estimated Free Energy of Binding    =   -9.73 kcal/mol  [=(1)+(2)+(3)-(4)]
USER    Estimated Inhibition Constant, Ki   =   73.49 nM (nanomolar)  [Temperature = 298.15 K]
USER    
USER    (1) Final Intermolecular Energy     =  -12.72 kcal/mol
USER        vdW + Hbond + desolv Energy     =  -12.72 kcal/mol
USER        Electrostatic Energy            =   +0.00 kcal/mol
USER    (2) Final Total Internal Energy     =   -1.67 kcal/mol
USER    (3) Torsional Free Energy           =   +2.98 kcal/mol
USER    (4) Unbound System's Energy  [=(2)] =   -1.67 kcal/mol
USER    
USER    
USER  
USER    DPF = ligand_dock.biased.dpf
USER    NEWDPF move	ligand.pdbqt
USER    NEWDPF about	1.857000 0.216000 -0.019000
USER    NEWDPF tran0	29.672101 -15.694127 -3.423804
USER    NEWDPF axisangle0	0.652796 -0.102799 0.750526 120.285497
USER    NEWDPF quaternion0	0.566150 -0.089154 0.650908 0.497841
USER    NEWDPF dihe0	-103.91 -156.27 -126.35 -36.15 138.65 174.89 133.64 73.92 6.96 127.94 
USER  
USER                              x       y       z    vdW   Elec        q     RMS 
ATOM      1  C   UNL     1      30.538 -14.582  -2.565 -0.05 -0.00    +0.000    23.133
ATOM      2  C   UNL     1      29.854 -13.712  -3.580 -0.05 -0.00    +0.000    23.133
ATOM      3  C   UNL     1      28.797 -12.875  -3.194 -0.07 -0.00    +0.000    23.133
ATOM      4  C   UNL     1      28.132 -12.091  -4.142 -0.10 -0.00    +0.000    23.133
ATOM      5  C   UNL     1      28.508 -12.145  -5.491 -0.12 -0.00    +0.000    23.133
ATOM      6  C   UNL     1      27.846 -11.362  -6.450 -0.13 -0.00    +0.000    23.133
ATOM      7  C   UNL     1      28.224 -11.424  -7.801 -0.16 -0.00    +0.000    23.133
ATOM      8  C   UNL     1      29.272 -12.274  -8.188 -0.19 -0.00    +0.000    23.133
ATOM      9  C   UNL     1      29.936 -13.058  -7.241 -0.18 -0.00    +0.000    23.133
ATOM     10  C   UNL     1      29.563 -13.000  -5.890 -0.12 -0.00    +0.000    23.133
ATOM     11  C   UNL     1      30.225 -13.782  -4.932 -0.07 -0.00    +0.000    23.133
ATOM     12  C   UNL     1      27.531 -10.572  -8.831 -0.17 -0.00    +0.000    23.133
ATOM     13  N   UNL     1      26.179 -11.105  -9.105 -0.30 -0.00    +0.000    23.133
ATOM     14  H   UNL     1      26.046 -11.941  -8.535 +0.00 -0.00    +0.000    23.133
ATOM     15  C   UNL     1      26.050 -11.556 -10.511 -0.45 -0.00    +0.000    23.133
ATOM     16  C   UNL     1      27.010 -12.702 -10.831 -0.44 +0.00    +0.000    23.133
ATOM     17  C   UNL     1      25.111 -10.171  -8.666 -0.28 -0.00    +0.000    23.133
ATOM     18  C   UNL     1      24.650 -10.376  -7.217 -0.40 -0.00    +0.000    23.133
ATOM     19  O   UNL     1      29.988 -15.894  -2.627 -0.14 -0.00    +0.000    23.133
ATOM     20  O   UNL     1      27.869 -15.864  -3.538 -0.34 -0.00    +0.000    23.133
ATOM     21  C   UNL     1      28.615 -16.141  -2.559 -0.26 -0.00    +0.000    23.133
ATOM     22  N   UNL     1      28.062 -16.672  -1.347 -0.33 -0.00    +0.000    23.133
ATOM     23  H   UNL     1      28.649 -16.724  -0.558 -0.04 -0.00    +0.000    23.133
ATOM     24  C   UNL     1      26.708 -17.136  -1.208 -0.45 -0.00    +0.000    23.133
ATOM     25  C   UNL     1      25.767 -16.816  -2.196 -0.46 -0.00    +0.000    23.133
ATOM     26  C   UNL     1      24.440 -17.234  -2.074 -0.41 -0.00    +0.000    23.133
ATOM     27  C   UNL     1      24.023 -17.977  -0.956 -0.70 -0.00    +0.000    23.133
ATOM     28  C   UNL     1      24.960 -18.266   0.052 -0.56 -0.00    +0.000    23.133
ATOM     29  C   UNL     1      26.288 -17.847  -0.071 -0.55 -0.00    +0.000    23.133
ATOM     30  C   UNL     1      22.609 -18.411  -0.839 -0.83 -0.00    +0.000    23.133
ATOM     31  N   UNL     1      21.543 -17.461  -0.722 -0.71 -0.00    +0.000    23.133
ATOM     32  O   UNL     1      22.337 -19.643  -0.829 -0.78 -0.00    +0.000    23.133
ATOM     33  H   UNL     1      21.748 -16.502  -0.642 -0.06 -0.00    +0.000    23.133
ATOM     34  O   UNL     1      20.255 -17.878  -0.719 -2.21 -0.00    +0.000    23.133
ATOM     35  H   UNL     1      19.757 -17.398  -1.400 -0.61 -0.00    +0.000    23.133
TER
ENDMDL
MODEL       45
USER    Run = 45
USER    Cluster Rank = 18
USER    Number of conformations in this cluster = 1
USER  
USER    RMSD from reference structure       = 24.970 A
USER  
USER    Estimated Free Energy of Binding    =   -9.25 kcal/mol  [=(1)+(2)+(3)-(4)]
USER    Estimated Inhibition Constant, Ki   =  164.63 nM (nanomolar)  [Temperature = 298.15 K]
USER    
USER    (1) Final Intermolecular Energy     =  -12.24 kcal/mol
USER        vdW + Hbond + desolv Energy     =  -12.24 kcal/mol
USER        Electrostatic Energy            =   +0.00 kcal/mol
USER    (2) Final Total Internal Energy     =   -2.02 kcal/mol
USER    (3) Torsional Free Energy           =   +2.98 kcal/mol
USER    (4) Unbound System's Energy  [=(2)] =   -2.02 kcal/mol
USER    
USER    
USER  
USER    DPF = ligand_dock.biased.dpf
USER    NEWDPF move	ligand.pdbqt
USER    NEWDPF about	1.857000 0.216000 -0.019000
USER    NEWDPF tran0	27.802259 -15.494686 -2.741850
USER    NEWDPF axisangle0	-0.086157 0.921491 0.378724 126.557570
USER    NEWDPF quaternion0	-0.076956 0.823080 0.338278 0.449650
USER    NEWDPF dihe0	-126.75 180.00 -7.21 -44.52 159.62 167.98 39.46 -171.64 158.28 22.83 
USER  
USER                              x       y       z    vdW   Elec        q     RMS 
ATOM      1  C   UNL     1      26.585 -15.188  -3.812 -0.50 -0.00    +0.000    24.970
ATOM      2  C   UNL     1      27.799 -14.921  -4.654 -0.34 -0.00    +0.000    24.970
ATOM      3  C   UNL     1      28.214 -13.602  -4.895 -0.20 -0.00    +0.000    24.970
ATOM      4  C   UNL     1      29.322 -13.348  -5.710 -0.15 -0.00    +0.000    24.970
ATOM      5  C   UNL     1      30.020 -14.407  -6.304 -0.21 -0.00    +0.000    24.970
ATOM      6  C   UNL     1      31.132 -14.161  -7.124 -0.15 -0.00    +0.000    24.970
ATOM      7  C   UNL     1      31.825 -15.227  -7.721 -0.17 -0.00    +0.000    24.970
ATOM      8  C   UNL     1      31.398 -16.544  -7.491 -0.24 -0.00    +0.000    24.970
ATOM      9  C   UNL     1      30.291 -16.799  -6.678 -0.29 -0.00    +0.000    24.970
ATOM     10  C   UNL     1      29.596 -15.739  -6.079 -0.32 -0.00    +0.000    24.970
ATOM     11  C   UNL     1      28.484 -15.986  -5.260 -0.20 -0.00    +0.000    24.970
ATOM     12  C   UNL     1      33.031 -14.969  -8.585 -0.13 -0.00    +0.000    24.970
ATOM     13  N   UNL     1      32.606 -14.568  -9.944 -0.18 -0.00    +0.000    24.970
ATOM     14  H   UNL     1      31.599 -14.712 -10.016 -0.26 -0.00    +0.000    24.970
ATOM     15  C   UNL     1      33.210 -15.441 -10.979 -0.16 -0.00    +0.000    24.970
ATOM     16  C   UNL     1      33.245 -16.905 -10.539 -0.17 -0.00    +0.000    24.970
ATOM     17  C   UNL     1      32.802 -13.116 -10.183 -0.14 -0.00    +0.000    24.970
ATOM     18  C   UNL     1      31.499 -12.324 -10.358 -0.16 -0.00    +0.000    24.970
ATOM     19  O   UNL     1      26.987 -15.789  -2.586 -0.36 -0.00    +0.000    24.970
ATOM     20  O   UNL     1      26.482 -16.964  -0.667 -0.53 -0.00    +0.000    24.970
ATOM     21  C   UNL     1      26.125 -16.568  -1.810 -0.52 -0.00    +0.000    24.970
ATOM     22  N   UNL     1      24.849 -16.942  -2.348 -0.55 -0.00    +0.000    24.970
ATOM     23  H   UNL     1      24.677 -16.748  -3.298 -0.02 -0.00    +0.000    24.970
ATOM     24  C   UNL     1      23.806 -17.581  -1.593 -0.55 -0.00    +0.000    24.970
ATOM     25  C   UNL     1      23.514 -18.931  -1.830 -0.48 -0.00    +0.000    24.970
ATOM     26  C   UNL     1      22.491 -19.571  -1.127 -0.24 -0.00    +0.000    24.970
ATOM     27  C   UNL     1      21.731 -18.870  -0.173 -0.71 -0.00    +0.000    24.970
ATOM     28  C   UNL     1      22.002 -17.506   0.038 -0.33 -0.00    +0.000    24.970
ATOM     29  C   UNL     1      23.027 -16.867  -0.667 -0.46 -0.00    +0.000    24.970
ATOM     30  C   UNL     1      20.646 -19.562   0.564 -0.67 -0.00    +0.000    24.970
ATOM     31  N   UNL     1      19.736 -20.447  -0.102 -0.70 -0.00    +0.000    24.970
ATOM     32  O   UNL     1      20.507 -19.358   1.801 -0.75 -0.00    +0.000    24.970
ATOM     33  H   UNL     1      19.779 -20.547  -1.080 -0.49 -0.00    +0.000    24.970
ATOM     34  O   UNL     1      18.818 -21.144   0.609 -0.77 -0.00    +0.000    24.970
ATOM     35  H   UNL     1      18.982 -21.021   1.558 -0.10 -0.00    +0.000    24.970
TER
ENDMDL
MODEL       79
USER    Run = 79
USER    Cluster Rank = 19
USER    Number of conformations in this cluster = 1
USER  
USER    RMSD from reference structure       = 21.308 A
USER  
USER    Estimated Free Energy of Binding    =   -8.95 kcal/mol  [=(1)+(2)+(3)-(4)]
USER    Estimated Inhibition Constant, Ki   =  276.73 nM (nanomolar)  [Temperature = 298.15 K]
USER    
USER    (1) Final Intermolecular Energy     =  -11.93 kcal/mol
USER        vdW + Hbond + desolv Energy     =  -11.93 kcal/mol
USER        Electrostatic Energy            =   +0.00 kcal/mol
USER    (2) Final Total Internal Energy     =   -2.45 kcal/mol
USER    (3) Torsional Free Energy           =   +2.98 kcal/mol
USER    (4) Unbound System's Energy  [=(2)] =   -2.45 kcal/mol
USER    
USER    
USER  
USER    DPF = ligand_dock.biased.dpf
USER    NEWDPF move	ligand.pdbqt
USER    NEWDPF about	1.857000 0.216000 -0.019000
USER    NEWDPF tran0	28.941170 -14.439457 -5.405023
USER    NEWDPF axisangle0	-0.777975 0.143607 -0.611663 -105.137102
USER    NEWDPF quaternion0	-0.617775 0.114036 -0.485710 -0.607812
USER    NEWDPF dihe0	176.26 28.68 6.30 -18.85 -148.36 168.68 50.59 126.99 -171.37 125.81 
USER  
USER                              x       y       z    vdW   Elec        q     RMS 
ATOM      1  C   UNL     1      29.682 -13.206  -4.598 -0.08 -0.00    +0.000    21.308
ATOM      2  C   UNL     1      28.542 -12.489  -5.261 -0.13 -0.00    +0.000    21.308
ATOM      3  C   UNL     1      28.548 -12.287  -6.650 -0.17 -0.00    +0.000    21.308
ATOM      4  C   UNL     1      27.507 -11.587  -7.268 -0.16 -0.00    +0.000    21.308
ATOM      5  C   UNL     1      26.454 -11.068  -6.503 -0.18 -0.00    +0.000    21.308
ATOM      6  C   UNL     1      25.405 -10.363  -7.115 -0.27 -0.00    +0.000    21.308
ATOM      7  C   UNL     1      24.355  -9.841  -6.342 -0.38 -0.00    +0.000    21.308
ATOM      8  C   UNL     1      24.358 -10.030  -4.952 -0.33 -0.00    +0.000    21.308
ATOM      9  C   UNL     1      25.398 -10.729  -4.334 -0.23 -0.00    +0.000    21.308
ATOM     10  C   UNL     1      26.450 -11.253  -5.100 -0.22 -0.00    +0.000    21.308
ATOM     11  C   UNL     1      27.497 -11.958  -4.488 -0.15 -0.00    +0.000    21.308
ATOM     12  C   UNL     1      23.217  -9.101  -6.995 -0.42 -0.00    +0.000    21.308
ATOM     13  N   UNL     1      23.622  -7.710  -7.296 -0.24 -0.00    +0.000    21.308
ATOM     14  H   UNL     1      24.639  -7.658  -7.245 +0.00 -0.00    +0.000    21.308
ATOM     15  C   UNL     1      23.122  -6.768  -6.267 -0.25 -0.00    +0.000    21.308
ATOM     16  C   UNL     1      21.997  -7.379  -5.433 -0.47 -0.00    +0.000    21.308
ATOM     17  C   UNL     1      23.289  -7.322  -8.690 -0.24 -0.00    +0.000    21.308
ATOM     18  C   UNL     1      21.952  -6.583  -8.837 -0.29 -0.00    +0.000    21.308
ATOM     19  O   UNL     1      29.505 -14.610  -4.750 -0.16 -0.00    +0.000    21.308
ATOM     20  O   UNL     1      27.713 -15.996  -5.187 -0.71 +0.00    +0.000    21.308
ATOM     21  C   UNL     1      28.334 -15.269  -4.365 -0.33 -0.00    +0.000    21.308
ATOM     22  N   UNL     1      27.830 -15.072  -3.036 -0.22 -0.00    +0.000    21.308
ATOM     23  H   UNL     1      28.253 -14.377  -2.483 +0.01 -0.00    +0.000    21.308
ATOM     24  C   UNL     1      26.748 -15.823  -2.461 -0.36 -0.00    +0.000    21.308
ATOM     25  C   UNL     1      25.453 -15.288  -2.480 -0.43 -0.00    +0.000    21.308
ATOM     26  C   UNL     1      24.387 -15.987  -1.908 +0.01 -0.00    +0.000    21.308
ATOM     27  C   UNL     1      24.595 -17.235  -1.296 -0.61 -0.00    +0.000    21.308
ATOM     28  C   UNL     1      25.902 -17.754  -1.245 -0.46 -0.00    +0.000    21.308
ATOM     29  C   UNL     1      26.967 -17.054  -1.819 -0.32 -0.00    +0.000    21.308
ATOM     30  C   UNL     1      23.454 -17.964  -0.689 -0.80 -0.00    +0.000    21.308
ATOM     31  N   UNL     1      22.103 -17.523  -0.874 -0.69 -0.00    +0.000    21.308
ATOM     32  O   UNL     1      23.675 -18.985   0.017 -0.71 -0.00    +0.000    21.308
ATOM     33  H   UNL     1      21.924 -16.680  -1.349 -0.03 -0.00    +0.000    21.308
ATOM     34  O   UNL     1      21.074 -18.261  -0.396 -1.86 -0.00    +0.000    21.308
ATOM     35  H   UNL     1      21.421 -19.001   0.127 -0.07 -0.00    +0.000    21.308
TER
ENDMDL
MODEL        2
USER    Run = 2
USER    Cluster Rank = 20
USER    Number of conformations in this cluster = 1
USER  
USER    RMSD from reference structure       = 26.191 A
USER  
USER    Estimated Free Energy of Binding    =   -8.75 kcal/mol  [=(1)+(2)+(3)-(4)]
USER    Estimated Inhibition Constant, Ki   =  384.64 nM (nanomolar)  [Temperature = 298.15 K]
USER    
USER    (1) Final Intermolecular Energy     =  -11.73 kcal/mol
USER        vdW + Hbond + desolv Energy     =  -11.73 kcal/mol
USER        Electrostatic Energy            =   +0.00 kcal/mol
USER    (2) Final Total Internal Energy     =   -1.89 kcal/mol
USER    (3) Torsional Free Energy           =   +2.98 kcal/mol
USER    (4) Unbound System's Energy  [=(2)] =   -1.89 kcal/mol
USER    
USER    
USER  
USER    DPF = ligand_dock.biased.dpf
USER    NEWDPF move	ligand.pdbqt
USER    NEWDPF about	1.857000 0.216000 -0.019000
USER    NEWDPF tran0	28.302165 -16.779028 -0.987708
USER    NEWDPF axisangle0	-0.216670 0.585727 0.781011 -160.325527
USER    NEWDPF quaternion0	-0.213485 0.577115 0.769528 -0.170850
USER    NEWDPF dihe0	-114.96 178.82 9.28 -76.08 -111.19 121.63 -31.77 15.72 -36.16 -52.83 
USER  
USER                              x       y       z    vdW   Elec        q     RMS 
ATOM      1  C   UNL     1      28.571 -15.153  -1.071 -0.19 -0.00    +0.000    26.191
ATOM      2  C   UNL     1      29.889 -15.649  -0.549 -0.14 -0.00    +0.000    26.191
ATOM      3  C   UNL     1      30.688 -16.492  -1.337 -0.12 -0.00    +0.000    26.191
ATOM      4  C   UNL     1      31.897 -16.987  -0.841 -0.08 -0.00    +0.000    26.191
ATOM      5  C   UNL     1      32.317 -16.656   0.455 -0.09 -0.00    +0.000    26.191
ATOM      6  C   UNL     1      33.530 -17.149   0.961 -0.05 -0.00    +0.000    26.191
ATOM      7  C   UNL     1      33.943 -16.818   2.262 -0.09 -0.00    +0.000    26.191
ATOM      8  C   UNL     1      33.135 -15.988   3.054 -0.16 -0.00    +0.000    26.191
ATOM      9  C   UNL     1      31.926 -15.494   2.559 -0.18 -0.00    +0.000    26.191
ATOM     10  C   UNL     1      31.508 -15.820   1.261 -0.12 -0.00    +0.000    26.191
ATOM     11  C   UNL     1      30.296 -15.327   0.755 -0.08 -0.00    +0.000    26.191
ATOM     12  C   UNL     1      35.252 -17.328   2.804 -0.09 -0.00    +0.000    26.191
ATOM     13  N   UNL     1      35.037 -18.007   4.100 -0.18 -0.00    +0.000    26.191
ATOM     14  H   UNL     1      34.362 -17.460   4.635 -0.15 -0.00    +0.000    26.191
ATOM     15  C   UNL     1      36.274 -18.021   4.915 -0.05 -0.00    +0.000    26.191
ATOM     16  C   UNL     1      36.889 -16.627   5.042 -0.12 -0.00    +0.000    26.191
ATOM     17  C   UNL     1      34.403 -19.338   3.934 -0.22 -0.00    +0.000    26.191
ATOM     18  C   UNL     1      32.991 -19.444   4.526 -0.40 -0.00    +0.000    26.191
ATOM     19  O   UNL     1      27.778 -16.265  -1.474 -0.33 -0.00    +0.000    26.191
ATOM     20  O   UNL     1      25.847 -15.528  -0.450 -0.43 -0.00    +0.000    26.191
ATOM     21  C   UNL     1      26.473 -16.464  -1.018 -0.49 -0.00    +0.000    26.191
ATOM     22  N   UNL     1      25.873 -17.758  -1.168 -0.56 -0.00    +0.000    26.191
ATOM     23  H   UNL     1      26.447 -18.499  -1.469 -0.04 -0.00    +0.000    26.191
ATOM     24  C   UNL     1      24.488 -18.045  -0.908 -0.68 -0.00    +0.000    26.191
ATOM     25  C   UNL     1      24.014 -19.353  -1.076 -0.35 -0.00    +0.000    26.191
ATOM     26  C   UNL     1      22.668 -19.655  -0.852 -0.31 -0.00    +0.000    26.191
ATOM     27  C   UNL     1      21.764 -18.651  -0.462 -0.76 -0.00    +0.000    26.191
ATOM     28  C   UNL     1      22.235 -17.332  -0.329 -0.65 -0.00    +0.000    26.191
ATOM     29  C   UNL     1      23.582 -17.032  -0.553 -0.51 -0.00    +0.000    26.191
ATOM     30  C   UNL     1      20.338 -18.985  -0.231 -0.71 -0.00    +0.000    26.191
ATOM     31  N   UNL     1      19.954 -20.132   0.538 -0.71 -0.00    +0.000    26.191
ATOM     32  O   UNL     1      19.440 -18.256  -0.733 -1.46 -0.00    +0.000    26.191
ATOM     33  H   UNL     1      20.642 -20.757   0.862 -0.38 -0.00    +0.000    26.191
ATOM     34  O   UNL     1      18.650 -20.359   0.820 -0.79 -0.00    +0.000    26.191
ATOM     35  H   UNL     1      18.096 -19.743   0.313 -0.07 -0.00    +0.000    26.191
TER
ENDMDL
MODEL      100
USER    Run = 100
USER    Cluster Rank = 21
USER    Number of conformations in this cluster = 1
USER  
USER    RMSD from reference structure       = 23.101 A
USER  
USER    Estimated Free Energy of Binding    =   -7.84 kcal/mol  [=(1)+(2)+(3)-(4)]
USER    Estimated Inhibition Constant, Ki   =    1.80 uM (micromolar)  [Temperature = 298.15 K]
USER    
USER    (1) Final Intermolecular Energy     =  -10.82 kcal/mol
USER        vdW + Hbond + desolv Energy     =  -10.82 kcal/mol
USER        Electrostatic Energy            =   +0.00 kcal/mol
USER    (2) Final Total Internal Energy     =   -2.72 kcal/mol
USER    (3) Torsional Free Energy           =   +2.98 kcal/mol
USER    (4) Unbound System's Energy  [=(2)] =   -2.72 kcal/mol
USER    
USER    
USER  
USER    DPF = ligand_dock.biased.dpf
USER    NEWDPF move	ligand.pdbqt
USER    NEWDPF about	1.857000 0.216000 -0.019000
USER    NEWDPF tran0	28.119976 -13.067574 -2.857644
USER    NEWDPF axisangle0	0.512039 -0.834032 -0.205443 98.005398
USER    NEWDPF quaternion0	0.386457 -0.629478 -0.155056 0.656023
USER    NEWDPF dihe0	68.03 179.95 33.62 161.28 98.20 172.59 -167.97 106.91 177.73 176.59 
USER  
USER                              x       y       z    vdW   Elec        q     RMS 
ATOM      1  C   UNL     1      29.609 -12.391  -2.642 -0.03 -0.00    +0.000    23.101
ATOM      2  C   UNL     1      29.092 -12.432  -1.233 -0.04 -0.00    +0.000    23.101
ATOM      3  C   UNL     1      28.229 -11.428  -0.769 -0.07 -0.00    +0.000    23.101
ATOM      4  C   UNL     1      27.774 -11.441   0.553 -0.12 -0.00    +0.000    23.101
ATOM      5  C   UNL     1      28.187 -12.452   1.432 -0.14 -0.00    +0.000    23.101
ATOM      6  C   UNL     1      27.737 -12.473   2.761 -0.25 -0.00    +0.000    23.101
ATOM      7  C   UNL     1      28.158 -13.486   3.637 -0.35 -0.00    +0.000    23.101
ATOM      8  C   UNL     1      29.033 -14.481   3.176 -0.21 -0.00    +0.000    23.101
ATOM      9  C   UNL     1      29.489 -14.468   1.855 -0.12 -0.00    +0.000    23.101
ATOM     10  C   UNL     1      29.071 -13.459   0.974 -0.11 -0.00    +0.000    23.101
ATOM     11  C   UNL     1      29.521 -13.438  -0.354 -0.05 -0.00    +0.000    23.101
ATOM     12  C   UNL     1      27.662 -13.524   5.059 -0.51 -0.00    +0.000    23.101
ATOM     13  N   UNL     1      28.353 -12.495   5.867 -0.40 -0.00    +0.000    23.101
ATOM     14  H   UNL     1      28.212 -12.719   6.852 -0.03 +0.00    +0.000    23.101
ATOM     15  C   UNL     1      27.746 -11.157   5.670 -0.37 +0.00    +0.000    23.101
ATOM     16  C   UNL     1      28.784 -10.117   5.249 -0.26 +0.00    +0.000    23.101
ATOM     17  C   UNL     1      29.824 -12.530   5.675 -0.26 -0.00    +0.000    23.101
ATOM     18  C   UNL     1      30.614 -12.958   6.919 -0.27 -0.00    +0.000    23.101
ATOM     19  O   UNL     1      28.734 -13.133  -3.485 -0.10 -0.00    +0.000    23.101
ATOM     20  O   UNL     1      26.461 -13.384  -3.183 -0.30 -0.00    +0.000    23.101
ATOM     21  C   UNL     1      27.626 -13.829  -2.996 -0.21 -0.00    +0.000    23.101
ATOM     22  N   UNL     1      27.837 -15.032  -2.243 -0.20 -0.00    +0.000    23.101
ATOM     23  H   UNL     1      28.760 -15.256  -1.985 +0.01 -0.00    +0.000    23.101
ATOM     24  C   UNL     1      26.789 -15.931  -1.842 -0.36 -0.00    +0.000    23.101
ATOM     25  C   UNL     1      25.797 -16.286  -2.765 -0.44 -0.00    +0.000    23.101
ATOM     26  C   UNL     1      24.754 -17.140  -2.395 -0.33 -0.00    +0.000    23.101
ATOM     27  C   UNL     1      24.679 -17.652  -1.088 -0.65 -0.00    +0.000    23.101
ATOM     28  C   UNL     1      25.656 -17.266  -0.152 -0.37 -0.00    +0.000    23.101
ATOM     29  C   UNL     1      26.698 -16.412  -0.524 -0.41 -0.00    +0.000    23.101
ATOM     30  C   UNL     1      23.565 -18.555  -0.708 -0.83 -0.00    +0.000    23.101
ATOM     31  N   UNL     1      22.470 -18.094   0.094 -0.72 -0.00    +0.000    23.101
ATOM     32  O   UNL     1      23.585 -19.758  -1.084 -0.78 -0.00    +0.000    23.101
ATOM     33  H   UNL     1      22.485 -17.183   0.466 -0.03 -0.00    +0.000    23.101
ATOM     34  O   UNL     1      21.417 -18.907   0.342 -1.00 -0.00    +0.000    23.101
ATOM     35  H   UNL     1      21.724 -19.826   0.405 -0.49 -0.00    +0.000    23.101
TER
ENDMDL


AVSFLD: # AVS field file
AVSFLD: #
AVSFLD: # Created by AutoDock
AVSFLD: #
AVSFLD: ndim=2           # number of dimensions in the field
AVSFLD: nspace=1         # number of physical coordinates
AVSFLD: veclen=7         # vector size
AVSFLD: dim1=35          # atoms
AVSFLD: dim2=21          # conformations
AVSFLD: data=Real       # data type (byte,integer,Real,double)
AVSFLD: field=uniform    # field coordinate layout
AVSFLD: label= x y z vdW Elec q RMS
AVSFLD: variable 1 file = ligand_dock.biased.dlg.pdb filetype = ascii offset = 5 stride = 12
AVSFLD: variable 2 file = ligand_dock.biased.dlg.pdb filetype = ascii offset = 6 stride = 12
AVSFLD: variable 3 file = ligand_dock.biased.dlg.pdb filetype = ascii offset = 7 stride = 12
AVSFLD: variable 4 file = ligand_dock.biased.dlg.pdb filetype = ascii offset = 8 stride = 12
AVSFLD: variable 5 file = ligand_dock.biased.dlg.pdb filetype = ascii offset = 9 stride = 12
AVSFLD: variable 6 file = ligand_dock.biased.dlg.pdb filetype = ascii offset = 10 stride = 12
AVSFLD: variable 7 file = ligand_dock.biased.dlg.pdb filetype = ascii offset = 11 stride = 12
AVSFLD: # end of file

>>> Closing the docking parameter file (DPF)...
This docking finished at:			10:21 03" a.m., 11/08/2024


________________________________________________________________________________

autodock4: Successful Completion on "ThinkStation-P620"

Real= 17m 46.93s,  CPU= 17m 46.60s,  System= 0.18s
________________________________________________________________________________

