REMARK  Name = 
REMARK  4 active torsions:
REMARK  status: ('A' for Active; 'I' for Inactive)
REMARK    1  A    between atoms: C_3  and  C_4
REMARK    2  A    between atoms: C_4  and  C_5
REMARK    3  A    between atoms: C_5  and  C_6
REMARK    4  A    between atoms: C_6  and  C_7
REMARK                            x       y       z     vdW  Elec       q    Type
REMARK                         _______ _______ _______ _____ _____    ______ ____
ROOT
ATOM      1  C   UNL     1       0.746   1.199   0.118  0.00  0.00    +0.000 C 
ENDROOT
BRANCH   1   2
ATOM      2  C   UNL     1       2.236   1.560   0.087  0.00  0.00    +0.000 C 
BRANCH   2   5
ATOM      3  O   UNL     1       4.457  -1.211   1.397  0.00  0.00    +0.000 OA
ATOM      4  N   UNL     1       3.750  -0.433   0.545  0.00  0.00    +0.000 N 
ATOM      5  C   UNL     1       3.036   0.707   1.029  0.00  0.00    +0.000 C 
ATOM      6  O   UNL     1       3.051   0.983   2.259  0.00  0.00    +0.000 OA
ATOM      7  H   UNL     1       3.727  -0.653  -0.414  0.00  0.00    +0.000 HD
ENDBRANCH   2   5
ENDBRANCH   1   2
BRANCH   1   8
ATOM      8  C   UNL     1       0.468  -0.186  -0.482  0.00  0.00    +0.000 C 
BRANCH   8   9
ATOM      9  C   UNL     1      -1.010  -0.469  -0.495  0.00  0.00    +0.000 A 
ATOM     10  C   UNL     1      -1.794  -0.097  -1.601  0.00  0.00    +0.000 A 
ATOM     11  C   UNL     1      -3.172  -0.332  -1.598  0.00  0.00    +0.000 A 
ATOM     12  C   UNL     1      -3.779  -0.929  -0.489  0.00  0.00    +0.000 A 
ATOM     13  C   UNL     1      -3.009  -1.289   0.620  0.00  0.00    +0.000 A 
ATOM     14  C   UNL     1      -1.630  -1.056   0.621  0.00  0.00    +0.000 A 
ENDBRANCH   8   9
ENDBRANCH   1   8
TORSDOF 4
