          AutoDock 4.2 Release 4.2.6   
         (C) 1989-2012 The Scripps Research Institute
        AutoDock comes with ABSOLUTELY NO WARRANTY.
        AutoDock is free software, and you are welcome
        to redistribute it under certain conditions;
        for details type 'autodock4 -C'

                     main.cc  $Revision: 1.213 $

                   Compiled on Feb 20 2022 at 09:48:33


This file was created at:			6:07 09" p.m., 11/08/2024
                   on host:		"ThinkStation-P620"
Current Working Directory = "/home/antonio/Documenti/buccheri/IDROSSAMICO HDAC/HDAC 8/DP (copia)/Ligand_10"

      ________________________________________________________________

                   SETTING UP DEFAULT PARAMETER LIBRARY
      ________________________________________________________________


Random number generator was seeded with values 355265, 1731085629.
Docking parameter file (DPF) used for this docking:		ligand_dock.biased.dpf
DPF> parameter_file ad4_arom_params.dat

Using read_parameter_library() to try to open and read "ad4_arom_params.dat".

DPF> autodock_parameter_version 4.2       # used by autodock to validate parameter set

	Autodock parameter version 4.2.
DPF> outlev 1                             # diagnostic output level

Output Level = 1  ADT-COMPATIBLE OUTPUT DURING DOCKING.
DPF> intelec                              # calculate internal electrostatics

Electrostatic energies will be calculated for all non-bonds between moving atoms.
DPF> seed pid time                        # seeds for random generator

Random number generator was seeded with values 355265, 1731085629.
DPF> ligand_types A C HD OA N AC

WARNING: pairwise distance, Rij, 0.00, is not a very reasonable value for the equilibrium separation of two atoms! (0.90 Angstroms <= Rij <= 6.00 Angstroms)

Perhaps you meant to use "intnbp_coeffs" instead of "intnbp_r_eps"?

DPF> fld receptor.maps.fld                # grid_data_file

Opening Grid Map Dimensions file:		receptor.maps.fld
Grid Point Spacing =				0.375 Angstroms

Even Number of User-specified Grid Points =	70 x-points
						70 y-points
						70 z-points

Coordinates of Central Grid Point of Maps =	(36.691, 12.592, 124.207)
Macromolecule file used to create Grid Maps =	receptor.pdbqt
Grid Parameter file used to create Grid Maps =	receptor.gpf
Minimum coordinates in grid = (23.566, -0.533, 111.082)
Maximum coordinates in grid = (49.816, 25.717, 137.332)

DPF> map receptor.A.map                   # atom-specific affinity map

DPF> map receptor.C.map                   # atom-specific affinity map

DPF> map receptor.HD.map                  # atom-specific affinity map

DPF> map receptor.OA.biased.map

DPF> map receptor.N.map                   # atom-specific affinity map

DPF> map receptor.AC.biased.map

DPF> elecmap receptor.e.map               # electrostatics map

DPF> desolvmap receptor.d.map             # desolvation map

DPF> move ligand.dum.pdbqt

1,4-interactions will be _ignored_ in the non-bonded internal energy calculation.

Ligand PDBQT file = "ligand.dum.pdbqt"

INPUT LIGAND PDBQT FILE:
________________________

INPUT-LIGAND-PDBQT: REMARK  Name = 
INPUT-LIGAND-PDBQT: REMARK  4 active torsions:
INPUT-LIGAND-PDBQT: REMARK  status: ('A' for Active; 'I' for Inactive)
INPUT-LIGAND-PDBQT: REMARK    1  A    between atoms: C_3  and  C_4
INPUT-LIGAND-PDBQT: REMARK    2  A    between atoms: C_4  and  C_5
INPUT-LIGAND-PDBQT: REMARK    3  A    between atoms: C_5  and  C_6
INPUT-LIGAND-PDBQT: REMARK    4  A    between atoms: C_6  and  C_7
INPUT-LIGAND-PDBQT: REMARK                            x       y       z     vdW  Elec       q    Type
INPUT-LIGAND-PDBQT: REMARK                         _______ _______ _______ _____ _____    ______ ____
INPUT-LIGAND-PDBQT: ROOT
INPUT-LIGAND-PDBQT: ATOM      1  C   UNL     1       0.746   1.199   0.118  0.00  0.00     0.000 C 
INPUT-LIGAND-PDBQT: ENDROOT
INPUT-LIGAND-PDBQT: BRANCH   1   2
INPUT-LIGAND-PDBQT: ATOM      2  C   UNL     1       2.236   1.560   0.087  0.00  0.00     0.000 C 
INPUT-LIGAND-PDBQT: BRANCH   2   5
INPUT-LIGAND-PDBQT: ATOM      3  O   UNL     1       4.457  -1.211   1.397  0.00  0.00     0.000 OA
INPUT-LIGAND-PDBQT: ATOM      4  N   UNL     1       3.750  -0.433   0.545  0.00  0.00     0.000 N 
INPUT-LIGAND-PDBQT: ATOM      5  C   UNL     1       3.036   0.707   1.029  0.00  0.00     0.000 C 
INPUT-LIGAND-PDBQT: ATOM      6  O   UNL     1       3.051   0.983   2.259  0.00  0.00     0.000 OA
INPUT-LIGAND-PDBQT: ATOM      7  H   UNL     1       3.727  -0.653  -0.414  0.00  0.00     0.000 HD
INPUT-LIGAND-PDBQT: ENDBRANCH   2   5
INPUT-LIGAND-PDBQT: ENDBRANCH   1   2
INPUT-LIGAND-PDBQT: BRANCH   1   8
INPUT-LIGAND-PDBQT: ATOM      8  C   UNL     1       0.468  -0.186  -0.482  0.00  0.00     0.000 C 
INPUT-LIGAND-PDBQT: BRANCH   8   9
INPUT-LIGAND-PDBQT: ATOM      9  C   UNL     1      -1.010  -0.469  -0.495  0.00  0.00     0.000 A 
INPUT-LIGAND-PDBQT: ATOM     10  C   UNL     1      -1.794  -0.097  -1.601  0.00  0.00     0.000 A 
INPUT-LIGAND-PDBQT: ATOM     11  C   UNL     1      -3.172  -0.332  -1.598  0.00  0.00     0.000 A 
INPUT-LIGAND-PDBQT: ATOM     12  C   UNL     1      -3.779  -0.929  -0.489  0.00  0.00     0.000 A 
INPUT-LIGAND-PDBQT: ATOM     13  C   UNL     1      -3.009  -1.289   0.620  0.00  0.00     0.000 A 
INPUT-LIGAND-PDBQT: ATOM     14  C   UNL     1      -1.630  -1.056   0.621  0.00  0.00     0.000 A 
INPUT-LIGAND-PDBQT: ATOM     15  CM  UNL     1      -2.399  -0.695  -0.490  1.00  0.00     0.000 AC
INPUT-LIGAND-PDBQT: ENDBRANCH   8   9
INPUT-LIGAND-PDBQT: ENDBRANCH   1   8
INPUT-LIGAND-PDBQT: TORSDOF 4________________________________________________________________________________

Total charge on ligand                               =	+0.000 e
REMARK  Name = 
REMARK  4 active torsions:
REMARK  status: ('A' for Active; 'I' for Inactive)
REMARK    1  A    between atoms: C_3  and  C_4
REMARK    2  A    between atoms: C_4  and  C_5
REMARK    3  A    between atoms: C_5  and  C_6
REMARK    4  A    between atoms: C_6  and  C_7
REMARK                            x       y       z     vdW  Elec       q    Type
REMARK                         _______ _______ _______ _____ _____    ______ ____


Number of Rotatable Bonds in Small Molecule =	4 torsions
Number of atoms in ligand:  15

Number of non-hydrogen atoms in ligand:  14

Number of vibrational degrees of freedom of ligand:  39


Number of torsional degrees of freedom = 4
Estimated loss of torsional free energy upon binding = +1.1932 kcal/mol


DPF> about 0.505 -0.158 0.114            # small molecule center

Small molecule center of rotation =	(+0.505, -0.158, +0.114)

DPF> tran0 random                         # initial coordinates/A or random

Initial translation =			(44.893, 22.349, 136.072) Angstroms
DPF> quaternion0 random                   # initial orientation

Each run will begin with a new, random initial orientation.
Initial quaternion,  (x,y,z,w) =	( 0.111, 0.250, -0.232, 0.933 ),
DPF> dihe0 random                         # initial dihedrals (relative) or random

DPF> torsdof 4                            # torsional degrees of freedom

Number of torsional degrees of freedom = 4
Free energy coefficient for torsional degrees of freedom = 0.2983 as specified in parameter library "ad4_arom_params.dat".

Estimated loss of torsional free energy upon binding = +1.1932 kcal/mol

DPF> rmstol 2.0                           # cluster_tolerance/A

Maximum RMS tolerance for conformational cluster analysis = 2.00 Angstroms
DPF> extnrg 1000.0                        # external grid energy

External grid energy (beyond grid map walls) = 1000.00

DPF> e0max 0.0 10000                      # max initial energy; max number of retries

Using user-specified maximum number of retries for simanneal initialization, 10000 retries.
If the simanneal initial energy is greater than e0max, 0.000,
then a new, random initial state will be created.

DPF> ga_pop_size 150                      # number of individuals in population

A population of 150 individuals will be used
DPF> ga_num_evals 2500000                 # maximum number of energy evaluations

There will be at most 2500000 function evaluations used.
DPF> ga_num_generations 27000             # maximum number of generations

The GA will run for at most 27000 generations.
DPF> ga_elitism 1                         # number of top individuals to survive to next generation

The 1 best will be preserved each GA generation.
DPF> ga_mutation_rate 0.02                # rate of gene mutation

The mutation rate is 0.020000.
DPF> ga_crossover_rate 0.8                # rate of crossover

The crossover rate is 0.800000.
DPF> ga_window_size 10                    # 

The GA's selection window is 10 generations.
DPF> ga_cauchy_alpha 0.0                  # Alpha parameter of Cauchy distribution

The alpha parameter (for the Cauchy distribution) is being set to 0.000000.
DPF> ga_cauchy_beta 1.0                   # Beta parameter Cauchy distribution

The beta parameter (for the Cauchy distribution) is being set to 1.000000.
DPF> set_ga                               # set the above parameters for GA or LGA

DPF> sw_max_its 300                       # iterations of Solis & Wets local search

Solis & Wets algorithms will perform at most 300 iterations.
DPF> sw_max_succ 4                        # consecutive successes before changing rho

Solis & Wets algorithms expand rho every 4 in a row successes.
DPF> sw_max_fail 4                        # consecutive failures before changing rho

Solis & Wets algorithms contract rho every 4 in a row failures.
DPF> sw_rho 1.0                           # size of local search space to sample

rho is set to 1.000000.
DPF> sw_lb_rho 0.01                       # lower bound on rho

rho will never get smaller than 0.010000.
DPF> ls_search_freq 0.06                  # probability of performing local search on individual

Local search will be performed with frequency 0.060000.
DPF> set_psw1                             # set the above pseudo-Solis & Wets parameters

Creating a new Local Search object using the pseudo-Solis-Wets algorithm (pSW1) with the current settings.

DPF> unbound_model bound                  # state of unbound ligand

DPF> ga_run 100                           # do this many hybrid GA-LS runs

centering ligand on specified point: 0.505 -0.158 0.114
Furthest true ligand atom from "about" center is 4.394 Angstroms (maxrad).
Number of requested GA dockings = 100 runs
Unbound model to be used is 'same as bound' [AutoDock 4.2 default].

	BEGINNING GENETIC ALGORITHM DOCKING 1 of 100
Run: 1 Seed: 844870249 1000323137 [ Run 1 of 100 GA/GALS ]
Beginning LAMARCKIAN GENETIC ALGORITHM (LGA), with a maximum of 2500000 energy evaluations.

Final-Value: -11.660


	FINAL GENETIC ALGORITHM DOCKED STATE
	_______________________________________________


Detailed state:  trans 37.036 13.299 122.816 quatxyzw 0.455114 -0.104705 -0.873931 -0.134734 center 0.505 -0.158 0.114 ntor 4 -58.2977 -149.7192 -90.0858 -79.0489
State:	 37.036  13.299 122.816   0.459 -0.106 -0.882 -164.514    -58.30 -149.72  -90.09  -79.05

DOCKED: MODEL        1
DOCKED: USER    Run = 1
DOCKED: USER    DPF = ligand_dock.biased.dpf
DOCKED: USER  
DOCKED: USER    Estimated Free Energy of Binding    =  -10.09 kcal/mol  [=(1)+(2)+(3)-(4)]
DOCKED: USER    Estimated Inhibition Constant, Ki   =   40.04 nM (nanomolar)  [Temperature = 298.15 K]
DOCKED: USER    
DOCKED: USER    (1) Final Intermolecular Energy     =  -11.29 kcal/mol
DOCKED: USER        vdW + Hbond + desolv Energy     =  -11.29 kcal/mol
DOCKED: USER        Electrostatic Energy            =   +0.00 kcal/mol
DOCKED: USER    (2) Final Total Internal Energy     =   -0.38 kcal/mol
DOCKED: USER    (3) Torsional Free Energy           =   +1.19 kcal/mol
DOCKED: USER    (4) Unbound System's Energy  [=(2)] =   -0.38 kcal/mol
DOCKED: USER    
DOCKED: USER    
DOCKED: USER    NEWDPF move ligand.dum.pdbqt
DOCKED: USER    NEWDPF about 0.505000 -0.158000 0.114000
DOCKED: USER    NEWDPF tran0 37.035792 13.299279 122.815639
DOCKED: USER    NEWDPF quaternion0 0.455114 -0.104705 -0.873931 -0.134734
DOCKED: USER    NEWDPF axisangle0 0.459302 -0.105669 -0.881973 -164.513575
DOCKED: USER    NEWDPF quat0 0.459302 -0.105669 -0.881973 -164.513575
DOCKED: USER    NEWDPF dihe0 -58.30 -149.72 -90.09 -79.05 
DOCKED: USER  keepresnum = 1 
DOCKED: USER  
DOCKED: REMARK  Name = 
DOCKED: REMARK  4 active torsions:
DOCKED: REMARK  status: ('A' for Active; 'I' for Inactive)
DOCKED: REMARK    1  A    between atoms: C_3  and  C_4
DOCKED: REMARK    2  A    between atoms: C_4  and  C_5
DOCKED: REMARK    3  A    between atoms: C_5  and  C_6
DOCKED: REMARK    4  A    between atoms: C_6  and  C_7
DOCKED: REMARK                            x       y       z     vdW  Elec       q    Type
DOCKED: REMARK                         _______ _______ _______ _____ _____    ______ ____
DOCKED: USER                              x       y       z     vdW  Elec       q    Type
DOCKED: USER                           _______ _______ _______ _____ _____    ______ ____
DOCKED: ROOT
DOCKED: ATOM      1  C   UNL     1      37.090  11.942 123.048 -0.64 -0.00    +0.000 C 
DOCKED: ENDROOT
DOCKED: BRANCH   1   2
DOCKED: ATOM      2  C   UNL     1      36.348  11.107 121.997 -0.61 -0.00    +0.000 C 
DOCKED: BRANCH   2   5
DOCKED: ATOM      3  O   UNL     1      37.180   7.716 123.457 -2.67 -0.00    +0.000 OA
DOCKED: ATOM      4  N   UNL     1      36.849   9.025 123.371 -0.59 -0.00    +0.000 N 
DOCKED: ATOM      5  C   UNL     1      36.698   9.650 122.094 -0.68 -0.00    +0.000 C 
DOCKED: ATOM      6  O   UNL     1      36.889   8.984 121.041 -2.66 -0.00    +0.000 OA
DOCKED: ATOM      7  H   UNL     1      36.710   9.550 124.192 -0.49 -0.00    +0.000 HD
DOCKED: ENDBRANCH   2   5
DOCKED: ENDBRANCH   1   2
DOCKED: BRANCH   1   8
DOCKED: ATOM      8  C   UNL     1      37.543  13.302 122.499 -0.52 -0.00    +0.000 C 
DOCKED: BRANCH   8   9
DOCKED: ATOM      9  C   UNL     1      36.648  14.400 123.007 -0.43 -0.00    +0.000 A 
DOCKED: ATOM     10  C   UNL     1      35.566  14.100 123.852 -0.49 -0.00    +0.000 A 
DOCKED: ATOM     11  C   UNL     1      34.717  15.118 124.297 -0.48 -0.00    +0.000 A 
DOCKED: ATOM     12  C   UNL     1      34.935  16.439 123.894 -0.43 -0.00    +0.000 A 
DOCKED: ATOM     13  C   UNL     1      36.000  16.743 123.043 -0.29 -0.00    +0.000 A 
DOCKED: ATOM     14  C   UNL     1      36.852  15.728 122.595 -0.29 -0.00    +0.000 A 
DOCKED: ATOM     15  CM  UNL     1      35.786  15.422 123.448 +0.00 -0.00    +0.000 AC
DOCKED: ENDBRANCH   8   9
DOCKED: ENDBRANCH   1   8
DOCKED: TORSDOF 4DOCKED: TER
DOCKED: ENDMDL
________________________________________________________________________________


	BEGINNING GENETIC ALGORITHM DOCKING 2 of 100
Run: 2 Seed: 1744711225 1871967794 [ Run 2 of 100 GA/GALS ]
Beginning LAMARCKIAN GENETIC ALGORITHM (LGA), with a maximum of 2500000 energy evaluations.

Final-Value: -11.314


	FINAL GENETIC ALGORITHM DOCKED STATE
	_______________________________________________


Detailed state:  trans 37.640 12.572 123.443 quatxyzw 0.361616 -0.611199 0.683662 0.168152 center 0.505 -0.158 0.114 ntor 4 7.1859 -49.6479 19.9535 84.6590
State:	 37.640  12.572 123.443   0.367 -0.620  0.694 160.639      7.19  -49.65   19.95   84.66

DOCKED: MODEL        2
DOCKED: USER    Run = 2
DOCKED: USER    DPF = ligand_dock.biased.dpf
DOCKED: USER  
DOCKED: USER    Estimated Free Energy of Binding    =   -9.73 kcal/mol  [=(1)+(2)+(3)-(4)]
DOCKED: USER    Estimated Inhibition Constant, Ki   =   73.99 nM (nanomolar)  [Temperature = 298.15 K]
DOCKED: USER    
DOCKED: USER    (1) Final Intermolecular Energy     =  -10.92 kcal/mol
DOCKED: USER        vdW + Hbond + desolv Energy     =  -10.92 kcal/mol
DOCKED: USER        Electrostatic Energy            =   +0.00 kcal/mol
DOCKED: USER    (2) Final Total Internal Energy     =   -0.39 kcal/mol
DOCKED: USER    (3) Torsional Free Energy           =   +1.19 kcal/mol
DOCKED: USER    (4) Unbound System's Energy  [=(2)] =   -0.39 kcal/mol
DOCKED: USER    
DOCKED: USER    
DOCKED: USER    NEWDPF move ligand.dum.pdbqt
DOCKED: USER    NEWDPF about 0.505000 -0.158000 0.114000
DOCKED: USER    NEWDPF tran0 37.640326 12.572286 123.442797
DOCKED: USER    NEWDPF quaternion0 0.361616 -0.611199 0.683662 0.168152
DOCKED: USER    NEWDPF axisangle0 0.366839 -0.620028 0.693538 160.639242
DOCKED: USER    NEWDPF quat0 0.366839 -0.620028 0.693538 160.639242
DOCKED: USER    NEWDPF dihe0 7.19 -49.65 19.95 84.66 
DOCKED: USER  keepresnum = 1 
DOCKED: USER  
DOCKED: REMARK  Name = 
DOCKED: REMARK  4 active torsions:
DOCKED: REMARK  status: ('A' for Active; 'I' for Inactive)
DOCKED: REMARK    1  A    between atoms: C_3  and  C_4
DOCKED: REMARK    2  A    between atoms: C_4  and  C_5
DOCKED: REMARK    3  A    between atoms: C_5  and  C_6
DOCKED: REMARK    4  A    between atoms: C_6  and  C_7
DOCKED: REMARK                            x       y       z     vdW  Elec       q    Type
DOCKED: REMARK                         _______ _______ _______ _____ _____    ______ ____
DOCKED: USER                              x       y       z     vdW  Elec       q    Type
DOCKED: USER                           _______ _______ _______ _____ _____    ______ ____
DOCKED: ROOT
DOCKED: ATOM      1  C   UNL     1      37.191  12.141 122.213 -0.55 -0.00    +0.000 C 
DOCKED: ENDROOT
DOCKED: BRANCH   1   2
DOCKED: ATOM      2  C   UNL     1      36.077  11.091 122.298 -0.64 -0.00    +0.000 C 
DOCKED: BRANCH   2   5
DOCKED: ATOM      3  O   UNL     1      37.182   7.641 123.396 -2.58 -0.00    +0.000 OA
DOCKED: ATOM      4  N   UNL     1      36.674   8.895 123.436 -0.58 -0.00    +0.000 N 
DOCKED: ATOM      5  C   UNL     1      36.623   9.693 122.251 -0.69 -0.00    +0.000 C 
DOCKED: ATOM      6  O   UNL     1      37.067   9.235 121.164 -2.72 -0.00    +0.000 OA
DOCKED: ATOM      7  H   UNL     1      36.337   9.260 124.286 -0.29 -0.00    +0.000 HD
DOCKED: ENDBRANCH   2   5
DOCKED: ENDBRANCH   1   2
DOCKED: BRANCH   1   8
DOCKED: ATOM      8  C   UNL     1      37.254  13.028 123.464 -0.58 -0.00    +0.000 C 
DOCKED: BRANCH   8   9
DOCKED: ATOM      9  C   UNL     1      36.424  14.269 123.274 -0.45 -0.00    +0.000 A 
DOCKED: ATOM     10  C   UNL     1      35.224  14.436 123.986 -0.44 -0.00    +0.000 A 
DOCKED: ATOM     11  C   UNL     1      34.438  15.574 123.785 -0.52 -0.00    +0.000 A 
DOCKED: ATOM     12  C   UNL     1      34.838  16.549 122.865 -0.34 -0.00    +0.000 A 
DOCKED: ATOM     13  C   UNL     1      36.023  16.384 122.143 -0.23 -0.00    +0.000 A 
DOCKED: ATOM     14  C   UNL     1      36.812  15.246 122.342 -0.30 -0.00    +0.000 A 
DOCKED: ATOM     15  CM  UNL     1      35.627  15.409 123.065 +0.00 -0.00    +0.000 AC
DOCKED: ENDBRANCH   8   9
DOCKED: ENDBRANCH   1   8
DOCKED: TORSDOF 4DOCKED: TER
DOCKED: ENDMDL
________________________________________________________________________________


	BEGINNING GENETIC ALGORITHM DOCKING 3 of 100
Run: 3 Seed: 2044378240 142540851 [ Run 3 of 100 GA/GALS ]
Beginning LAMARCKIAN GENETIC ALGORITHM (LGA), with a maximum of 2500000 energy evaluations.

Final-Value: -11.739


	FINAL GENETIC ALGORITHM DOCKED STATE
	_______________________________________________


Detailed state:  trans 36.760 13.180 123.278 quatxyzw -0.775218 0.153209 0.612685 -0.013477 center 0.505 -0.158 0.114 ntor 4 -113.8027 -154.5587 129.5496 -76.3148
State:	 36.760  13.180 123.278  -0.775  0.153  0.613 -178.456   -113.80 -154.56  129.55  -76.31

DOCKED: MODEL        3
DOCKED: USER    Run = 3
DOCKED: USER    DPF = ligand_dock.biased.dpf
DOCKED: USER  
DOCKED: USER    Estimated Free Energy of Binding    =  -10.18 kcal/mol  [=(1)+(2)+(3)-(4)]
DOCKED: USER    Estimated Inhibition Constant, Ki   =   34.68 nM (nanomolar)  [Temperature = 298.15 K]
DOCKED: USER    
DOCKED: USER    (1) Final Intermolecular Energy     =  -11.37 kcal/mol
DOCKED: USER        vdW + Hbond + desolv Energy     =  -11.37 kcal/mol
DOCKED: USER        Electrostatic Energy            =   +0.00 kcal/mol
DOCKED: USER    (2) Final Total Internal Energy     =   -0.37 kcal/mol
DOCKED: USER    (3) Torsional Free Energy           =   +1.19 kcal/mol
DOCKED: USER    (4) Unbound System's Energy  [=(2)] =   -0.37 kcal/mol
DOCKED: USER    
DOCKED: USER    
DOCKED: USER    NEWDPF move ligand.dum.pdbqt
DOCKED: USER    NEWDPF about 0.505000 -0.158000 0.114000
DOCKED: USER    NEWDPF tran0 36.760150 13.179883 123.278248
DOCKED: USER    NEWDPF quaternion0 -0.775218 0.153209 0.612685 -0.013477
DOCKED: USER    NEWDPF axisangle0 -0.775288 0.153223 0.612740 -178.455581
DOCKED: USER    NEWDPF quat0 -0.775288 0.153223 0.612740 -178.455581
DOCKED: USER    NEWDPF dihe0 -113.80 -154.56 129.55 -76.31 
DOCKED: USER  keepresnum = 1 
DOCKED: USER  
DOCKED: REMARK  Name = 
DOCKED: REMARK  4 active torsions:
DOCKED: REMARK  status: ('A' for Active; 'I' for Inactive)
DOCKED: REMARK    1  A    between atoms: C_3  and  C_4
DOCKED: REMARK    2  A    between atoms: C_4  and  C_5
DOCKED: REMARK    3  A    between atoms: C_5  and  C_6
DOCKED: REMARK    4  A    between atoms: C_6  and  C_7
DOCKED: REMARK                            x       y       z     vdW  Elec       q    Type
DOCKED: REMARK                         _______ _______ _______ _____ _____    ______ ____
DOCKED: USER                              x       y       z     vdW  Elec       q    Type
DOCKED: USER                           _______ _______ _______ _____ _____    ______ ____
DOCKED: ROOT
DOCKED: ATOM      1  C   UNL     1      36.460  11.835 123.274 -0.69 -0.00    +0.000 C 
DOCKED: ENDROOT
DOCKED: BRANCH   1   2
DOCKED: ATOM      2  C   UNL     1      36.699  11.155 121.920 -0.61 -0.00    +0.000 C 
DOCKED: BRANCH   2   5
DOCKED: ATOM      3  O   UNL     1      37.098   7.718 123.455 -2.69 -0.00    +0.000 OA
DOCKED: ATOM      4  N   UNL     1      36.996   9.062 123.337 -0.61 -0.00    +0.000 N 
DOCKED: ATOM      5  C   UNL     1      36.795   9.662 122.055 -0.66 -0.00    +0.000 C 
DOCKED: ATOM      6  O   UNL     1      36.727   8.938 121.025 -2.62 -0.00    +0.000 OA
DOCKED: ATOM      7  H   UNL     1      37.060   9.631 124.138 -0.56 -0.00    +0.000 HD
DOCKED: ENDBRANCH   2   5
DOCKED: ENDBRANCH   1   2
DOCKED: BRANCH   1   8
DOCKED: ATOM      8  C   UNL     1      37.323  13.090 123.457 -0.57 -0.00    +0.000 C 
DOCKED: BRANCH   8   9
DOCKED: ATOM      9  C   UNL     1      36.482  14.332 123.334 -0.45 -0.00    +0.000 A 
DOCKED: ATOM     10  C   UNL     1      36.985  15.467 122.673 -0.32 -0.00    +0.000 A 
DOCKED: ATOM     11  C   UNL     1      36.214  16.630 122.586 -0.25 -0.00    +0.000 A 
DOCKED: ATOM     12  C   UNL     1      34.943  16.674 123.167 -0.37 -0.00    +0.000 A 
DOCKED: ATOM     13  C   UNL     1      34.442  15.555 123.838 -0.53 -0.00    +0.000 A 
DOCKED: ATOM     14  C   UNL     1      35.210  14.389 123.926 -0.44 -0.00    +0.000 A 
DOCKED: ATOM     15  CM  UNL     1      35.713  15.508 123.254 +0.00 -0.00    +0.000 AC
DOCKED: ENDBRANCH   8   9
DOCKED: ENDBRANCH   1   8
DOCKED: TORSDOF 4DOCKED: TER
DOCKED: ENDMDL
________________________________________________________________________________


	BEGINNING GENETIC ALGORITHM DOCKING 4 of 100
Run: 4 Seed: 1987335801 2064074497 [ Run 4 of 100 GA/GALS ]
Beginning LAMARCKIAN GENETIC ALGORITHM (LGA), with a maximum of 2500000 energy evaluations.

Final-Value: -11.354


	FINAL GENETIC ALGORITHM DOCKED STATE
	_______________________________________________


Detailed state:  trans 36.140 12.283 124.171 quatxyzw -0.234498 -0.459569 0.738635 0.433850 center 0.505 -0.158 0.114 ntor 4 -74.3319 -58.2744 -88.4140 95.0619
State:	 36.140  12.283 124.171  -0.260 -0.510  0.820 128.576    -74.33  -58.27  -88.41   95.06

DOCKED: MODEL        4
DOCKED: USER    Run = 4
DOCKED: USER    DPF = ligand_dock.biased.dpf
DOCKED: USER  
DOCKED: USER    Estimated Free Energy of Binding    =   -9.79 kcal/mol  [=(1)+(2)+(3)-(4)]
DOCKED: USER    Estimated Inhibition Constant, Ki   =   66.86 nM (nanomolar)  [Temperature = 298.15 K]
DOCKED: USER    
DOCKED: USER    (1) Final Intermolecular Energy     =  -10.98 kcal/mol
DOCKED: USER        vdW + Hbond + desolv Energy     =  -10.98 kcal/mol
DOCKED: USER        Electrostatic Energy            =   +0.00 kcal/mol
DOCKED: USER    (2) Final Total Internal Energy     =   -0.37 kcal/mol
DOCKED: USER    (3) Torsional Free Energy           =   +1.19 kcal/mol
DOCKED: USER    (4) Unbound System's Energy  [=(2)] =   -0.37 kcal/mol
DOCKED: USER    
DOCKED: USER    
DOCKED: USER    NEWDPF move ligand.dum.pdbqt
DOCKED: USER    NEWDPF about 0.505000 -0.158000 0.114000
DOCKED: USER    NEWDPF tran0 36.139778 12.283266 124.170722
DOCKED: USER    NEWDPF quaternion0 -0.234498 -0.459569 0.738635 0.433850
DOCKED: USER    NEWDPF axisangle0 -0.260268 -0.510074 0.819808 128.575686
DOCKED: USER    NEWDPF quat0 -0.260268 -0.510074 0.819808 128.575686
DOCKED: USER    NEWDPF dihe0 -74.33 -58.27 -88.41 95.06 
DOCKED: USER  keepresnum = 1 
DOCKED: USER  
DOCKED: REMARK  Name = 
DOCKED: REMARK  4 active torsions:
DOCKED: REMARK  status: ('A' for Active; 'I' for Inactive)
DOCKED: REMARK    1  A    between atoms: C_3  and  C_4
DOCKED: REMARK    2  A    between atoms: C_4  and  C_5
DOCKED: REMARK    3  A    between atoms: C_5  and  C_6
DOCKED: REMARK    4  A    between atoms: C_6  and  C_7
DOCKED: REMARK                            x       y       z     vdW  Elec       q    Type
DOCKED: REMARK                         _______ _______ _______ _____ _____    ______ ____
DOCKED: USER                              x       y       z     vdW  Elec       q    Type
DOCKED: USER                           _______ _______ _______ _____ _____    ______ ____
DOCKED: ROOT
DOCKED: ATOM      1  C   UNL     1      37.178  11.904 123.348 -0.62 -0.00    +0.000 C 
DOCKED: ENDROOT
DOCKED: BRANCH   1   2
DOCKED: ATOM      2  C   UNL     1      36.721  11.225 122.051 -0.62 -0.00    +0.000 C 
DOCKED: BRANCH   2   5
DOCKED: ATOM      3  O   UNL     1      37.065   7.720 123.438 -2.69 -0.00    +0.000 OA
DOCKED: ATOM      4  N   UNL     1      36.904   9.062 123.379 -0.59 -0.00    +0.000 N 
DOCKED: ATOM      5  C   UNL     1      36.881   9.734 122.117 -0.63 -0.00    +0.000 C 
DOCKED: ATOM      6  O   UNL     1      37.027   9.075 121.051 -2.71 -0.00    +0.000 OA
DOCKED: ATOM      7  H   UNL     1      36.801   9.580 124.210 -0.51 -0.00    +0.000 HD
DOCKED: ENDBRANCH   2   5
DOCKED: ENDBRANCH   1   2
DOCKED: BRANCH   1   8
DOCKED: ATOM      8  C   UNL     1      36.104  12.831 123.933 -0.56 -0.00    +0.000 C 
DOCKED: BRANCH   8   9
DOCKED: ATOM      9  C   UNL     1      36.130  14.170 123.247 -0.44 -0.00    +0.000 A 
DOCKED: ATOM     10  C   UNL     1      37.043  14.416 122.207 -0.36 -0.00    +0.000 A 
DOCKED: ATOM     11  C   UNL     1      37.088  15.671 121.593 -0.22 -0.00    +0.000 A 
DOCKED: ATOM     12  C   UNL     1      36.231  16.691 122.017 -0.22 -0.00    +0.000 A 
DOCKED: ATOM     13  C   UNL     1      35.330  16.458 123.060 -0.35 -0.00    +0.000 A 
DOCKED: ATOM     14  C   UNL     1      35.282  15.204 123.677 -0.47 -0.00    +0.000 A 
DOCKED: ATOM     15  CM  UNL     1      36.184  15.435 122.634 +0.00 -0.00    +0.000 AC
DOCKED: ENDBRANCH   8   9
DOCKED: ENDBRANCH   1   8
DOCKED: TORSDOF 4DOCKED: TER
DOCKED: ENDMDL
________________________________________________________________________________


	BEGINNING GENETIC ALGORITHM DOCKING 5 of 100
Run: 5 Seed: 227124642 1347912225 [ Run 5 of 100 GA/GALS ]
Beginning LAMARCKIAN GENETIC ALGORITHM (LGA), with a maximum of 2500000 energy evaluations.

Final-Value: -11.641


	FINAL GENETIC ALGORITHM DOCKED STATE
	_______________________________________________


Detailed state:  trans 36.170 11.925 123.975 quatxyzw -0.136773 -0.520269 0.676931 0.502372 center 0.505 -0.158 0.114 ntor 4 -88.7886 -34.7746 86.0967 65.0996
State:	 36.170  11.925 123.975  -0.158 -0.602  0.783 119.686    -88.79  -34.77   86.10   65.10

DOCKED: MODEL        5
DOCKED: USER    Run = 5
DOCKED: USER    DPF = ligand_dock.biased.dpf
DOCKED: USER  
DOCKED: USER    Estimated Free Energy of Binding    =  -10.06 kcal/mol  [=(1)+(2)+(3)-(4)]
DOCKED: USER    Estimated Inhibition Constant, Ki   =   42.13 nM (nanomolar)  [Temperature = 298.15 K]
DOCKED: USER    
DOCKED: USER    (1) Final Intermolecular Energy     =  -11.25 kcal/mol
DOCKED: USER        vdW + Hbond + desolv Energy     =  -11.25 kcal/mol
DOCKED: USER        Electrostatic Energy            =   +0.00 kcal/mol
DOCKED: USER    (2) Final Total Internal Energy     =   -0.39 kcal/mol
DOCKED: USER    (3) Torsional Free Energy           =   +1.19 kcal/mol
DOCKED: USER    (4) Unbound System's Energy  [=(2)] =   -0.39 kcal/mol
DOCKED: USER    
DOCKED: USER    
DOCKED: USER    NEWDPF move ligand.dum.pdbqt
DOCKED: USER    NEWDPF about 0.505000 -0.158000 0.114000
DOCKED: USER    NEWDPF tran0 36.169583 11.924549 123.974948
DOCKED: USER    NEWDPF quaternion0 -0.136773 -0.520269 0.676931 0.502372
DOCKED: USER    NEWDPF axisangle0 -0.158183 -0.601710 0.782894 119.685949
DOCKED: USER    NEWDPF quat0 -0.158183 -0.601710 0.782894 119.685949
DOCKED: USER    NEWDPF dihe0 -88.79 -34.77 86.10 65.10 
DOCKED: USER  keepresnum = 1 
DOCKED: USER  
DOCKED: REMARK  Name = 
DOCKED: REMARK  4 active torsions:
DOCKED: REMARK  status: ('A' for Active; 'I' for Inactive)
DOCKED: REMARK    1  A    between atoms: C_3  and  C_4
DOCKED: REMARK    2  A    between atoms: C_4  and  C_5
DOCKED: REMARK    3  A    between atoms: C_5  and  C_6
DOCKED: REMARK    4  A    between atoms: C_6  and  C_7
DOCKED: REMARK                            x       y       z     vdW  Elec       q    Type
DOCKED: REMARK                         _______ _______ _______ _____ _____    ______ ____
DOCKED: USER                              x       y       z     vdW  Elec       q    Type
DOCKED: USER                           _______ _______ _______ _____ _____    ______ ____
DOCKED: ROOT
DOCKED: ATOM      1  C   UNL     1      37.177  11.854 123.037 -0.60 -0.00    +0.000 C 
DOCKED: ENDROOT
DOCKED: BRANCH   1   2
DOCKED: ATOM      2  C   UNL     1      36.781  11.096 121.764 -0.57 -0.00    +0.000 C 
DOCKED: BRANCH   2   5
DOCKED: ATOM      3  O   UNL     1      37.060   7.719 123.452 -2.69 -0.00    +0.000 OA
DOCKED: ATOM      4  N   UNL     1      37.003   9.059 123.273 -0.62 -0.00    +0.000 N 
DOCKED: ATOM      5  C   UNL     1      36.826   9.608 121.965 -0.65 -0.00    +0.000 C 
DOCKED: ATOM      6  O   UNL     1      36.736   8.842 120.968 -2.62 -0.00    +0.000 OA
DOCKED: ATOM      7  H   UNL     1      37.085   9.660 124.048 -0.53 -0.00    +0.000 HD
DOCKED: ENDBRANCH   2   5
DOCKED: ENDBRANCH   1   2
DOCKED: BRANCH   1   8
DOCKED: ATOM      8  C   UNL     1      35.962  12.445 123.766 -0.63 -0.00    +0.000 C 
DOCKED: BRANCH   8   9
DOCKED: ATOM      9  C   UNL     1      35.983  13.948 123.695 -0.50 -0.00    +0.000 A 
DOCKED: ATOM     10  C   UNL     1      34.915  14.698 124.217 -0.38 -0.00    +0.000 A 
DOCKED: ATOM     11  C   UNL     1      34.921  16.093 124.121 -0.47 -0.00    +0.000 A 
DOCKED: ATOM     12  C   UNL     1      35.986  16.748 123.496 -0.30 -0.00    +0.000 A 
DOCKED: ATOM     13  C   UNL     1      37.045  16.009 122.961 -0.29 -0.00    +0.000 A 
DOCKED: ATOM     14  C   UNL     1      37.043  14.613 123.055 -0.41 -0.00    +0.000 A 
DOCKED: ATOM     15  CM  UNL     1      35.982  15.351 123.590 +0.00 -0.00    +0.000 AC
DOCKED: ENDBRANCH   8   9
DOCKED: ENDBRANCH   1   8
DOCKED: TORSDOF 4DOCKED: TER
DOCKED: ENDMDL
________________________________________________________________________________


	BEGINNING GENETIC ALGORITHM DOCKING 6 of 100
Run: 6 Seed: 400705604 1992030674 [ Run 6 of 100 GA/GALS ]
Beginning LAMARCKIAN GENETIC ALGORITHM (LGA), with a maximum of 2500000 energy evaluations.

Final-Value: -11.108


	FINAL GENETIC ALGORITHM DOCKED STATE
	_______________________________________________


Detailed state:  trans 35.377 12.307 123.554 quatxyzw -0.541507 -0.277735 0.596504 0.523275 center 0.505 -0.158 0.114 ntor 4 -125.3978 -53.4400 117.8805 80.7185
State:	 35.377  12.307 123.554  -0.635 -0.326  0.700 116.896   -125.40  -53.44  117.88   80.72

DOCKED: MODEL        6
DOCKED: USER    Run = 6
DOCKED: USER    DPF = ligand_dock.biased.dpf
DOCKED: USER  
DOCKED: USER    Estimated Free Energy of Binding    =   -9.54 kcal/mol  [=(1)+(2)+(3)-(4)]
DOCKED: USER    Estimated Inhibition Constant, Ki   =  100.87 nM (nanomolar)  [Temperature = 298.15 K]
DOCKED: USER    
DOCKED: USER    (1) Final Intermolecular Energy     =  -10.74 kcal/mol
DOCKED: USER        vdW + Hbond + desolv Energy     =  -10.74 kcal/mol
DOCKED: USER        Electrostatic Energy            =   +0.00 kcal/mol
DOCKED: USER    (2) Final Total Internal Energy     =   -0.37 kcal/mol
DOCKED: USER    (3) Torsional Free Energy           =   +1.19 kcal/mol
DOCKED: USER    (4) Unbound System's Energy  [=(2)] =   -0.37 kcal/mol
DOCKED: USER    
DOCKED: USER    
DOCKED: USER    NEWDPF move ligand.dum.pdbqt
DOCKED: USER    NEWDPF about 0.505000 -0.158000 0.114000
DOCKED: USER    NEWDPF tran0 35.376829 12.306772 123.553577
DOCKED: USER    NEWDPF quaternion0 -0.541507 -0.277735 0.596504 0.523275
DOCKED: USER    NEWDPF axisangle0 -0.635450 -0.325917 0.699987 116.895656
DOCKED: USER    NEWDPF quat0 -0.635450 -0.325917 0.699987 116.895656
DOCKED: USER    NEWDPF dihe0 -125.40 -53.44 117.88 80.72 
DOCKED: USER  keepresnum = 1 
DOCKED: USER  
DOCKED: REMARK  Name = 
DOCKED: REMARK  4 active torsions:
DOCKED: REMARK  status: ('A' for Active; 'I' for Inactive)
DOCKED: REMARK    1  A    between atoms: C_3  and  C_4
DOCKED: REMARK    2  A    between atoms: C_4  and  C_5
DOCKED: REMARK    3  A    between atoms: C_5  and  C_6
DOCKED: REMARK    4  A    between atoms: C_6  and  C_7
DOCKED: REMARK                            x       y       z     vdW  Elec       q    Type
DOCKED: REMARK                         _______ _______ _______ _____ _____    ______ ____
DOCKED: USER                              x       y       z     vdW  Elec       q    Type
DOCKED: USER                           _______ _______ _______ _____ _____    ______ ____
DOCKED: ROOT
DOCKED: ATOM      1  C   UNL     1      36.663  11.821 123.648 -0.70 -0.00    +0.000 C 
DOCKED: ENDROOT
DOCKED: BRANCH   1   2
DOCKED: ATOM      2  C   UNL     1      37.208  11.259 122.330 -0.42 -0.00    +0.000 C 
DOCKED: BRANCH   2   5
DOCKED: ATOM      3  O   UNL     1      36.920   7.635 123.386 -2.53 -0.00    +0.000 OA
DOCKED: ATOM      4  N   UNL     1      37.035   8.982 123.452 -0.59 -0.00    +0.000 N 
DOCKED: ATOM      5  C   UNL     1      37.062   9.766 122.257 -0.59 -0.00    +0.000 C 
DOCKED: ATOM      6  O   UNL     1      36.995   9.201 121.132 -2.71 -0.00    +0.000 OA
DOCKED: ATOM      7  H   UNL     1      37.099   9.425 124.329 -0.54 -0.00    +0.000 HD
DOCKED: ENDBRANCH   2   5
DOCKED: ENDBRANCH   1   2
DOCKED: BRANCH   1   8
DOCKED: ATOM      8  C   UNL     1      35.558  12.862 123.427 -0.43 -0.00    +0.000 C 
DOCKED: BRANCH   8   9
DOCKED: ATOM      9  C   UNL     1      36.127  14.255 123.472 -0.47 -0.00    +0.000 A 
DOCKED: ATOM     10  C   UNL     1      35.323  15.338 123.865 -0.48 -0.00    +0.000 A 
DOCKED: ATOM     11  C   UNL     1      35.844  16.635 123.876 -0.33 -0.00    +0.000 A 
DOCKED: ATOM     12  C   UNL     1      37.167  16.862 123.485 -0.24 -0.00    +0.000 A 
DOCKED: ATOM     13  C   UNL     1      37.970  15.792 123.080 -0.29 -0.00    +0.000 A 
DOCKED: ATOM     14  C   UNL     1      37.452  14.493 123.068 -0.42 -0.00    +0.000 A 
DOCKED: ATOM     15  CM  UNL     1      36.647  15.562 123.474 +0.00 -0.00    +0.000 AC
DOCKED: ENDBRANCH   8   9
DOCKED: ENDBRANCH   1   8
DOCKED: TORSDOF 4DOCKED: TER
DOCKED: ENDMDL
________________________________________________________________________________


	BEGINNING GENETIC ALGORITHM DOCKING 7 of 100
Run: 7 Seed: 1350632144 378900920 [ Run 7 of 100 GA/GALS ]
Beginning LAMARCKIAN GENETIC ALGORITHM (LGA), with a maximum of 2500000 energy evaluations.

Final-Value: -10.851


	FINAL GENETIC ALGORITHM DOCKED STATE
	_______________________________________________


Detailed state:  trans 37.535 13.119 120.640 quatxyzw -0.563787 0.033064 -0.824134 -0.043068 center 0.505 -0.158 0.114 ntor 4 54.9692 -134.0116 172.7526 -118.3172
State:	 37.535  13.119 120.640  -0.564  0.033 -0.825 -175.063     54.97 -134.01  172.75 -118.32

DOCKED: MODEL        7
DOCKED: USER    Run = 7
DOCKED: USER    DPF = ligand_dock.biased.dpf
DOCKED: USER  
DOCKED: USER    Estimated Free Energy of Binding    =   -9.26 kcal/mol  [=(1)+(2)+(3)-(4)]
DOCKED: USER    Estimated Inhibition Constant, Ki   =  163.26 nM (nanomolar)  [Temperature = 298.15 K]
DOCKED: USER    
DOCKED: USER    (1) Final Intermolecular Energy     =  -10.45 kcal/mol
DOCKED: USER        vdW + Hbond + desolv Energy     =  -10.45 kcal/mol
DOCKED: USER        Electrostatic Energy            =   +0.00 kcal/mol
DOCKED: USER    (2) Final Total Internal Energy     =   -0.40 kcal/mol
DOCKED: USER    (3) Torsional Free Energy           =   +1.19 kcal/mol
DOCKED: USER    (4) Unbound System's Energy  [=(2)] =   -0.40 kcal/mol
DOCKED: USER    
DOCKED: USER    
DOCKED: USER    NEWDPF move ligand.dum.pdbqt
DOCKED: USER    NEWDPF about 0.505000 -0.158000 0.114000
DOCKED: USER    NEWDPF tran0 37.534901 13.119302 120.640048
DOCKED: USER    NEWDPF quaternion0 -0.563787 0.033064 -0.824134 -0.043068
DOCKED: USER    NEWDPF axisangle0 -0.564310 0.033095 -0.824899 -175.063294
DOCKED: USER    NEWDPF quat0 -0.564310 0.033095 -0.824899 -175.063294
DOCKED: USER    NEWDPF dihe0 54.97 -134.01 172.75 -118.32 
DOCKED: USER  keepresnum = 1 
DOCKED: USER  
DOCKED: REMARK  Name = 
DOCKED: REMARK  4 active torsions:
DOCKED: REMARK  status: ('A' for Active; 'I' for Inactive)
DOCKED: REMARK    1  A    between atoms: C_3  and  C_4
DOCKED: REMARK    2  A    between atoms: C_4  and  C_5
DOCKED: REMARK    3  A    between atoms: C_5  and  C_6
DOCKED: REMARK    4  A    between atoms: C_6  and  C_7
DOCKED: REMARK                            x       y       z     vdW  Elec       q    Type
DOCKED: REMARK                         _______ _______ _______ _____ _____    ______ ____
DOCKED: USER                              x       y       z     vdW  Elec       q    Type
DOCKED: USER                           _______ _______ _______ _____ _____    ______ ____
DOCKED: ROOT
DOCKED: ATOM      1  C   UNL     1      37.497  11.744 120.725 -0.48 -0.00    +0.000 C 
DOCKED: ENDROOT
DOCKED: BRANCH   1   2
DOCKED: ATOM      2  C   UNL     1      36.943  11.224 122.057 -0.58 -0.00    +0.000 C 
DOCKED: BRANCH   2   5
DOCKED: ATOM      3  O   UNL     1      37.095   7.706 123.445 -2.68 -0.00    +0.000 OA
DOCKED: ATOM      4  N   UNL     1      37.054   9.057 123.386 -0.60 -0.00    +0.000 N 
DOCKED: ATOM      5  C   UNL     1      36.970   9.724 122.124 -0.61 -0.00    +0.000 C 
DOCKED: ATOM      6  O   UNL     1      36.948   9.053 121.058 -2.69 -0.00    +0.000 OA
DOCKED: ATOM      7  H   UNL     1      37.083   9.584 124.216 -0.58 -0.00    +0.000 HD
DOCKED: ENDBRANCH   2   5
DOCKED: ENDBRANCH   1   2
DOCKED: BRANCH   1   8
DOCKED: ATOM      8  C   UNL     1      36.992  13.155 120.393 -0.41 -0.00    +0.000 C 
DOCKED: BRANCH   8   9
DOCKED: ATOM      9  C   UNL     1      37.497  14.148 121.404 -0.35 -0.00    +0.000 A 
DOCKED: ATOM     10  C   UNL     1      36.680  14.546 122.477 -0.34 -0.00    +0.000 A 
DOCKED: ATOM     11  C   UNL     1      37.138  15.493 123.397 -0.33 -0.00    +0.000 A 
DOCKED: ATOM     12  C   UNL     1      38.409  16.058 123.248 -0.22 -0.00    +0.000 A 
DOCKED: ATOM     13  C   UNL     1      39.221  15.678 122.177 -0.28 -0.00    +0.000 A 
DOCKED: ATOM     14  C   UNL     1      38.767  14.731 121.254 -0.30 -0.00    +0.000 A 
DOCKED: ATOM     15  CM  UNL     1      37.952  15.109 122.326 +0.00 -0.00    +0.000 AC
DOCKED: ENDBRANCH   8   9
DOCKED: ENDBRANCH   1   8
DOCKED: TORSDOF 4DOCKED: TER
DOCKED: ENDMDL
________________________________________________________________________________


	BEGINNING GENETIC ALGORITHM DOCKING 8 of 100
Run: 8 Seed: 420513178 1039855527 [ Run 8 of 100 GA/GALS ]
Beginning LAMARCKIAN GENETIC ALGORITHM (LGA), with a maximum of 2500000 energy evaluations.

Final-Value: -11.674


	FINAL GENETIC ALGORITHM DOCKED STATE
	_______________________________________________


Detailed state:  trans 37.213 13.324 123.071 quatxyzw -0.504041 0.092091 0.852875 0.100326 center 0.505 -0.158 0.114 ntor 4 -61.9958 -147.5344 -96.5288 -80.2395
State:	 37.213  13.324 123.071  -0.507  0.093  0.857 168.484    -62.00 -147.53  -96.53  -80.24

DOCKED: MODEL        8
DOCKED: USER    Run = 8
DOCKED: USER    DPF = ligand_dock.biased.dpf
DOCKED: USER  
DOCKED: USER    Estimated Free Energy of Binding    =  -10.10 kcal/mol  [=(1)+(2)+(3)-(4)]
DOCKED: USER    Estimated Inhibition Constant, Ki   =   39.19 nM (nanomolar)  [Temperature = 298.15 K]
DOCKED: USER    
DOCKED: USER    (1) Final Intermolecular Energy     =  -11.30 kcal/mol
DOCKED: USER        vdW + Hbond + desolv Energy     =  -11.30 kcal/mol
DOCKED: USER        Electrostatic Energy            =   +0.00 kcal/mol
DOCKED: USER    (2) Final Total Internal Energy     =   -0.38 kcal/mol
DOCKED: USER    (3) Torsional Free Energy           =   +1.19 kcal/mol
DOCKED: USER    (4) Unbound System's Energy  [=(2)] =   -0.38 kcal/mol
DOCKED: USER    
DOCKED: USER    
DOCKED: USER    NEWDPF move ligand.dum.pdbqt
DOCKED: USER    NEWDPF about 0.505000 -0.158000 0.114000
DOCKED: USER    NEWDPF tran0 37.212613 13.323771 123.070754
DOCKED: USER    NEWDPF quaternion0 -0.504041 0.092091 0.852875 0.100326
DOCKED: USER    NEWDPF axisangle0 -0.506597 0.092558 0.857200 168.484087
DOCKED: USER    NEWDPF quat0 -0.506597 0.092558 0.857200 168.484087
DOCKED: USER    NEWDPF dihe0 -62.00 -147.53 -96.53 -80.24 
DOCKED: USER  keepresnum = 1 
DOCKED: USER  
DOCKED: REMARK  Name = 
DOCKED: REMARK  4 active torsions:
DOCKED: REMARK  status: ('A' for Active; 'I' for Inactive)
DOCKED: REMARK    1  A    between atoms: C_3  and  C_4
DOCKED: REMARK    2  A    between atoms: C_4  and  C_5
DOCKED: REMARK    3  A    between atoms: C_5  and  C_6
DOCKED: REMARK    4  A    between atoms: C_6  and  C_7
DOCKED: REMARK                            x       y       z     vdW  Elec       q    Type
DOCKED: REMARK                         _______ _______ _______ _____ _____    ______ ____
DOCKED: USER                              x       y       z     vdW  Elec       q    Type
DOCKED: USER                           _______ _______ _______ _____ _____    ______ ____
DOCKED: ROOT
DOCKED: ATOM      1  C   UNL     1      37.202  11.954 123.220 -0.60 -0.00    +0.000 C 
DOCKED: ENDROOT
DOCKED: BRANCH   1   2
DOCKED: ATOM      2  C   UNL     1      36.554  11.211 122.045 -0.62 -0.00    +0.000 C 
DOCKED: BRANCH   2   5
DOCKED: ATOM      3  O   UNL     1      37.073   7.731 123.439 -2.68 -0.00    +0.000 OA
DOCKED: ATOM      4  N   UNL     1      36.831   9.060 123.376 -0.58 -0.00    +0.000 N 
DOCKED: ATOM      5  C   UNL     1      36.804   9.732 122.115 -0.65 -0.00    +0.000 C 
DOCKED: ATOM      6  O   UNL     1      37.023   9.087 121.054 -2.71 -0.00    +0.000 OA
DOCKED: ATOM      7  H   UNL     1      36.672   9.569 124.204 -0.48 -0.00    +0.000 HD
DOCKED: ENDBRANCH   2   5
DOCKED: ENDBRANCH   1   2
DOCKED: BRANCH   1   8
DOCKED: ATOM      8  C   UNL     1      37.751  13.327 122.812 -0.53 -0.00    +0.000 C 
DOCKED: BRANCH   8   9
DOCKED: ATOM      9  C   UNL     1      36.824  14.423 123.264 -0.43 -0.00    +0.000 A 
DOCKED: ATOM     10  C   UNL     1      35.575  14.108 123.826 -0.49 -0.00    +0.000 A 
DOCKED: ATOM     11  C   UNL     1      34.702  15.128 124.217 -0.51 -0.00    +0.000 A 
DOCKED: ATOM     12  C   UNL     1      35.064  16.467 124.040 -0.42 -0.00    +0.000 A 
DOCKED: ATOM     13  C   UNL     1      36.298  16.788 123.468 -0.28 -0.00    +0.000 A 
DOCKED: ATOM     14  C   UNL     1      37.174  15.771 123.077 -0.31 -0.00    +0.000 A 
DOCKED: ATOM     15  CM  UNL     1      35.939  15.448 123.648 +0.00 -0.00    +0.000 AC
DOCKED: ENDBRANCH   8   9
DOCKED: ENDBRANCH   1   8
DOCKED: TORSDOF 4DOCKED: TER
DOCKED: ENDMDL
________________________________________________________________________________


	BEGINNING GENETIC ALGORITHM DOCKING 9 of 100
Run: 9 Seed: 242062676 1321170158 [ Run 9 of 100 GA/GALS ]
Beginning LAMARCKIAN GENETIC ALGORITHM (LGA), with a maximum of 2500000 energy evaluations.

Final-Value: -11.663


	FINAL GENETIC ALGORITHM DOCKED STATE
	_______________________________________________


Detailed state:  trans 36.307 12.868 123.363 quatxyzw -0.911881 0.181194 0.289098 -0.228174 center 0.505 -0.158 0.114 ntor 4 -140.4005 179.7135 2.9297 -75.9003
State:	 36.307  12.868 123.363  -0.937  0.186  0.297 -153.621   -140.40  179.71    2.93  -75.90

DOCKED: MODEL        9
DOCKED: USER    Run = 9
DOCKED: USER    DPF = ligand_dock.biased.dpf
DOCKED: USER  
DOCKED: USER    Estimated Free Energy of Binding    =  -10.08 kcal/mol  [=(1)+(2)+(3)-(4)]
DOCKED: USER    Estimated Inhibition Constant, Ki   =   41.19 nM (nanomolar)  [Temperature = 298.15 K]
DOCKED: USER    
DOCKED: USER    (1) Final Intermolecular Energy     =  -11.27 kcal/mol
DOCKED: USER        vdW + Hbond + desolv Energy     =  -11.27 kcal/mol
DOCKED: USER        Electrostatic Energy            =   +0.00 kcal/mol
DOCKED: USER    (2) Final Total Internal Energy     =   -0.40 kcal/mol
DOCKED: USER    (3) Torsional Free Energy           =   +1.19 kcal/mol
DOCKED: USER    (4) Unbound System's Energy  [=(2)] =   -0.40 kcal/mol
DOCKED: USER    
DOCKED: USER    
DOCKED: USER    NEWDPF move ligand.dum.pdbqt
DOCKED: USER    NEWDPF about 0.505000 -0.158000 0.114000
DOCKED: USER    NEWDPF tran0 36.306857 12.868262 123.363123
DOCKED: USER    NEWDPF quaternion0 -0.911881 0.181194 0.289098 -0.228174
DOCKED: USER    NEWDPF axisangle0 -0.936588 0.186103 0.296931 -153.620843
DOCKED: USER    NEWDPF quat0 -0.936588 0.186103 0.296931 -153.620843
DOCKED: USER    NEWDPF dihe0 -140.40 179.71 2.93 -75.90 
DOCKED: USER  keepresnum = 1 
DOCKED: USER  
DOCKED: REMARK  Name = 
DOCKED: REMARK  4 active torsions:
DOCKED: REMARK  status: ('A' for Active; 'I' for Inactive)
DOCKED: REMARK    1  A    between atoms: C_3  and  C_4
DOCKED: REMARK    2  A    between atoms: C_4  and  C_5
DOCKED: REMARK    3  A    between atoms: C_5  and  C_6
DOCKED: REMARK    4  A    between atoms: C_6  and  C_7
DOCKED: REMARK                            x       y       z     vdW  Elec       q    Type
DOCKED: REMARK                         _______ _______ _______ _____ _____    ______ ____
DOCKED: USER                              x       y       z     vdW  Elec       q    Type
DOCKED: USER                           _______ _______ _______ _____ _____    ______ ____
DOCKED: ROOT
DOCKED: ATOM      1  C   UNL     1      35.863  11.696 122.791 -0.60 -0.00    +0.000 C 
DOCKED: ENDROOT
DOCKED: BRANCH   1   2
DOCKED: ATOM      2  C   UNL     1      36.852  11.084 121.792 -0.56 -0.00    +0.000 C 
DOCKED: BRANCH   2   5
DOCKED: ATOM      3  O   UNL     1      37.206   7.705 123.460 -2.65 -0.00    +0.000 OA
DOCKED: ATOM      4  N   UNL     1      37.066   9.040 123.292 -0.62 -0.00    +0.000 N 
DOCKED: ATOM      5  C   UNL     1      36.988   9.600 121.979 -0.62 -0.00    +0.000 C 
DOCKED: ATOM      6  O   UNL     1      37.064   8.850 120.969 -2.71 -0.00    +0.000 OA
DOCKED: ATOM      7  H   UNL     1      37.019   9.630 124.079 -0.54 -0.00    +0.000 HD
DOCKED: ENDBRANCH   2   5
DOCKED: ENDBRANCH   1   2
DOCKED: BRANCH   1   8
DOCKED: ATOM      8  C   UNL     1      36.556  12.588 123.829 -0.63 -0.00    +0.000 C 
DOCKED: BRANCH   8   9
DOCKED: ATOM      9  C   UNL     1      36.273  14.040 123.551 -0.48 -0.00    +0.000 A 
DOCKED: ATOM     10  C   UNL     1      35.184  14.681 124.167 -0.46 -0.00    +0.000 A 
DOCKED: ATOM     11  C   UNL     1      34.903  16.020 123.884 -0.47 -0.00    +0.000 A 
DOCKED: ATOM     12  C   UNL     1      35.698  16.727 122.977 -0.30 -0.00    +0.000 A 
DOCKED: ATOM     13  C   UNL     1      36.774  16.094 122.350 -0.25 -0.00    +0.000 A 
DOCKED: ATOM     14  C   UNL     1      37.059  14.753 122.631 -0.37 -0.00    +0.000 A 
DOCKED: ATOM     15  CM  UNL     1      35.982  15.386 123.260 +0.00 -0.00    +0.000 AC
DOCKED: ENDBRANCH   8   9
DOCKED: ENDBRANCH   1   8
DOCKED: TORSDOF 4DOCKED: TER
DOCKED: ENDMDL
________________________________________________________________________________


	BEGINNING GENETIC ALGORITHM DOCKING 10 of 100
Run: 10 Seed: 1717169713 1645020197 [ Run 10 of 100 GA/GALS ]
Beginning LAMARCKIAN GENETIC ALGORITHM (LGA), with a maximum of 2500000 energy evaluations.

Final-Value: -11.452


	FINAL GENETIC ALGORITHM DOCKED STATE
	_______________________________________________


Detailed state:  trans 36.874 13.091 123.115 quatxyzw -0.494850 0.201205 0.839861 0.096298 center 0.505 -0.158 0.114 ntor 4 -41.9918 180.0000 -91.9637 -77.9830
State:	 36.874  13.091 123.115  -0.497  0.202  0.844 168.948    -41.99  180.00  -91.96  -77.98

DOCKED: MODEL       10
DOCKED: USER    Run = 10
DOCKED: USER    DPF = ligand_dock.biased.dpf
DOCKED: USER  
DOCKED: USER    Estimated Free Energy of Binding    =   -9.88 kcal/mol  [=(1)+(2)+(3)-(4)]
DOCKED: USER    Estimated Inhibition Constant, Ki   =   57.60 nM (nanomolar)  [Temperature = 298.15 K]
DOCKED: USER    
DOCKED: USER    (1) Final Intermolecular Energy     =  -11.07 kcal/mol
DOCKED: USER        vdW + Hbond + desolv Energy     =  -11.07 kcal/mol
DOCKED: USER        Electrostatic Energy            =   +0.00 kcal/mol
DOCKED: USER    (2) Final Total Internal Energy     =   -0.38 kcal/mol
DOCKED: USER    (3) Torsional Free Energy           =   +1.19 kcal/mol
DOCKED: USER    (4) Unbound System's Energy  [=(2)] =   -0.38 kcal/mol
DOCKED: USER    
DOCKED: USER    
DOCKED: USER    NEWDPF move ligand.dum.pdbqt
DOCKED: USER    NEWDPF about 0.505000 -0.158000 0.114000
DOCKED: USER    NEWDPF tran0 36.873584 13.091355 123.115382
DOCKED: USER    NEWDPF quaternion0 -0.494850 0.201205 0.839861 0.096298
DOCKED: USER    NEWDPF axisangle0 -0.497161 0.202145 0.843782 168.947915
DOCKED: USER    NEWDPF quat0 -0.497161 0.202145 0.843782 168.947915
DOCKED: USER    NEWDPF dihe0 -41.99 180.00 -91.96 -77.98 
DOCKED: USER  keepresnum = 1 
DOCKED: USER  
DOCKED: REMARK  Name = 
DOCKED: REMARK  4 active torsions:
DOCKED: REMARK  status: ('A' for Active; 'I' for Inactive)
DOCKED: REMARK    1  A    between atoms: C_3  and  C_4
DOCKED: REMARK    2  A    between atoms: C_4  and  C_5
DOCKED: REMARK    3  A    between atoms: C_5  and  C_6
DOCKED: REMARK    4  A    between atoms: C_6  and  C_7
DOCKED: REMARK                            x       y       z     vdW  Elec       q    Type
DOCKED: REMARK                         _______ _______ _______ _____ _____    ______ ____
DOCKED: USER                              x       y       z     vdW  Elec       q    Type
DOCKED: USER                           _______ _______ _______ _____ _____    ______ ____
DOCKED: ROOT
DOCKED: ATOM      1  C   UNL     1      36.701  11.783 123.514 -0.70 -0.00    +0.000 C 
DOCKED: ENDROOT
DOCKED: BRANCH   1   2
DOCKED: ATOM      2  C   UNL     1      35.982  10.913 122.476 -0.66 -0.00    +0.000 C 
DOCKED: BRANCH   2   5
DOCKED: ATOM      3  O   UNL     1      37.427   7.517 123.316 -2.36 -0.00    +0.000 OA
DOCKED: ATOM      4  N   UNL     1      36.819   8.718 123.453 -0.62 -0.00    +0.000 N 
DOCKED: ATOM      5  C   UNL     1      36.640   9.572 122.321 -0.71 -0.00    +0.000 C 
DOCKED: ATOM      6  O   UNL     1      37.064   9.214 121.189 -2.74 -0.00    +0.000 OA
DOCKED: ATOM      7  H   UNL     1      36.498   9.005 124.338 -0.32 -0.00    +0.000 HD
DOCKED: ENDBRANCH   2   5
DOCKED: ENDBRANCH   1   2
DOCKED: BRANCH   1   8
DOCKED: ATOM      8  C   UNL     1      37.411  12.985 122.877 -0.58 -0.00    +0.000 C 
DOCKED: BRANCH   8   9
DOCKED: ATOM      9  C   UNL     1      36.643  14.253 123.138 -0.45 -0.00    +0.000 A 
DOCKED: ATOM     10  C   UNL     1      35.422  14.211 123.834 -0.46 -0.00    +0.000 A 
DOCKED: ATOM     11  C   UNL     1      34.694  15.385 124.048 -0.52 -0.00    +0.000 A 
DOCKED: ATOM     12  C   UNL     1      35.172  16.606 123.561 -0.38 -0.00    +0.000 A 
DOCKED: ATOM     13  C   UNL     1      36.378  16.653 122.857 -0.26 -0.00    +0.000 A 
DOCKED: ATOM     14  C   UNL     1      37.110  15.481 122.641 -0.31 -0.00    +0.000 A 
DOCKED: ATOM     15  CM  UNL     1      35.903  15.432 123.346 +0.00 -0.00    +0.000 AC
DOCKED: ENDBRANCH   8   9
DOCKED: ENDBRANCH   1   8
DOCKED: TORSDOF 4DOCKED: TER
DOCKED: ENDMDL
________________________________________________________________________________


	BEGINNING GENETIC ALGORITHM DOCKING 11 of 100
Run: 11 Seed: 893842828 1729671492 [ Run 11 of 100 GA/GALS ]
Beginning LAMARCKIAN GENETIC ALGORITHM (LGA), with a maximum of 2500000 energy evaluations.

Final-Value: -11.739


	FINAL GENETIC ALGORITHM DOCKED STATE
	_______________________________________________


Detailed state:  trans 36.823 13.146 123.229 quatxyzw -0.786569 0.179015 0.589730 -0.038506 center 0.505 -0.158 0.114 ntor 4 -113.6854 -159.5657 -74.6494 -62.7877
State:	 36.823  13.146 123.229  -0.787  0.179  0.590 -175.586   -113.69 -159.57  -74.65  -62.79

DOCKED: MODEL       11
DOCKED: USER    Run = 11
DOCKED: USER    DPF = ligand_dock.biased.dpf
DOCKED: USER  
DOCKED: USER    Estimated Free Energy of Binding    =  -10.19 kcal/mol  [=(1)+(2)+(3)-(4)]
DOCKED: USER    Estimated Inhibition Constant, Ki   =   34.16 nM (nanomolar)  [Temperature = 298.15 K]
DOCKED: USER    
DOCKED: USER    (1) Final Intermolecular Energy     =  -11.38 kcal/mol
DOCKED: USER        vdW + Hbond + desolv Energy     =  -11.38 kcal/mol
DOCKED: USER        Electrostatic Energy            =   +0.00 kcal/mol
DOCKED: USER    (2) Final Total Internal Energy     =   -0.36 kcal/mol
DOCKED: USER    (3) Torsional Free Energy           =   +1.19 kcal/mol
DOCKED: USER    (4) Unbound System's Energy  [=(2)] =   -0.36 kcal/mol
DOCKED: USER    
DOCKED: USER    
DOCKED: USER    NEWDPF move ligand.dum.pdbqt
DOCKED: USER    NEWDPF about 0.505000 -0.158000 0.114000
DOCKED: USER    NEWDPF tran0 36.823241 13.146179 123.228538
DOCKED: USER    NEWDPF quaternion0 -0.786569 0.179015 0.589730 -0.038506
DOCKED: USER    NEWDPF axisangle0 -0.787152 0.179148 0.590167 -175.586465
DOCKED: USER    NEWDPF quat0 -0.787152 0.179148 0.590167 -175.586465
DOCKED: USER    NEWDPF dihe0 -113.69 -159.57 -74.65 -62.79 
DOCKED: USER  keepresnum = 1 
DOCKED: USER  
DOCKED: REMARK  Name = 
DOCKED: REMARK  4 active torsions:
DOCKED: REMARK  status: ('A' for Active; 'I' for Inactive)
DOCKED: REMARK    1  A    between atoms: C_3  and  C_4
DOCKED: REMARK    2  A    between atoms: C_4  and  C_5
DOCKED: REMARK    3  A    between atoms: C_5  and  C_6
DOCKED: REMARK    4  A    between atoms: C_6  and  C_7
DOCKED: REMARK                            x       y       z     vdW  Elec       q    Type
DOCKED: REMARK                         _______ _______ _______ _____ _____    ______ ____
DOCKED: USER                              x       y       z     vdW  Elec       q    Type
DOCKED: USER                           _______ _______ _______ _____ _____    ______ ____
DOCKED: ROOT
DOCKED: ATOM      1  C   UNL     1      36.434  11.824 123.205 -0.69 -0.00    +0.000 C 
DOCKED: ENDROOT
DOCKED: BRANCH   1   2
DOCKED: ATOM      2  C   UNL     1      36.702  11.127 121.866 -0.60 -0.00    +0.000 C 
DOCKED: BRANCH   2   5
DOCKED: ATOM      3  O   UNL     1      37.102   7.717 123.458 -2.69 -0.00    +0.000 OA
DOCKED: ATOM      4  N   UNL     1      36.990   9.058 123.318 -0.61 -0.00    +0.000 N 
DOCKED: ATOM      5  C   UNL     1      36.808   9.638 122.024 -0.65 -0.00    +0.000 C 
DOCKED: ATOM      6  O   UNL     1      36.767   8.898 121.004 -2.63 -0.00    +0.000 OA
DOCKED: ATOM      7  H   UNL     1      37.033   9.638 124.112 -0.55 -0.00    +0.000 HD
DOCKED: ENDBRANCH   2   5
DOCKED: ENDBRANCH   1   2
DOCKED: BRANCH   1   8
DOCKED: ATOM      8  C   UNL     1      37.368  13.019 123.439 -0.57 -0.00    +0.000 C 
DOCKED: BRANCH   8   9
DOCKED: ATOM      9  C   UNL     1      36.574  14.288 123.597 -0.43 -0.00    +0.000 A 
DOCKED: ATOM     10  C   UNL     1      35.189  14.233 123.834 -0.42 -0.00    +0.000 A 
DOCKED: ATOM     11  C   UNL     1      34.448  15.412 123.950 -0.53 -0.00    +0.000 A 
DOCKED: ATOM     12  C   UNL     1      35.079  16.653 123.819 -0.40 -0.00    +0.000 A 
DOCKED: ATOM     13  C   UNL     1      36.453  16.716 123.570 -0.28 -0.00    +0.000 A 
DOCKED: ATOM     14  C   UNL     1      37.198  15.538 123.454 -0.33 -0.00    +0.000 A 
DOCKED: ATOM     15  CM  UNL     1      35.824  15.473 123.704 +0.00 -0.00    +0.000 AC
DOCKED: ENDBRANCH   8   9
DOCKED: ENDBRANCH   1   8
DOCKED: TORSDOF 4DOCKED: TER
DOCKED: ENDMDL
________________________________________________________________________________


	BEGINNING GENETIC ALGORITHM DOCKING 12 of 100
Run: 12 Seed: 1357384110 638896012 [ Run 12 of 100 GA/GALS ]
Beginning LAMARCKIAN GENETIC ALGORITHM (LGA), with a maximum of 2500000 energy evaluations.

Final-Value: -11.161


	FINAL GENETIC ALGORITHM DOCKED STATE
	_______________________________________________


Detailed state:  trans 36.926 13.064 123.186 quatxyzw 0.697193 -0.230636 -0.677861 0.035106 center 0.505 -0.158 0.114 ntor 4 -81.3508 -178.5714 -17.9333 -94.9322
State:	 36.926  13.064 123.186   0.698 -0.231 -0.678 175.976    -81.35 -178.57  -17.93  -94.93

DOCKED: MODEL       12
DOCKED: USER    Run = 12
DOCKED: USER    DPF = ligand_dock.biased.dpf
DOCKED: USER  
DOCKED: USER    Estimated Free Energy of Binding    =   -9.55 kcal/mol  [=(1)+(2)+(3)-(4)]
DOCKED: USER    Estimated Inhibition Constant, Ki   =   99.76 nM (nanomolar)  [Temperature = 298.15 K]
DOCKED: USER    
DOCKED: USER    (1) Final Intermolecular Energy     =  -10.74 kcal/mol
DOCKED: USER        vdW + Hbond + desolv Energy     =  -10.74 kcal/mol
DOCKED: USER        Electrostatic Energy            =   +0.00 kcal/mol
DOCKED: USER    (2) Final Total Internal Energy     =   -0.42 kcal/mol
DOCKED: USER    (3) Torsional Free Energy           =   +1.19 kcal/mol
DOCKED: USER    (4) Unbound System's Energy  [=(2)] =   -0.42 kcal/mol
DOCKED: USER    
DOCKED: USER    
DOCKED: USER    NEWDPF move ligand.dum.pdbqt
DOCKED: USER    NEWDPF about 0.505000 -0.158000 0.114000
DOCKED: USER    NEWDPF tran0 36.926222 13.063979 123.186063
DOCKED: USER    NEWDPF quaternion0 0.697193 -0.230636 -0.677861 0.035106
DOCKED: USER    NEWDPF axisangle0 0.697624 -0.230779 -0.678279 175.976356
DOCKED: USER    NEWDPF quat0 0.697624 -0.230779 -0.678279 175.976356
DOCKED: USER    NEWDPF dihe0 -81.35 -178.57 -17.93 -94.93 
DOCKED: USER  keepresnum = 1 
DOCKED: USER  
DOCKED: REMARK  Name = 
DOCKED: REMARK  4 active torsions:
DOCKED: REMARK  status: ('A' for Active; 'I' for Inactive)
DOCKED: REMARK    1  A    between atoms: C_3  and  C_4
DOCKED: REMARK    2  A    between atoms: C_4  and  C_5
DOCKED: REMARK    3  A    between atoms: C_5  and  C_6
DOCKED: REMARK    4  A    between atoms: C_6  and  C_7
DOCKED: REMARK                            x       y       z     vdW  Elec       q    Type
DOCKED: REMARK                         _______ _______ _______ _____ _____    ______ ____
DOCKED: USER                              x       y       z     vdW  Elec       q    Type
DOCKED: USER                           _______ _______ _______ _____ _____    ______ ____
DOCKED: ROOT
DOCKED: ATOM      1  C   UNL     1      36.415  11.790 123.312 -0.70 -0.00    +0.000 C 
DOCKED: ENDROOT
DOCKED: BRANCH   1   2
DOCKED: ATOM      2  C   UNL     1      36.273  11.049 121.977 -0.60 -0.00    +0.000 C 
DOCKED: BRANCH   2   5
DOCKED: ATOM      3  O   UNL     1      37.272   7.712 123.459 -2.64 -0.00    +0.000 OA
DOCKED: ATOM      4  N   UNL     1      36.855   8.996 123.363 -0.60 -0.00    +0.000 N 
DOCKED: ATOM      5  C   UNL     1      36.718   9.619 122.083 -0.68 -0.00    +0.000 C 
DOCKED: ATOM      6  O   UNL     1      37.001   8.975 121.037 -2.70 -0.00    +0.000 OA
DOCKED: ATOM      7  H   UNL     1      36.644   9.504 124.179 -0.47 -0.00    +0.000 HD
DOCKED: ENDBRANCH   2   5
DOCKED: ENDBRANCH   1   2
DOCKED: BRANCH   1   8
DOCKED: ATOM      8  C   UNL     1      37.491  12.884 123.261 -0.56 -0.00    +0.000 C 
DOCKED: BRANCH   8   9
DOCKED: ATOM      9  C   UNL     1      36.902  14.182 122.780 -0.43 -0.00    +0.000 A 
DOCKED: ATOM     10  C   UNL     1      36.036  14.918 123.607 -0.44 -0.00    +0.000 A 
DOCKED: ATOM     11  C   UNL     1      35.464  16.108 123.147 -0.36 -0.00    +0.000 A 
DOCKED: ATOM     12  C   UNL     1      35.744  16.566 121.856 -0.18 -0.00    +0.000 A 
DOCKED: ATOM     13  C   UNL     1      36.593  15.834 121.022 -0.12 -0.00    +0.000 A 
DOCKED: ATOM     14  C   UNL     1      37.167  14.643 121.479 -0.28 -0.00    +0.000 A 
DOCKED: ATOM     15  CM  UNL     1      36.318  15.375 122.315 +0.00 -0.00    +0.000 AC
DOCKED: ENDBRANCH   8   9
DOCKED: ENDBRANCH   1   8
DOCKED: TORSDOF 4DOCKED: TER
DOCKED: ENDMDL
________________________________________________________________________________


	BEGINNING GENETIC ALGORITHM DOCKING 13 of 100
Run: 13 Seed: 562332043 1433766767 [ Run 13 of 100 GA/GALS ]
Beginning LAMARCKIAN GENETIC ALGORITHM (LGA), with a maximum of 2500000 energy evaluations.

Final-Value: -11.588


	FINAL GENETIC ALGORITHM DOCKED STATE
	_______________________________________________


Detailed state:  trans 36.494 12.959 123.228 quatxyzw 0.917950 -0.219403 -0.216969 0.249308 center 0.505 -0.158 0.114 ntor 4 -153.4589 179.7589 155.2869 -60.5855
State:	 36.494  12.959 123.228   0.948 -0.227 -0.224 151.127   -153.46  179.76  155.29  -60.59

DOCKED: MODEL       13
DOCKED: USER    Run = 13
DOCKED: USER    DPF = ligand_dock.biased.dpf
DOCKED: USER  
DOCKED: USER    Estimated Free Energy of Binding    =  -10.02 kcal/mol  [=(1)+(2)+(3)-(4)]
DOCKED: USER    Estimated Inhibition Constant, Ki   =   45.12 nM (nanomolar)  [Temperature = 298.15 K]
DOCKED: USER    
DOCKED: USER    (1) Final Intermolecular Energy     =  -11.21 kcal/mol
DOCKED: USER        vdW + Hbond + desolv Energy     =  -11.21 kcal/mol
DOCKED: USER        Electrostatic Energy            =   +0.00 kcal/mol
DOCKED: USER    (2) Final Total Internal Energy     =   -0.37 kcal/mol
DOCKED: USER    (3) Torsional Free Energy           =   +1.19 kcal/mol
DOCKED: USER    (4) Unbound System's Energy  [=(2)] =   -0.37 kcal/mol
DOCKED: USER    
DOCKED: USER    
DOCKED: USER    NEWDPF move ligand.dum.pdbqt
DOCKED: USER    NEWDPF about 0.505000 -0.158000 0.114000
DOCKED: USER    NEWDPF tran0 36.494180 12.959378 123.227824
DOCKED: USER    NEWDPF quaternion0 0.917950 -0.219403 -0.216969 0.249308
DOCKED: USER    NEWDPF axisangle0 0.947880 -0.226557 -0.224043 151.126914
DOCKED: USER    NEWDPF quat0 0.947880 -0.226557 -0.224043 151.126914
DOCKED: USER    NEWDPF dihe0 -153.46 179.76 155.29 -60.59 
DOCKED: USER  keepresnum = 1 
DOCKED: USER  
DOCKED: REMARK  Name = 
DOCKED: REMARK  4 active torsions:
DOCKED: REMARK  status: ('A' for Active; 'I' for Inactive)
DOCKED: REMARK    1  A    between atoms: C_3  and  C_4
DOCKED: REMARK    2  A    between atoms: C_4  and  C_5
DOCKED: REMARK    3  A    between atoms: C_5  and  C_6
DOCKED: REMARK    4  A    between atoms: C_6  and  C_7
DOCKED: REMARK                            x       y       z     vdW  Elec       q    Type
DOCKED: REMARK                         _______ _______ _______ _____ _____    ______ ____
DOCKED: USER                              x       y       z     vdW  Elec       q    Type
DOCKED: USER                           _______ _______ _______ _____ _____    ______ ____
DOCKED: ROOT
DOCKED: ATOM      1  C   UNL     1      35.995  11.833 122.610 -0.59 -0.00    +0.000 C 
DOCKED: ENDROOT
DOCKED: BRANCH   1   2
DOCKED: ATOM      2  C   UNL     1      37.025  11.095 121.747 -0.54 -0.00    +0.000 C 
DOCKED: BRANCH   2   5
DOCKED: ATOM      3  O   UNL     1      37.062   7.718 123.456 -2.70 -0.00    +0.000 OA
DOCKED: ATOM      4  N   UNL     1      37.098   9.058 123.270 -0.61 -0.00    +0.000 N 
DOCKED: ATOM      5  C   UNL     1      36.968   9.610 121.957 -0.62 -0.00    +0.000 C 
DOCKED: ATOM      6  O   UNL     1      36.834   8.845 120.964 -2.65 -0.00    +0.000 OA
DOCKED: ATOM      7  H   UNL     1      37.214   9.657 124.042 -0.54 -0.00    +0.000 HD
DOCKED: ENDBRANCH   2   5
DOCKED: ENDBRANCH   1   2
DOCKED: BRANCH   1   8
DOCKED: ATOM      8  C   UNL     1      36.651  12.663 123.723 -0.63 -0.00    +0.000 C 
DOCKED: BRANCH   8   9
DOCKED: ATOM      9  C   UNL     1      36.254  14.110 123.606 -0.47 -0.00    +0.000 A 
DOCKED: ATOM     10  C   UNL     1      37.220  15.089 123.318 -0.36 -0.00    +0.000 A 
DOCKED: ATOM     11  C   UNL     1      36.855  16.437 123.241 -0.27 -0.00    +0.000 A 
DOCKED: ATOM     12  C   UNL     1      35.528  16.817 123.462 -0.33 -0.00    +0.000 A 
DOCKED: ATOM     13  C   UNL     1      34.565  15.851 123.763 -0.49 -0.00    +0.000 A 
DOCKED: ATOM     14  C   UNL     1      34.925  14.502 123.840 -0.41 -0.00    +0.000 A 
DOCKED: ATOM     15  CM  UNL     1      35.891  15.468 123.539 +0.00 -0.00    +0.000 AC
DOCKED: ENDBRANCH   8   9
DOCKED: ENDBRANCH   1   8
DOCKED: TORSDOF 4DOCKED: TER
DOCKED: ENDMDL
________________________________________________________________________________


	BEGINNING GENETIC ALGORITHM DOCKING 14 of 100
Run: 14 Seed: 1735073283 2005199614 [ Run 14 of 100 GA/GALS ]
Beginning LAMARCKIAN GENETIC ALGORITHM (LGA), with a maximum of 2500000 energy evaluations.

Final-Value: -11.408


	FINAL GENETIC ALGORITHM DOCKED STATE
	_______________________________________________


Detailed state:  trans 35.561 12.513 123.632 quatxyzw -0.487886 -0.292453 0.687129 0.451988 center 0.505 -0.158 0.114 ntor 4 -107.2495 -70.2879 111.2372 78.4447
State:	 35.561  12.513 123.632  -0.547 -0.328  0.770 126.257   -107.25  -70.29  111.24   78.44

DOCKED: MODEL       14
DOCKED: USER    Run = 14
DOCKED: USER    DPF = ligand_dock.biased.dpf
DOCKED: USER  
DOCKED: USER    Estimated Free Energy of Binding    =   -9.85 kcal/mol  [=(1)+(2)+(3)-(4)]
DOCKED: USER    Estimated Inhibition Constant, Ki   =   60.29 nM (nanomolar)  [Temperature = 298.15 K]
DOCKED: USER    
DOCKED: USER    (1) Final Intermolecular Energy     =  -11.04 kcal/mol
DOCKED: USER        vdW + Hbond + desolv Energy     =  -11.04 kcal/mol
DOCKED: USER        Electrostatic Energy            =   +0.00 kcal/mol
DOCKED: USER    (2) Final Total Internal Energy     =   -0.37 kcal/mol
DOCKED: USER    (3) Torsional Free Energy           =   +1.19 kcal/mol
DOCKED: USER    (4) Unbound System's Energy  [=(2)] =   -0.37 kcal/mol
DOCKED: USER    
DOCKED: USER    
DOCKED: USER    NEWDPF move ligand.dum.pdbqt
DOCKED: USER    NEWDPF about 0.505000 -0.158000 0.114000
DOCKED: USER    NEWDPF tran0 35.560918 12.512713 123.631780
DOCKED: USER    NEWDPF quaternion0 -0.487886 -0.292453 0.687129 0.451988
DOCKED: USER    NEWDPF axisangle0 -0.546942 -0.327853 0.770303 126.257431
DOCKED: USER    NEWDPF quat0 -0.546942 -0.327853 0.770303 126.257431
DOCKED: USER    NEWDPF dihe0 -107.25 -70.29 111.24 78.44 
DOCKED: USER  keepresnum = 1 
DOCKED: USER  
DOCKED: REMARK  Name = 
DOCKED: REMARK  4 active torsions:
DOCKED: REMARK  status: ('A' for Active; 'I' for Inactive)
DOCKED: REMARK    1  A    between atoms: C_3  and  C_4
DOCKED: REMARK    2  A    between atoms: C_4  and  C_5
DOCKED: REMARK    3  A    between atoms: C_5  and  C_6
DOCKED: REMARK    4  A    between atoms: C_6  and  C_7
DOCKED: REMARK                            x       y       z     vdW  Elec       q    Type
DOCKED: REMARK                         _______ _______ _______ _____ _____    ______ ____
DOCKED: USER                              x       y       z     vdW  Elec       q    Type
DOCKED: USER                           _______ _______ _______ _____ _____    ______ ____
DOCKED: ROOT
DOCKED: ATOM      1  C   UNL     1      36.762  11.858 123.461 -0.69 -0.00    +0.000 C 
DOCKED: ENDROOT
DOCKED: BRANCH   1   2
DOCKED: ATOM      2  C   UNL     1      36.930  11.232 122.071 -0.58 -0.00    +0.000 C 
DOCKED: BRANCH   2   5
DOCKED: ATOM      3  O   UNL     1      37.122   7.715 123.457 -2.69 -0.00    +0.000 OA
DOCKED: ATOM      4  N   UNL     1      37.062   9.065 123.399 -0.59 -0.00    +0.000 N 
DOCKED: ATOM      5  C   UNL     1      36.977   9.733 122.137 -0.61 -0.00    +0.000 C 
DOCKED: ATOM      6  O   UNL     1      36.974   9.062 121.070 -2.69 -0.00    +0.000 OA
DOCKED: ATOM      7  H   UNL     1      37.076   9.592 124.230 -0.58 -0.00    +0.000 HD
DOCKED: ENDBRANCH   2   5
DOCKED: ENDBRANCH   1   2
DOCKED: BRANCH   1   8
DOCKED: ATOM      8  C   UNL     1      35.782  13.039 123.455 -0.55 -0.00    +0.000 C 
DOCKED: BRANCH   8   9
DOCKED: ATOM      9  C   UNL     1      36.529  14.345 123.396 -0.45 -0.00    +0.000 A 
DOCKED: ATOM     10  C   UNL     1      35.908  15.536 123.809 -0.41 -0.00    +0.000 A 
DOCKED: ATOM     11  C   UNL     1      36.592  16.752 123.724 -0.27 -0.00    +0.000 A 
DOCKED: ATOM     12  C   UNL     1      37.894  16.790 123.217 -0.22 -0.00    +0.000 A 
DOCKED: ATOM     13  C   UNL     1      38.513  15.612 122.791 -0.29 -0.00    +0.000 A 
DOCKED: ATOM     14  C   UNL     1      37.833  14.393 122.875 -0.41 -0.00    +0.000 A 
DOCKED: ATOM     15  CM  UNL     1      37.211  15.571 123.302 +0.00 -0.00    +0.000 AC
DOCKED: ENDBRANCH   8   9
DOCKED: ENDBRANCH   1   8
DOCKED: TORSDOF 4DOCKED: TER
DOCKED: ENDMDL
________________________________________________________________________________


	BEGINNING GENETIC ALGORITHM DOCKING 15 of 100
Run: 15 Seed: 1576189925 1586129546 [ Run 15 of 100 GA/GALS ]
Beginning LAMARCKIAN GENETIC ALGORITHM (LGA), with a maximum of 2500000 energy evaluations.

Final-Value: -11.641


	FINAL GENETIC ALGORITHM DOCKED STATE
	_______________________________________________


Detailed state:  trans 36.003 12.740 123.617 quatxyzw -0.897416 0.138057 0.360183 -0.214133 center 0.505 -0.158 0.114 ntor 4 -132.9643 178.5921 -179.7676 -90.5081
State:	 36.003  12.740 123.617  -0.919  0.141  0.369 -155.271   -132.96  178.59 -179.77  -90.51

DOCKED: MODEL       15
DOCKED: USER    Run = 15
DOCKED: USER    DPF = ligand_dock.biased.dpf
DOCKED: USER  
DOCKED: USER    Estimated Free Energy of Binding    =  -10.03 kcal/mol  [=(1)+(2)+(3)-(4)]
DOCKED: USER    Estimated Inhibition Constant, Ki   =   44.29 nM (nanomolar)  [Temperature = 298.15 K]
DOCKED: USER    
DOCKED: USER    (1) Final Intermolecular Energy     =  -11.23 kcal/mol
DOCKED: USER        vdW + Hbond + desolv Energy     =  -11.23 kcal/mol
DOCKED: USER        Electrostatic Energy            =   +0.00 kcal/mol
DOCKED: USER    (2) Final Total Internal Energy     =   -0.42 kcal/mol
DOCKED: USER    (3) Torsional Free Energy           =   +1.19 kcal/mol
DOCKED: USER    (4) Unbound System's Energy  [=(2)] =   -0.42 kcal/mol
DOCKED: USER    
DOCKED: USER    
DOCKED: USER    NEWDPF move ligand.dum.pdbqt
DOCKED: USER    NEWDPF about 0.505000 -0.158000 0.114000
DOCKED: USER    NEWDPF tran0 36.003386 12.739688 123.617014
DOCKED: USER    NEWDPF quaternion0 -0.897416 0.138057 0.360183 -0.214133
DOCKED: USER    NEWDPF axisangle0 -0.918726 0.141335 0.368736 -155.270612
DOCKED: USER    NEWDPF quat0 -0.918726 0.141335 0.368736 -155.270612
DOCKED: USER    NEWDPF dihe0 -132.96 178.59 -179.77 -90.51 
DOCKED: USER  keepresnum = 1 
DOCKED: USER  
DOCKED: REMARK  Name = 
DOCKED: REMARK  4 active torsions:
DOCKED: REMARK  status: ('A' for Active; 'I' for Inactive)
DOCKED: REMARK    1  A    between atoms: C_3  and  C_4
DOCKED: REMARK    2  A    between atoms: C_4  and  C_5
DOCKED: REMARK    3  A    between atoms: C_5  and  C_6
DOCKED: REMARK    4  A    between atoms: C_6  and  C_7
DOCKED: REMARK                            x       y       z     vdW  Elec       q    Type
DOCKED: REMARK                         _______ _______ _______ _____ _____    ______ ____
DOCKED: USER                              x       y       z     vdW  Elec       q    Type
DOCKED: USER                           _______ _______ _______ _____ _____    ______ ____
DOCKED: ROOT
DOCKED: ATOM      1  C   UNL     1      35.625  11.538 123.058 -0.61 -0.00    +0.000 C 
DOCKED: ENDROOT
DOCKED: BRANCH   1   2
DOCKED: ATOM      2  C   UNL     1      36.544  11.070 121.924 -0.60 -0.00    +0.000 C 
DOCKED: BRANCH   2   5
DOCKED: ATOM      3  O   UNL     1      37.380   7.710 123.454 -2.61 -0.00    +0.000 OA
DOCKED: ATOM      4  N   UNL     1      37.053   9.018 123.340 -0.61 -0.00    +0.000 N 
DOCKED: ATOM      5  C   UNL     1      36.889   9.614 122.051 -0.64 -0.00    +0.000 C 
DOCKED: ATOM      6  O   UNL     1      37.064   8.922 121.011 -2.71 -0.00    +0.000 OA
DOCKED: ATOM      7  H   UNL     1      36.927   9.563 124.150 -0.54 -0.00    +0.000 HD
DOCKED: ENDBRANCH   2   5
DOCKED: ENDBRANCH   1   2
DOCKED: BRANCH   1   8
DOCKED: ATOM      8  C   UNL     1      36.339  12.479 124.038 -0.56 -0.00    +0.000 C 
DOCKED: BRANCH   8   9
DOCKED: ATOM      9  C   UNL     1      36.142  13.914 123.630 -0.49 -0.00    +0.000 A 
DOCKED: ATOM     10  C   UNL     1      37.058  14.538 122.764 -0.40 -0.00    +0.000 A 
DOCKED: ATOM     11  C   UNL     1      36.891  15.880 122.411 -0.27 -0.00    +0.000 A 
DOCKED: ATOM     12  C   UNL     1      35.818  16.613 122.928 -0.30 -0.00    +0.000 A 
DOCKED: ATOM     13  C   UNL     1      34.912  16.005 123.801 -0.47 -0.00    +0.000 A 
DOCKED: ATOM     14  C   UNL     1      35.075  14.662 124.156 -0.43 -0.00    +0.000 A 
DOCKED: ATOM     15  CM  UNL     1      35.983  15.269 123.282 +0.00 -0.00    +0.000 AC
DOCKED: ENDBRANCH   8   9
DOCKED: ENDBRANCH   1   8
DOCKED: TORSDOF 4DOCKED: TER
DOCKED: ENDMDL
________________________________________________________________________________


	BEGINNING GENETIC ALGORITHM DOCKING 16 of 100
Run: 16 Seed: 1470617932 1064590215 [ Run 16 of 100 GA/GALS ]
Beginning LAMARCKIAN GENETIC ALGORITHM (LGA), with a maximum of 2500000 energy evaluations.

Final-Value: -11.709


	FINAL GENETIC ALGORITHM DOCKED STATE
	_______________________________________________


Detailed state:  trans 37.029 13.231 123.042 quatxyzw 0.652829 -0.112208 -0.745337 -0.075482 center 0.505 -0.158 0.114 ntor 4 -90.1213 -144.4039 95.5477 -71.3856
State:	 37.029  13.231 123.042   0.655 -0.113 -0.747 -171.342    -90.12 -144.40   95.55  -71.39

DOCKED: MODEL       16
DOCKED: USER    Run = 16
DOCKED: USER    DPF = ligand_dock.biased.dpf
DOCKED: USER  
DOCKED: USER    Estimated Free Energy of Binding    =  -10.15 kcal/mol  [=(1)+(2)+(3)-(4)]
DOCKED: USER    Estimated Inhibition Constant, Ki   =   36.09 nM (nanomolar)  [Temperature = 298.15 K]
DOCKED: USER    
DOCKED: USER    (1) Final Intermolecular Energy     =  -11.35 kcal/mol
DOCKED: USER        vdW + Hbond + desolv Energy     =  -11.35 kcal/mol
DOCKED: USER        Electrostatic Energy            =   +0.00 kcal/mol
DOCKED: USER    (2) Final Total Internal Energy     =   -0.36 kcal/mol
DOCKED: USER    (3) Torsional Free Energy           =   +1.19 kcal/mol
DOCKED: USER    (4) Unbound System's Energy  [=(2)] =   -0.36 kcal/mol
DOCKED: USER    
DOCKED: USER    
DOCKED: USER    NEWDPF move ligand.dum.pdbqt
DOCKED: USER    NEWDPF about 0.505000 -0.158000 0.114000
DOCKED: USER    NEWDPF tran0 37.029408 13.231458 123.042239
DOCKED: USER    NEWDPF quaternion0 0.652829 -0.112208 -0.745337 -0.075482
DOCKED: USER    NEWDPF axisangle0 0.654696 -0.112529 -0.747469 -171.342134
DOCKED: USER    NEWDPF quat0 0.654696 -0.112529 -0.747469 -171.342134
DOCKED: USER    NEWDPF dihe0 -90.12 -144.40 95.55 -71.39 
DOCKED: USER  keepresnum = 1 
DOCKED: USER  
DOCKED: REMARK  Name = 
DOCKED: REMARK  4 active torsions:
DOCKED: REMARK  status: ('A' for Active; 'I' for Inactive)
DOCKED: REMARK    1  A    between atoms: C_3  and  C_4
DOCKED: REMARK    2  A    between atoms: C_4  and  C_5
DOCKED: REMARK    3  A    between atoms: C_5  and  C_6
DOCKED: REMARK    4  A    between atoms: C_6  and  C_7
DOCKED: REMARK                            x       y       z     vdW  Elec       q    Type
DOCKED: REMARK                         _______ _______ _______ _____ _____    ______ ____
DOCKED: USER                              x       y       z     vdW  Elec       q    Type
DOCKED: USER                           _______ _______ _______ _____ _____    ______ ____
DOCKED: ROOT
DOCKED: ATOM      1  C   UNL     1      36.946  11.862 123.173 -0.67 -0.00    +0.000 C 
DOCKED: ENDROOT
DOCKED: BRANCH   1   2
DOCKED: ATOM      2  C   UNL     1      36.762  11.126 121.840 -0.58 -0.00    +0.000 C 
DOCKED: BRANCH   2   5
DOCKED: ATOM      3  O   UNL     1      37.070   7.717 123.456 -2.70 -0.00    +0.000 OA
DOCKED: ATOM      4  N   UNL     1      36.951   9.057 123.309 -0.61 -0.00    +0.000 N 
DOCKED: ATOM      5  C   UNL     1      36.875   9.638 122.005 -0.64 -0.00    +0.000 C 
DOCKED: ATOM      6  O   UNL     1      36.935   8.901 120.984 -2.68 -0.00    +0.000 OA
DOCKED: ATOM      7  H   UNL     1      36.916   9.636 124.104 -0.52 -0.00    +0.000 HD
DOCKED: ENDBRANCH   2   5
DOCKED: ENDBRANCH   1   2
DOCKED: BRANCH   1   8
DOCKED: ATOM      8  C   UNL     1      37.625  13.227 122.997 -0.54 -0.00    +0.000 C 
DOCKED: BRANCH   8   9
DOCKED: ATOM      9  C   UNL     1      36.658  14.340 123.297 -0.44 -0.00    +0.000 A 
DOCKED: ATOM     10  C   UNL     1      37.035  15.680 123.098 -0.32 -0.00    +0.000 A 
DOCKED: ATOM     11  C   UNL     1      36.147  16.714 123.407 -0.29 -0.00    +0.000 A 
DOCKED: ATOM     12  C   UNL     1      34.882  16.421 123.926 -0.44 -0.00    +0.000 A 
DOCKED: ATOM     13  C   UNL     1      34.505  15.093 124.139 -0.49 -0.00    +0.000 A 
DOCKED: ATOM     14  C   UNL     1      35.391  14.055 123.832 -0.43 -0.00    +0.000 A 
DOCKED: ATOM     15  CM  UNL     1      35.770  15.384 123.617 +0.00 -0.00    +0.000 AC
DOCKED: ENDBRANCH   8   9
DOCKED: ENDBRANCH   1   8
DOCKED: TORSDOF 4DOCKED: TER
DOCKED: ENDMDL
________________________________________________________________________________


	BEGINNING GENETIC ALGORITHM DOCKING 17 of 100
Run: 17 Seed: 892314814 1750822339 [ Run 17 of 100 GA/GALS ]
Beginning LAMARCKIAN GENETIC ALGORITHM (LGA), with a maximum of 2500000 energy evaluations.

Final-Value: -11.696


	FINAL GENETIC ALGORITHM DOCKED STATE
	_______________________________________________


Detailed state:  trans 36.845 13.087 123.054 quatxyzw -0.716116 0.184385 0.673139 0.008040 center 0.505 -0.158 0.114 ntor 4 -91.3898 -168.1852 -84.7489 -61.1861
State:	 36.845  13.087 123.054  -0.716  0.184  0.673 179.079    -91.39 -168.19  -84.75  -61.19

DOCKED: MODEL       17
DOCKED: USER    Run = 17
DOCKED: USER    DPF = ligand_dock.biased.dpf
DOCKED: USER  
DOCKED: USER    Estimated Free Energy of Binding    =  -10.14 kcal/mol  [=(1)+(2)+(3)-(4)]
DOCKED: USER    Estimated Inhibition Constant, Ki   =   36.66 nM (nanomolar)  [Temperature = 298.15 K]
DOCKED: USER    
DOCKED: USER    (1) Final Intermolecular Energy     =  -11.34 kcal/mol
DOCKED: USER        vdW + Hbond + desolv Energy     =  -11.34 kcal/mol
DOCKED: USER        Electrostatic Energy            =   +0.00 kcal/mol
DOCKED: USER    (2) Final Total Internal Energy     =   -0.36 kcal/mol
DOCKED: USER    (3) Torsional Free Energy           =   +1.19 kcal/mol
DOCKED: USER    (4) Unbound System's Energy  [=(2)] =   -0.36 kcal/mol
DOCKED: USER    
DOCKED: USER    
DOCKED: USER    NEWDPF move ligand.dum.pdbqt
DOCKED: USER    NEWDPF about 0.505000 -0.158000 0.114000
DOCKED: USER    NEWDPF tran0 36.845464 13.086633 123.054466
DOCKED: USER    NEWDPF quaternion0 -0.716116 0.184385 0.673139 0.008040
DOCKED: USER    NEWDPF axisangle0 -0.716139 0.184391 0.673160 179.078644
DOCKED: USER    NEWDPF quat0 -0.716139 0.184391 0.673160 179.078644
DOCKED: USER    NEWDPF dihe0 -91.39 -168.19 -84.75 -61.19 
DOCKED: USER  keepresnum = 1 
DOCKED: USER  
DOCKED: REMARK  Name = 
DOCKED: REMARK  4 active torsions:
DOCKED: REMARK  status: ('A' for Active; 'I' for Inactive)
DOCKED: REMARK    1  A    between atoms: C_3  and  C_4
DOCKED: REMARK    2  A    between atoms: C_4  and  C_5
DOCKED: REMARK    3  A    between atoms: C_5  and  C_6
DOCKED: REMARK    4  A    between atoms: C_6  and  C_7
DOCKED: REMARK                            x       y       z     vdW  Elec       q    Type
DOCKED: REMARK                         _______ _______ _______ _____ _____    ______ ____
DOCKED: USER                              x       y       z     vdW  Elec       q    Type
DOCKED: USER                           _______ _______ _______ _____ _____    ______ ____
DOCKED: ROOT
DOCKED: ATOM      1  C   UNL     1      36.504  11.757 123.175 -0.69 -0.00    +0.000 C 
DOCKED: ENDROOT
DOCKED: BRANCH   1   2
DOCKED: ATOM      2  C   UNL     1      36.481  11.003 121.840 -0.55 -0.00    +0.000 C 
DOCKED: BRANCH   2   5
DOCKED: ATOM      3  O   UNL     1      37.438   7.718 123.457 -2.61 -0.00    +0.000 OA
DOCKED: ATOM      4  N   UNL     1      37.068   9.011 123.309 -0.62 -0.00    +0.000 N 
DOCKED: ATOM      5  C   UNL     1      36.874   9.563 122.005 -0.65 -0.00    +0.000 C 
DOCKED: ATOM      6  O   UNL     1      37.063   8.848 120.984 -2.71 -0.00    +0.000 OA
DOCKED: ATOM      7  H   UNL     1      36.931   9.575 124.104 -0.53 -0.00    +0.000 HD
DOCKED: ENDBRANCH   2   5
DOCKED: ENDBRANCH   1   2
DOCKED: BRANCH   1   8
DOCKED: ATOM      8  C   UNL     1      37.428  12.982 123.139 -0.58 -0.00    +0.000 C 
DOCKED: BRANCH   8   9
DOCKED: ATOM      9  C   UNL     1      36.658  14.234 123.462 -0.45 -0.00    +0.000 A 
DOCKED: ATOM     10  C   UNL     1      35.306  14.158 123.840 -0.43 -0.00    +0.000 A 
DOCKED: ATOM     11  C   UNL     1      34.584  15.324 124.110 -0.53 -0.00    +0.000 A 
DOCKED: ATOM     12  C   UNL     1      35.201  16.573 123.994 -0.40 -0.00    +0.000 A 
DOCKED: ATOM     13  C   UNL     1      36.540  16.658 123.606 -0.28 -0.00    +0.000 A 
DOCKED: ATOM     14  C   UNL     1      37.267  15.494 123.335 -0.33 -0.00    +0.000 A 
DOCKED: ATOM     15  CM  UNL     1      35.926  15.407 123.724 +0.00 -0.00    +0.000 AC
DOCKED: ENDBRANCH   8   9
DOCKED: ENDBRANCH   1   8
DOCKED: TORSDOF 4DOCKED: TER
DOCKED: ENDMDL
________________________________________________________________________________


	BEGINNING GENETIC ALGORITHM DOCKING 18 of 100
Run: 18 Seed: 424248343 830615964 [ Run 18 of 100 GA/GALS ]
Beginning LAMARCKIAN GENETIC ALGORITHM (LGA), with a maximum of 2500000 energy evaluations.

Final-Value: -11.526


	FINAL GENETIC ALGORITHM DOCKED STATE
	_______________________________________________


Detailed state:  trans 36.576 12.734 123.372 quatxyzw 0.722965 -0.308345 -0.609244 0.105199 center 0.505 -0.158 0.114 ntor 4 -68.5249 151.5509 -64.7790 -72.9966
State:	 36.576  12.734 123.372   0.727 -0.310 -0.613 167.923    -68.52  151.55  -64.78  -73.00

DOCKED: MODEL       18
DOCKED: USER    Run = 18
DOCKED: USER    DPF = ligand_dock.biased.dpf
DOCKED: USER  
DOCKED: USER    Estimated Free Energy of Binding    =   -9.91 kcal/mol  [=(1)+(2)+(3)-(4)]
DOCKED: USER    Estimated Inhibition Constant, Ki   =   54.52 nM (nanomolar)  [Temperature = 298.15 K]
DOCKED: USER    
DOCKED: USER    (1) Final Intermolecular Energy     =  -11.10 kcal/mol
DOCKED: USER        vdW + Hbond + desolv Energy     =  -11.10 kcal/mol
DOCKED: USER        Electrostatic Energy            =   +0.00 kcal/mol
DOCKED: USER    (2) Final Total Internal Energy     =   -0.42 kcal/mol
DOCKED: USER    (3) Torsional Free Energy           =   +1.19 kcal/mol
DOCKED: USER    (4) Unbound System's Energy  [=(2)] =   -0.42 kcal/mol
DOCKED: USER    
DOCKED: USER    
DOCKED: USER    NEWDPF move ligand.dum.pdbqt
DOCKED: USER    NEWDPF about 0.505000 -0.158000 0.114000
DOCKED: USER    NEWDPF tran0 36.576492 12.734417 123.371870
DOCKED: USER    NEWDPF quaternion0 0.722965 -0.308345 -0.609244 0.105199
DOCKED: USER    NEWDPF axisangle0 0.726999 -0.310065 -0.612643 167.922741
DOCKED: USER    NEWDPF quat0 0.726999 -0.310065 -0.612643 167.922741
DOCKED: USER    NEWDPF dihe0 -68.52 151.55 -64.78 -73.00 
DOCKED: USER  keepresnum = 1 
DOCKED: USER  
DOCKED: REMARK  Name = 
DOCKED: REMARK  4 active torsions:
DOCKED: REMARK  status: ('A' for Active; 'I' for Inactive)
DOCKED: REMARK    1  A    between atoms: C_3  and  C_4
DOCKED: REMARK    2  A    between atoms: C_4  and  C_5
DOCKED: REMARK    3  A    between atoms: C_5  and  C_6
DOCKED: REMARK    4  A    between atoms: C_6  and  C_7
DOCKED: REMARK                            x       y       z     vdW  Elec       q    Type
DOCKED: REMARK                         _______ _______ _______ _____ _____    ______ ____
DOCKED: USER                              x       y       z     vdW  Elec       q    Type
DOCKED: USER                           _______ _______ _______ _____ _____    ______ ____
DOCKED: ROOT
DOCKED: ATOM      1  C   UNL     1      35.811  11.591 123.446 -0.65 -0.00    +0.000 C 
DOCKED: ENDROOT
DOCKED: BRANCH   1   2
DOCKED: ATOM      2  C   UNL     1      35.729  10.817 122.125 -0.54 -0.00    +0.000 C 
DOCKED: BRANCH   2   5
DOCKED: ATOM      3  O   UNL     1      37.444   7.716 123.455 -2.60 -0.00    +0.000 OA
DOCKED: ATOM      4  N   UNL     1      36.710   8.852 123.409 -0.60 -0.00    +0.000 N 
DOCKED: ATOM      5  C   UNL     1      36.528   9.546 122.173 -0.69 -0.00    +0.000 C 
DOCKED: ATOM      6  O   UNL     1      37.066   9.109 121.121 -2.72 -0.00    +0.000 OA
DOCKED: ATOM      7  H   UNL     1      36.299   9.202 124.232 -0.32 -0.00    +0.000 HD
DOCKED: ENDBRANCH   2   5
DOCKED: ENDBRANCH   1   2
DOCKED: BRANCH   1   8
DOCKED: ATOM      8  C   UNL     1      37.076  12.454 123.541 -0.63 -0.00    +0.000 C 
DOCKED: BRANCH   8   9
DOCKED: ATOM      9  C   UNL     1      36.728  13.915 123.454 -0.48 -0.00    +0.000 A 
DOCKED: ATOM     10  C   UNL     1      35.446  14.362 123.821 -0.48 -0.00    +0.000 A 
DOCKED: ATOM     11  C   UNL     1      35.114  15.715 123.709 -0.46 -0.00    +0.000 A 
DOCKED: ATOM     12  C   UNL     1      36.052  16.629 123.221 -0.30 -0.00    +0.000 A 
DOCKED: ATOM     13  C   UNL     1      37.323  16.191 122.841 -0.26 -0.00    +0.000 A 
DOCKED: ATOM     14  C   UNL     1      37.660  14.838 122.952 -0.38 -0.00    +0.000 A 
DOCKED: ATOM     15  CM  UNL     1      36.387  15.275 123.332 +0.00 -0.00    +0.000 AC
DOCKED: ENDBRANCH   8   9
DOCKED: ENDBRANCH   1   8
DOCKED: TORSDOF 4DOCKED: TER
DOCKED: ENDMDL
________________________________________________________________________________


	BEGINNING GENETIC ALGORITHM DOCKING 19 of 100
Run: 19 Seed: 981200770 1120620389 [ Run 19 of 100 GA/GALS ]
Beginning LAMARCKIAN GENETIC ALGORITHM (LGA), with a maximum of 2500000 energy evaluations.

Final-Value: -10.755


	FINAL GENETIC ALGORITHM DOCKED STATE
	_______________________________________________


Detailed state:  trans 37.609 13.153 120.776 quatxyzw -0.566687 0.091472 -0.818661 -0.017094 center 0.505 -0.158 0.114 ntor 4 52.6964 -124.9870 27.3010 -84.8474
State:	 37.609  13.153 120.776  -0.567  0.091 -0.819 -178.041     52.70 -124.99   27.30  -84.85

DOCKED: MODEL       19
DOCKED: USER    Run = 19
DOCKED: USER    DPF = ligand_dock.biased.dpf
DOCKED: USER  
DOCKED: USER    Estimated Free Energy of Binding    =   -9.20 kcal/mol  [=(1)+(2)+(3)-(4)]
DOCKED: USER    Estimated Inhibition Constant, Ki   =  180.63 nM (nanomolar)  [Temperature = 298.15 K]
DOCKED: USER    
DOCKED: USER    (1) Final Intermolecular Energy     =  -10.39 kcal/mol
DOCKED: USER        vdW + Hbond + desolv Energy     =  -10.39 kcal/mol
DOCKED: USER        Electrostatic Energy            =   +0.00 kcal/mol
DOCKED: USER    (2) Final Total Internal Energy     =   -0.36 kcal/mol
DOCKED: USER    (3) Torsional Free Energy           =   +1.19 kcal/mol
DOCKED: USER    (4) Unbound System's Energy  [=(2)] =   -0.36 kcal/mol
DOCKED: USER    
DOCKED: USER    
DOCKED: USER    NEWDPF move ligand.dum.pdbqt
DOCKED: USER    NEWDPF about 0.505000 -0.158000 0.114000
DOCKED: USER    NEWDPF tran0 37.609089 13.153428 120.775594
DOCKED: USER    NEWDPF quaternion0 -0.566687 0.091472 -0.818661 -0.017094
DOCKED: USER    NEWDPF axisangle0 -0.566770 0.091486 -0.818781 -178.041048
DOCKED: USER    NEWDPF quat0 -0.566770 0.091486 -0.818781 -178.041048
DOCKED: USER    NEWDPF dihe0 52.70 -124.99 27.30 -84.85 
DOCKED: USER  keepresnum = 1 
DOCKED: USER  
DOCKED: REMARK  Name = 
DOCKED: REMARK  4 active torsions:
DOCKED: REMARK  status: ('A' for Active; 'I' for Inactive)
DOCKED: REMARK    1  A    between atoms: C_3  and  C_4
DOCKED: REMARK    2  A    between atoms: C_4  and  C_5
DOCKED: REMARK    3  A    between atoms: C_5  and  C_6
DOCKED: REMARK    4  A    between atoms: C_6  and  C_7
DOCKED: REMARK                            x       y       z     vdW  Elec       q    Type
DOCKED: REMARK                         _______ _______ _______ _____ _____    ______ ____
DOCKED: USER                              x       y       z     vdW  Elec       q    Type
DOCKED: USER                           _______ _______ _______ _____ _____    ______ ____
DOCKED: ROOT
DOCKED: ATOM      1  C   UNL     1      37.424  11.788 120.770 -0.51 -0.00    +0.000 C 
DOCKED: ENDROOT
DOCKED: BRANCH   1   2
DOCKED: ATOM      2  C   UNL     1      36.836  11.241 122.076 -0.60 -0.00    +0.000 C 
DOCKED: BRANCH   2   5
DOCKED: ATOM      3  O   UNL     1      37.082   7.718 123.438 -2.69 -0.00    +0.000 OA
DOCKED: ATOM      4  N   UNL     1      37.006   9.068 123.389 -0.59 -0.00    +0.000 N 
DOCKED: ATOM      5  C   UNL     1      36.901   9.742 122.133 -0.63 -0.00    +0.000 C 
DOCKED: ATOM      6  O   UNL     1      36.894   9.077 121.061 -2.67 -0.00    +0.000 OA
DOCKED: ATOM      7  H   UNL     1      37.023   9.589 124.223 -0.57 -0.00    +0.000 HD
DOCKED: ENDBRANCH   2   5
DOCKED: ENDBRANCH   1   2
DOCKED: BRANCH   1   8
DOCKED: ATOM      8  C   UNL     1      37.070  13.264 120.543 -0.43 -0.00    +0.000 C 
DOCKED: BRANCH   8   9
DOCKED: ATOM      9  C   UNL     1      38.204  14.152 120.976 -0.33 -0.00    +0.000 A 
DOCKED: ATOM     10  C   UNL     1      38.871  14.959 120.039 -0.20 -0.00    +0.000 A 
DOCKED: ATOM     11  C   UNL     1      39.946  15.760 120.437 -0.17 -0.00    +0.000 A 
DOCKED: ATOM     12  C   UNL     1      40.369  15.754 121.770 -0.28 -0.00    +0.000 A 
DOCKED: ATOM     13  C   UNL     1      39.720  14.944 122.705 -0.34 -0.00    +0.000 A 
DOCKED: ATOM     14  C   UNL     1      38.644  14.141 122.311 -0.38 -0.00    +0.000 A 
DOCKED: ATOM     15  CM  UNL     1      39.292  14.951 121.373 +0.00 -0.00    +0.000 AC
DOCKED: ENDBRANCH   8   9
DOCKED: ENDBRANCH   1   8
DOCKED: TORSDOF 4DOCKED: TER
DOCKED: ENDMDL
________________________________________________________________________________


	BEGINNING GENETIC ALGORITHM DOCKING 20 of 100
Run: 20 Seed: 783422427 1138798533 [ Run 20 of 100 GA/GALS ]
Beginning LAMARCKIAN GENETIC ALGORITHM (LGA), with a maximum of 2500000 energy evaluations.

Final-Value: -10.664


	FINAL GENETIC ALGORITHM DOCKED STATE
	_______________________________________________


Detailed state:  trans 37.335 12.458 120.307 quatxyzw -0.128747 0.567870 0.775696 0.243402 center 0.505 -0.158 0.114 ntor 4 9.8606 148.8935 111.8790 -76.8369
State:	 37.335  12.458 120.307  -0.133  0.585  0.800 151.825      9.86  148.89  111.88  -76.84

DOCKED: MODEL       20
DOCKED: USER    Run = 20
DOCKED: USER    DPF = ligand_dock.biased.dpf
DOCKED: USER  
DOCKED: USER    Estimated Free Energy of Binding    =   -9.07 kcal/mol  [=(1)+(2)+(3)-(4)]
DOCKED: USER    Estimated Inhibition Constant, Ki   =  224.29 nM (nanomolar)  [Temperature = 298.15 K]
DOCKED: USER    
DOCKED: USER    (1) Final Intermolecular Energy     =  -10.26 kcal/mol
DOCKED: USER        vdW + Hbond + desolv Energy     =  -10.26 kcal/mol
DOCKED: USER        Electrostatic Energy            =   +0.00 kcal/mol
DOCKED: USER    (2) Final Total Internal Energy     =   -0.40 kcal/mol
DOCKED: USER    (3) Torsional Free Energy           =   +1.19 kcal/mol
DOCKED: USER    (4) Unbound System's Energy  [=(2)] =   -0.40 kcal/mol
DOCKED: USER    
DOCKED: USER    
DOCKED: USER    NEWDPF move ligand.dum.pdbqt
DOCKED: USER    NEWDPF about 0.505000 -0.158000 0.114000
DOCKED: USER    NEWDPF tran0 37.335330 12.457746 120.307061
DOCKED: USER    NEWDPF quaternion0 -0.128747 0.567870 0.775696 0.243402
DOCKED: USER    NEWDPF axisangle0 -0.132739 0.585478 0.799748 151.825135
DOCKED: USER    NEWDPF quat0 -0.132739 0.585478 0.799748 151.825135
DOCKED: USER    NEWDPF dihe0 9.86 148.89 111.88 -76.84 
DOCKED: USER  keepresnum = 1 
DOCKED: USER  
DOCKED: REMARK  Name = 
DOCKED: REMARK  4 active torsions:
DOCKED: REMARK  status: ('A' for Active; 'I' for Inactive)
DOCKED: REMARK    1  A    between atoms: C_3  and  C_4
DOCKED: REMARK    2  A    between atoms: C_4  and  C_5
DOCKED: REMARK    3  A    between atoms: C_5  and  C_6
DOCKED: REMARK    4  A    between atoms: C_6  and  C_7
DOCKED: REMARK                            x       y       z     vdW  Elec       q    Type
DOCKED: REMARK                         _______ _______ _______ _____ _____    ______ ____
DOCKED: USER                              x       y       z     vdW  Elec       q    Type
DOCKED: USER                           _______ _______ _______ _____ _____    ______ ____
DOCKED: ROOT
DOCKED: ATOM      1  C   UNL     1      37.443  12.014 121.607 -0.47 -0.00    +0.000 C 
DOCKED: ENDROOT
DOCKED: BRANCH   1   2
DOCKED: ATOM      2  C   UNL     1      36.277  11.122 122.052 -0.62 -0.00    +0.000 C 
DOCKED: BRANCH   2   5
DOCKED: ATOM      3  O   UNL     1      37.205   7.722 123.431 -2.65 -0.00    +0.000 OA
DOCKED: ATOM      4  N   UNL     1      36.831   9.021 123.376 -0.59 -0.00    +0.000 N 
DOCKED: ATOM      5  C   UNL     1      36.674   9.676 122.114 -0.68 -0.00    +0.000 C 
DOCKED: ATOM      6  O   UNL     1      36.899   9.045 121.046 -2.67 -0.00    +0.000 OA
DOCKED: ATOM      7  H   UNL     1      36.667   9.519 124.208 -0.48 -0.00    +0.000 HD
DOCKED: ENDBRANCH   2   5
DOCKED: ENDBRANCH   1   2
DOCKED: BRANCH   1   8
DOCKED: ATOM      8  C   UNL     1      37.644  11.996 120.086 -0.49 -0.00    +0.000 C 
DOCKED: BRANCH   8   9
DOCKED: ATOM      9  C   UNL     1      37.164  13.284 119.475 -0.39 -0.00    +0.000 A 
DOCKED: ATOM     10  C   UNL     1      36.828  13.341 118.111 -0.36 -0.00    +0.000 A 
DOCKED: ATOM     11  C   UNL     1      36.412  14.546 117.537 -0.29 -0.00    +0.000 A 
DOCKED: ATOM     12  C   UNL     1      36.338  15.705 118.317 -0.18 -0.00    +0.000 A 
DOCKED: ATOM     13  C   UNL     1      36.684  15.660 119.670 -0.16 -0.00    +0.000 A 
DOCKED: ATOM     14  C   UNL     1      37.100  14.456 120.247 -0.25 -0.00    +0.000 A 
DOCKED: ATOM     15  CM  UNL     1      36.755  14.499 118.893 +0.00 -0.00    +0.000 AC
DOCKED: ENDBRANCH   8   9
DOCKED: ENDBRANCH   1   8
DOCKED: TORSDOF 4DOCKED: TER
DOCKED: ENDMDL
________________________________________________________________________________


	BEGINNING GENETIC ALGORITHM DOCKING 21 of 100
Run: 21 Seed: 1359044255 1738536268 [ Run 21 of 100 GA/GALS ]
Beginning LAMARCKIAN GENETIC ALGORITHM (LGA), with a maximum of 2500000 energy evaluations.

Final-Value: -11.702


	FINAL GENETIC ALGORITHM DOCKED STATE
	_______________________________________________


Detailed state:  trans 36.144 11.978 123.957 quatxyzw 0.133939 0.510735 -0.687549 -0.498484 center 0.505 -0.158 0.114 ntor 4 -78.6120 -39.7906 79.9109 63.9665
State:	 36.144  11.978 123.957   0.155  0.589 -0.793 -120.200    -78.61  -39.79   79.91   63.97

DOCKED: MODEL       21
DOCKED: USER    Run = 21
DOCKED: USER    DPF = ligand_dock.biased.dpf
DOCKED: USER  
DOCKED: USER    Estimated Free Energy of Binding    =  -10.13 kcal/mol  [=(1)+(2)+(3)-(4)]
DOCKED: USER    Estimated Inhibition Constant, Ki   =   37.86 nM (nanomolar)  [Temperature = 298.15 K]
DOCKED: USER    
DOCKED: USER    (1) Final Intermolecular Energy     =  -11.32 kcal/mol
DOCKED: USER        vdW + Hbond + desolv Energy     =  -11.32 kcal/mol
DOCKED: USER        Electrostatic Energy            =   +0.00 kcal/mol
DOCKED: USER    (2) Final Total Internal Energy     =   -0.38 kcal/mol
DOCKED: USER    (3) Torsional Free Energy           =   +1.19 kcal/mol
DOCKED: USER    (4) Unbound System's Energy  [=(2)] =   -0.38 kcal/mol
DOCKED: USER    
DOCKED: USER    
DOCKED: USER    NEWDPF move ligand.dum.pdbqt
DOCKED: USER    NEWDPF about 0.505000 -0.158000 0.114000
DOCKED: USER    NEWDPF tran0 36.143794 11.977965 123.956513
DOCKED: USER    NEWDPF quaternion0 0.133939 0.510735 -0.687549 -0.498484
DOCKED: USER    NEWDPF axisangle0 0.154504 0.589152 -0.793113 -120.200448
DOCKED: USER    NEWDPF quat0 0.154504 0.589152 -0.793113 -120.200448
DOCKED: USER    NEWDPF dihe0 -78.61 -39.79 79.91 63.97 
DOCKED: USER  keepresnum = 1 
DOCKED: USER  
DOCKED: REMARK  Name = 
DOCKED: REMARK  4 active torsions:
DOCKED: REMARK  status: ('A' for Active; 'I' for Inactive)
DOCKED: REMARK    1  A    between atoms: C_3  and  C_4
DOCKED: REMARK    2  A    between atoms: C_4  and  C_5
DOCKED: REMARK    3  A    between atoms: C_5  and  C_6
DOCKED: REMARK    4  A    between atoms: C_6  and  C_7
DOCKED: REMARK                            x       y       z     vdW  Elec       q    Type
DOCKED: REMARK                         _______ _______ _______ _____ _____    ______ ____
DOCKED: USER                              x       y       z     vdW  Elec       q    Type
DOCKED: USER                           _______ _______ _______ _____ _____    ______ ____
DOCKED: ROOT
DOCKED: ATOM      1  C   UNL     1      37.148  11.868 123.019 -0.61 -0.00    +0.000 C 
DOCKED: ENDROOT
DOCKED: BRANCH   1   2
DOCKED: ATOM      2  C   UNL     1      36.739  11.083 121.767 -0.57 -0.00    +0.000 C 
DOCKED: BRANCH   2   5
DOCKED: ATOM      3  O   UNL     1      37.068   7.717 123.467 -2.69 -0.00    +0.000 OA
DOCKED: ATOM      4  N   UNL     1      36.927   9.051 123.287 -0.62 -0.00    +0.000 N 
DOCKED: ATOM      5  C   UNL     1      36.877   9.601 121.968 -0.64 -0.00    +0.000 C 
DOCKED: ATOM      6  O   UNL     1      36.979   8.843 120.966 -2.69 -0.00    +0.000 OA
DOCKED: ATOM      7  H   UNL     1      36.859   9.646 124.068 -0.50 -0.00    +0.000 HD
DOCKED: ENDBRANCH   2   5
DOCKED: ENDBRANCH   1   2
DOCKED: BRANCH   1   8
DOCKED: ATOM      8  C   UNL     1      35.944  12.496 123.734 -0.62 -0.00    +0.000 C 
DOCKED: BRANCH   8   9
DOCKED: ATOM      9  C   UNL     1      36.003  13.997 123.648 -0.49 -0.00    +0.000 A 
DOCKED: ATOM     10  C   UNL     1      34.897  14.774 124.036 -0.45 -0.00    +0.000 A 
DOCKED: ATOM     11  C   UNL     1      34.942  16.167 123.925 -0.45 -0.00    +0.000 A 
DOCKED: ATOM     12  C   UNL     1      36.084  16.793 123.417 -0.29 -0.00    +0.000 A 
DOCKED: ATOM     13  C   UNL     1      37.182  16.028 123.017 -0.28 -0.00    +0.000 A 
DOCKED: ATOM     14  C   UNL     1      37.142  14.634 123.126 -0.41 -0.00    +0.000 A 
DOCKED: ATOM     15  CM  UNL     1      36.042  15.399 123.528 +0.00 -0.00    +0.000 AC
DOCKED: ENDBRANCH   8   9
DOCKED: ENDBRANCH   1   8
DOCKED: TORSDOF 4DOCKED: TER
DOCKED: ENDMDL
________________________________________________________________________________


	BEGINNING GENETIC ALGORITHM DOCKING 22 of 100
Run: 22 Seed: 1387655556 1890089356 [ Run 22 of 100 GA/GALS ]
Beginning LAMARCKIAN GENETIC ALGORITHM (LGA), with a maximum of 2500000 energy evaluations.

Final-Value: -11.725


	FINAL GENETIC ALGORITHM DOCKED STATE
	_______________________________________________


Detailed state:  trans 36.671 13.123 123.163 quatxyzw 0.826643 -0.182522 -0.529422 0.055317 center 0.505 -0.158 0.114 ntor 4 -119.8729 -161.3337 145.9797 -66.2652
State:	 36.671  13.123 123.163   0.828 -0.183 -0.530 173.658   -119.87 -161.33  145.98  -66.27

DOCKED: MODEL       22
DOCKED: USER    Run = 22
DOCKED: USER    DPF = ligand_dock.biased.dpf
DOCKED: USER  
DOCKED: USER    Estimated Free Energy of Binding    =  -10.17 kcal/mol  [=(1)+(2)+(3)-(4)]
DOCKED: USER    Estimated Inhibition Constant, Ki   =   35.28 nM (nanomolar)  [Temperature = 298.15 K]
DOCKED: USER    
DOCKED: USER    (1) Final Intermolecular Energy     =  -11.36 kcal/mol
DOCKED: USER        vdW + Hbond + desolv Energy     =  -11.36 kcal/mol
DOCKED: USER        Electrostatic Energy            =   +0.00 kcal/mol
DOCKED: USER    (2) Final Total Internal Energy     =   -0.36 kcal/mol
DOCKED: USER    (3) Torsional Free Energy           =   +1.19 kcal/mol
DOCKED: USER    (4) Unbound System's Energy  [=(2)] =   -0.36 kcal/mol
DOCKED: USER    
DOCKED: USER    
DOCKED: USER    NEWDPF move ligand.dum.pdbqt
DOCKED: USER    NEWDPF about 0.505000 -0.158000 0.114000
DOCKED: USER    NEWDPF tran0 36.671060 13.122848 123.162924
DOCKED: USER    NEWDPF quaternion0 0.826643 -0.182522 -0.529422 0.055317
DOCKED: USER    NEWDPF axisangle0 0.827910 -0.182802 -0.530234 173.657948
DOCKED: USER    NEWDPF quat0 0.827910 -0.182802 -0.530234 173.657948
DOCKED: USER    NEWDPF dihe0 -119.87 -161.33 145.98 -66.27 
DOCKED: USER  keepresnum = 1 
DOCKED: USER  
DOCKED: REMARK  Name = 
DOCKED: REMARK  4 active torsions:
DOCKED: REMARK  status: ('A' for Active; 'I' for Inactive)
DOCKED: REMARK    1  A    between atoms: C_3  and  C_4
DOCKED: REMARK    2  A    between atoms: C_4  and  C_5
DOCKED: REMARK    3  A    between atoms: C_5  and  C_6
DOCKED: REMARK    4  A    between atoms: C_6  and  C_7
DOCKED: REMARK                            x       y       z     vdW  Elec       q    Type
DOCKED: REMARK                         _______ _______ _______ _____ _____    ______ ____
DOCKED: USER                              x       y       z     vdW  Elec       q    Type
DOCKED: USER                           _______ _______ _______ _____ _____    ______ ____
DOCKED: ROOT
DOCKED: ATOM      1  C   UNL     1      36.269  11.807 123.084 -0.69 -0.00    +0.000 C 
DOCKED: ENDROOT
DOCKED: BRANCH   1   2
DOCKED: ATOM      2  C   UNL     1      36.720  11.101 121.799 -0.58 -0.00    +0.000 C 
DOCKED: BRANCH   2   5
DOCKED: ATOM      3  O   UNL     1      37.071   7.718 123.460 -2.70 -0.00    +0.000 OA
DOCKED: ATOM      4  N   UNL     1      36.965   9.057 123.294 -0.62 -0.00    +0.000 N 
DOCKED: ATOM      5  C   UNL     1      36.820   9.614 121.986 -0.65 -0.00    +0.000 C 
DOCKED: ATOM      6  O   UNL     1      36.805   8.858 120.978 -2.64 -0.00    +0.000 OA
DOCKED: ATOM      7  H   UNL     1      36.988   9.650 124.079 -0.53 -0.00    +0.000 HD
DOCKED: ENDBRANCH   2   5
DOCKED: ENDBRANCH   1   2
DOCKED: BRANCH   1   8
DOCKED: ATOM      8  C   UNL     1      37.177  12.988 123.451 -0.60 -0.00    +0.000 C 
DOCKED: BRANCH   8   9
DOCKED: ATOM      9  C   UNL     1      36.407  14.280 123.407 -0.46 -0.00    +0.000 A 
DOCKED: ATOM     10  C   UNL     1      36.855  15.346 122.607 -0.32 -0.00    +0.000 A 
DOCKED: ATOM     11  C   UNL     1      36.156  16.557 122.591 -0.26 -0.00    +0.000 A 
DOCKED: ATOM     12  C   UNL     1      35.014  16.717 123.381 -0.38 -0.00    +0.000 A 
DOCKED: ATOM     13  C   UNL     1      34.570  15.667 124.189 -0.53 -0.00    +0.000 A 
DOCKED: ATOM     14  C   UNL     1      35.266  14.454 124.208 -0.41 -0.00    +0.000 A 
DOCKED: ATOM     15  CM  UNL     1      35.712  15.504 123.398 +0.00 -0.00    +0.000 AC
DOCKED: ENDBRANCH   8   9
DOCKED: ENDBRANCH   1   8
DOCKED: TORSDOF 4DOCKED: TER
DOCKED: ENDMDL
________________________________________________________________________________


	BEGINNING GENETIC ALGORITHM DOCKING 23 of 100
Run: 23 Seed: 25813741 592971717 [ Run 23 of 100 GA/GALS ]
Beginning LAMARCKIAN GENETIC ALGORITHM (LGA), with a maximum of 2500000 energy evaluations.

Final-Value: -11.733


	FINAL GENETIC ALGORITHM DOCKED STATE
	_______________________________________________


Detailed state:  trans 36.840 13.198 123.392 quatxyzw -0.710467 0.128573 0.691768 0.012742 center 0.505 -0.158 0.114 ntor 4 -99.1265 -153.8303 121.9868 -83.9698
State:	 36.840  13.198 123.392  -0.711  0.129  0.692 178.540    -99.13 -153.83  121.99  -83.97

DOCKED: MODEL       23
DOCKED: USER    Run = 23
DOCKED: USER    DPF = ligand_dock.biased.dpf
DOCKED: USER  
DOCKED: USER    Estimated Free Energy of Binding    =  -10.17 kcal/mol  [=(1)+(2)+(3)-(4)]
DOCKED: USER    Estimated Inhibition Constant, Ki   =   35.34 nM (nanomolar)  [Temperature = 298.15 K]
DOCKED: USER    
DOCKED: USER    (1) Final Intermolecular Energy     =  -11.36 kcal/mol
DOCKED: USER        vdW + Hbond + desolv Energy     =  -11.36 kcal/mol
DOCKED: USER        Electrostatic Energy            =   +0.00 kcal/mol
DOCKED: USER    (2) Final Total Internal Energy     =   -0.37 kcal/mol
DOCKED: USER    (3) Torsional Free Energy           =   +1.19 kcal/mol
DOCKED: USER    (4) Unbound System's Energy  [=(2)] =   -0.37 kcal/mol
DOCKED: USER    
DOCKED: USER    
DOCKED: USER    NEWDPF move ligand.dum.pdbqt
DOCKED: USER    NEWDPF about 0.505000 -0.158000 0.114000
DOCKED: USER    NEWDPF tran0 36.839513 13.197558 123.392028
DOCKED: USER    NEWDPF quaternion0 -0.710467 0.128573 0.691768 0.012742
DOCKED: USER    NEWDPF axisangle0 -0.710525 0.128584 0.691824 178.539877
DOCKED: USER    NEWDPF quat0 -0.710525 0.128584 0.691824 178.539877
DOCKED: USER    NEWDPF dihe0 -99.13 -153.83 121.99 -83.97 
DOCKED: USER  keepresnum = 1 
DOCKED: USER  
DOCKED: REMARK  Name = 
DOCKED: REMARK  4 active torsions:
DOCKED: REMARK  status: ('A' for Active; 'I' for Inactive)
DOCKED: REMARK    1  A    between atoms: C_3  and  C_4
DOCKED: REMARK    2  A    between atoms: C_4  and  C_5
DOCKED: REMARK    3  A    between atoms: C_5  and  C_6
DOCKED: REMARK    4  A    between atoms: C_6  and  C_7
DOCKED: REMARK                            x       y       z     vdW  Elec       q    Type
DOCKED: REMARK                         _______ _______ _______ _____ _____    ______ ____
DOCKED: USER                              x       y       z     vdW  Elec       q    Type
DOCKED: USER                           _______ _______ _______ _____ _____    ______ ____
DOCKED: ROOT
DOCKED: ATOM      1  C   UNL     1      36.614  11.838 123.422 -0.70 -0.00    +0.000 C 
DOCKED: ENDROOT
DOCKED: BRANCH   1   2
DOCKED: ATOM      2  C   UNL     1      36.600  11.186 122.034 -0.62 -0.00    +0.000 C 
DOCKED: BRANCH   2   5
DOCKED: ATOM      3  O   UNL     1      37.132   7.718 123.454 -2.68 -0.00    +0.000 OA
DOCKED: ATOM      4  N   UNL     1      36.953   9.057 123.382 -0.59 -0.00    +0.000 N 
DOCKED: ATOM      5  C   UNL     1      36.779   9.697 122.116 -0.66 -0.00    +0.000 C 
DOCKED: ATOM      6  O   UNL     1      36.806   9.014 121.057 -2.64 -0.00    +0.000 OA
DOCKED: ATOM      7  H   UNL     1      36.943   9.595 124.207 -0.55 -0.00    +0.000 HD
DOCKED: ENDBRANCH   2   5
DOCKED: ENDBRANCH   1   2
DOCKED: BRANCH   1   8
DOCKED: ATOM      8  C   UNL     1      37.432  13.137 123.448 -0.56 -0.00    +0.000 C 
DOCKED: BRANCH   8   9
DOCKED: ATOM      9  C   UNL     1      36.526  14.334 123.340 -0.45 -0.00    +0.000 A 
DOCKED: ATOM     10  C   UNL     1      36.971  15.506 122.705 -0.32 -0.00    +0.000 A 
DOCKED: ATOM     11  C   UNL     1      36.140  16.627 122.633 -0.26 -0.00    +0.000 A 
DOCKED: ATOM     12  C   UNL     1      34.864  16.592 123.203 -0.39 -0.00    +0.000 A 
DOCKED: ATOM     13  C   UNL     1      34.419  15.435 123.848 -0.53 -0.00    +0.000 A 
DOCKED: ATOM     14  C   UNL     1      35.247  14.311 123.922 -0.42 -0.00    +0.000 A 
DOCKED: ATOM     15  CM  UNL     1      35.695  15.467 123.275 +0.00 -0.00    +0.000 AC
DOCKED: ENDBRANCH   8   9
DOCKED: ENDBRANCH   1   8
DOCKED: TORSDOF 4DOCKED: TER
DOCKED: ENDMDL
________________________________________________________________________________


	BEGINNING GENETIC ALGORITHM DOCKING 24 of 100
Run: 24 Seed: 655691371 1278161215 [ Run 24 of 100 GA/GALS ]
Beginning LAMARCKIAN GENETIC ALGORITHM (LGA), with a maximum of 2500000 energy evaluations.

Final-Value: -11.690


	FINAL GENETIC ALGORITHM DOCKED STATE
	_______________________________________________


Detailed state:  trans 36.807 13.191 123.388 quatxyzw -0.661225 0.173390 0.729871 -0.002230 center 0.505 -0.158 0.114 ntor 4 -70.8510 -171.2537 99.5691 -79.5410
State:	 36.807  13.191 123.388  -0.661  0.173  0.730 -179.744    -70.85 -171.25   99.57  -79.54

DOCKED: MODEL       24
DOCKED: USER    Run = 24
DOCKED: USER    DPF = ligand_dock.biased.dpf
DOCKED: USER  
DOCKED: USER    Estimated Free Energy of Binding    =  -10.12 kcal/mol  [=(1)+(2)+(3)-(4)]
DOCKED: USER    Estimated Inhibition Constant, Ki   =   38.43 nM (nanomolar)  [Temperature = 298.15 K]
DOCKED: USER    
DOCKED: USER    (1) Final Intermolecular Energy     =  -11.31 kcal/mol
DOCKED: USER        vdW + Hbond + desolv Energy     =  -11.31 kcal/mol
DOCKED: USER        Electrostatic Energy            =   +0.00 kcal/mol
DOCKED: USER    (2) Final Total Internal Energy     =   -0.38 kcal/mol
DOCKED: USER    (3) Torsional Free Energy           =   +1.19 kcal/mol
DOCKED: USER    (4) Unbound System's Energy  [=(2)] =   -0.38 kcal/mol
DOCKED: USER    
DOCKED: USER    
DOCKED: USER    NEWDPF move ligand.dum.pdbqt
DOCKED: USER    NEWDPF about 0.505000 -0.158000 0.114000
DOCKED: USER    NEWDPF tran0 36.806617 13.191451 123.387834
DOCKED: USER    NEWDPF quaternion0 -0.661225 0.173390 0.729871 -0.002230
DOCKED: USER    NEWDPF axisangle0 -0.661227 0.173390 0.729873 -179.744471
DOCKED: USER    NEWDPF quat0 -0.661227 0.173390 0.729873 -179.744471
DOCKED: USER    NEWDPF dihe0 -70.85 -171.25 99.57 -79.54 
DOCKED: USER  keepresnum = 1 
DOCKED: USER  
DOCKED: REMARK  Name = 
DOCKED: REMARK  4 active torsions:
DOCKED: REMARK  status: ('A' for Active; 'I' for Inactive)
DOCKED: REMARK    1  A    between atoms: C_3  and  C_4
DOCKED: REMARK    2  A    between atoms: C_4  and  C_5
DOCKED: REMARK    3  A    between atoms: C_5  and  C_6
DOCKED: REMARK    4  A    between atoms: C_6  and  C_7
DOCKED: REMARK                            x       y       z     vdW  Elec       q    Type
DOCKED: REMARK                         _______ _______ _______ _____ _____    ______ ____
DOCKED: USER                              x       y       z     vdW  Elec       q    Type
DOCKED: USER                           _______ _______ _______ _____ _____    ______ ____
DOCKED: ROOT
DOCKED: ATOM      1  C   UNL     1      36.457  11.863 123.495 -0.70 -0.00    +0.000 C 
DOCKED: ENDROOT
DOCKED: BRANCH   1   2
DOCKED: ATOM      2  C   UNL     1      36.216  11.179 122.144 -0.62 -0.00    +0.000 C 
DOCKED: BRANCH   2   5
DOCKED: ATOM      3  O   UNL     1      37.099   7.716 123.391 -2.66 -0.00    +0.000 OA
DOCKED: ATOM      4  N   UNL     1      36.679   9.002 123.377 -0.58 -0.00    +0.000 N 
DOCKED: ATOM      5  C   UNL     1      36.664   9.746 122.156 -0.68 -0.00    +0.000 C 
DOCKED: ATOM      6  O   UNL     1      37.059   9.207 121.087 -2.73 -0.00    +0.000 OA
DOCKED: ATOM      7  H   UNL     1      36.381   9.428 124.213 -0.37 -0.00    +0.000 HD
DOCKED: ENDBRANCH   2   5
DOCKED: ENDBRANCH   1   2
DOCKED: BRANCH   1   8
DOCKED: ATOM      8  C   UNL     1      37.393  13.074 123.378 -0.57 -0.00    +0.000 C 
DOCKED: BRANCH   8   9
DOCKED: ATOM      9  C   UNL     1      36.607  14.356 123.438 -0.45 -0.00    +0.000 A 
DOCKED: ATOM     10  C   UNL     1      37.232  15.584 123.161 -0.32 -0.00    +0.000 A 
DOCKED: ATOM     11  C   UNL     1      36.508  16.777 123.248 -0.26 -0.00    +0.000 A 
DOCKED: ATOM     12  C   UNL     1      35.162  16.755 123.622 -0.37 -0.00    +0.000 A 
DOCKED: ATOM     13  C   UNL     1      34.537  15.539 123.913 -0.53 -0.00    +0.000 A 
DOCKED: ATOM     14  C   UNL     1      35.257  14.343 123.826 -0.46 -0.00    +0.000 A 
DOCKED: ATOM     15  CM  UNL     1      35.884  15.559 123.535 +0.00 -0.00    +0.000 AC
DOCKED: ENDBRANCH   8   9
DOCKED: ENDBRANCH   1   8
DOCKED: TORSDOF 4DOCKED: TER
DOCKED: ENDMDL
________________________________________________________________________________


	BEGINNING GENETIC ALGORITHM DOCKING 25 of 100
Run: 25 Seed: 1699022110 1002258222 [ Run 25 of 100 GA/GALS ]
Beginning LAMARCKIAN GENETIC ALGORITHM (LGA), with a maximum of 2500000 energy evaluations.

Final-Value: -11.468


	FINAL GENETIC ALGORITHM DOCKED STATE
	_______________________________________________


Detailed state:  trans 37.997 12.464 123.083 quatxyzw -0.387493 0.624604 -0.670498 -0.100750 center 0.505 -0.158 0.114 ntor 4 -4.1295 -45.6155 -179.9999 93.4209
State:	 37.997  12.464 123.083  -0.389  0.628 -0.674 -168.435     -4.13  -45.62 -180.00   93.42

DOCKED: MODEL       25
DOCKED: USER    Run = 25
DOCKED: USER    DPF = ligand_dock.biased.dpf
DOCKED: USER  
DOCKED: USER    Estimated Free Energy of Binding    =   -9.86 kcal/mol  [=(1)+(2)+(3)-(4)]
DOCKED: USER    Estimated Inhibition Constant, Ki   =   59.31 nM (nanomolar)  [Temperature = 298.15 K]
DOCKED: USER    
DOCKED: USER    (1) Final Intermolecular Energy     =  -11.05 kcal/mol
DOCKED: USER        vdW + Hbond + desolv Energy     =  -11.05 kcal/mol
DOCKED: USER        Electrostatic Energy            =   +0.00 kcal/mol
DOCKED: USER    (2) Final Total Internal Energy     =   -0.42 kcal/mol
DOCKED: USER    (3) Torsional Free Energy           =   +1.19 kcal/mol
DOCKED: USER    (4) Unbound System's Energy  [=(2)] =   -0.42 kcal/mol
DOCKED: USER    
DOCKED: USER    
DOCKED: USER    NEWDPF move ligand.dum.pdbqt
DOCKED: USER    NEWDPF about 0.505000 -0.158000 0.114000
DOCKED: USER    NEWDPF tran0 37.997167 12.463686 123.083411
DOCKED: USER    NEWDPF quaternion0 -0.387493 0.624604 -0.670498 -0.100750
DOCKED: USER    NEWDPF axisangle0 -0.389474 0.627799 -0.673928 -168.435279
DOCKED: USER    NEWDPF quat0 -0.389474 0.627799 -0.673928 -168.435279
DOCKED: USER    NEWDPF dihe0 -4.13 -45.62 -180.00 93.42 
DOCKED: USER  keepresnum = 1 
DOCKED: USER  
DOCKED: REMARK  Name = 
DOCKED: REMARK  4 active torsions:
DOCKED: REMARK  status: ('A' for Active; 'I' for Inactive)
DOCKED: REMARK    1  A    between atoms: C_3  and  C_4
DOCKED: REMARK    2  A    between atoms: C_4  and  C_5
DOCKED: REMARK    3  A    between atoms: C_5  and  C_6
DOCKED: REMARK    4  A    between atoms: C_6  and  C_7
DOCKED: REMARK                            x       y       z     vdW  Elec       q    Type
DOCKED: REMARK                         _______ _______ _______ _____ _____    ______ ____
DOCKED: USER                              x       y       z     vdW  Elec       q    Type
DOCKED: USER                           _______ _______ _______ _____ _____    ______ ____
DOCKED: ROOT
DOCKED: ATOM      1  C   UNL     1      37.362  12.041 121.935 -0.48 -0.00    +0.000 C 
DOCKED: ENDROOT
DOCKED: BRANCH   1   2
DOCKED: ATOM      2  C   UNL     1      36.204  11.070 122.194 -0.63 -0.00    +0.000 C 
DOCKED: BRANCH   2   5
DOCKED: ATOM      3  O   UNL     1      37.442   7.723 123.456 -2.60 -0.00    +0.000 OA
DOCKED: ATOM      4  N   UNL     1      37.009   9.005 123.444 -0.59 -0.00    +0.000 N 
DOCKED: ATOM      5  C   UNL     1      36.667   9.641 122.210 -0.69 -0.00    +0.000 C 
DOCKED: ATOM      6  O   UNL     1      36.784   9.012 121.124 -2.64 -0.00    +0.000 OA
DOCKED: ATOM      7  H   UNL     1      36.928   9.502 124.289 -0.49 -0.00    +0.000 HD
DOCKED: ENDBRANCH   2   5
DOCKED: ENDBRANCH   1   2
DOCKED: BRANCH   1   8
DOCKED: ATOM      8  C   UNL     1      37.647  12.945 123.142 -0.52 -0.00    +0.000 C 
DOCKED: BRANCH   8   9
DOCKED: ATOM      9  C   UNL     1      36.726  14.135 123.140 -0.46 -0.00    +0.000 A 
DOCKED: ATOM     10  C   UNL     1      37.104  15.323 122.491 -0.31 -0.00    +0.000 A 
DOCKED: ATOM     11  C   UNL     1      36.261  16.438 122.517 -0.26 -0.00    +0.000 A 
DOCKED: ATOM     12  C   UNL     1      35.042  16.379 123.199 -0.38 -0.00    +0.000 A 
DOCKED: ATOM     13  C   UNL     1      34.665  15.207 123.858 -0.52 -0.00    +0.000 A 
DOCKED: ATOM     14  C   UNL     1      35.506  14.089 123.835 -0.47 -0.00    +0.000 A 
DOCKED: ATOM     15  CM  UNL     1      35.884  15.262 123.174 +0.00 -0.00    +0.000 AC
DOCKED: ENDBRANCH   8   9
DOCKED: ENDBRANCH   1   8
DOCKED: TORSDOF 4DOCKED: TER
DOCKED: ENDMDL
________________________________________________________________________________


	BEGINNING GENETIC ALGORITHM DOCKING 26 of 100
Run: 26 Seed: 1348094313 220113849 [ Run 26 of 100 GA/GALS ]
Beginning LAMARCKIAN GENETIC ALGORITHM (LGA), with a maximum of 2500000 energy evaluations.

Final-Value: -11.561


	FINAL GENETIC ALGORITHM DOCKED STATE
	_______________________________________________


Detailed state:  trans 36.106 12.949 123.358 quatxyzw -0.936693 0.160182 0.121589 -0.286644 center 0.505 -0.158 0.114 ntor 4 -162.9008 -178.9302 -177.4947 -77.2191
State:	 36.106  12.949 123.358  -0.978  0.167  0.127 -146.686   -162.90 -178.93 -177.49  -77.22

DOCKED: MODEL       26
DOCKED: USER    Run = 26
DOCKED: USER    DPF = ligand_dock.biased.dpf
DOCKED: USER  
DOCKED: USER    Estimated Free Energy of Binding    =   -9.98 kcal/mol  [=(1)+(2)+(3)-(4)]
DOCKED: USER    Estimated Inhibition Constant, Ki   =   48.29 nM (nanomolar)  [Temperature = 298.15 K]
DOCKED: USER    
DOCKED: USER    (1) Final Intermolecular Energy     =  -11.17 kcal/mol
DOCKED: USER        vdW + Hbond + desolv Energy     =  -11.17 kcal/mol
DOCKED: USER        Electrostatic Energy            =   +0.00 kcal/mol
DOCKED: USER    (2) Final Total Internal Energy     =   -0.39 kcal/mol
DOCKED: USER    (3) Torsional Free Energy           =   +1.19 kcal/mol
DOCKED: USER    (4) Unbound System's Energy  [=(2)] =   -0.39 kcal/mol
DOCKED: USER    
DOCKED: USER    
DOCKED: USER    NEWDPF move ligand.dum.pdbqt
DOCKED: USER    NEWDPF about 0.505000 -0.158000 0.114000
DOCKED: USER    NEWDPF tran0 36.105529 12.949419 123.357688
DOCKED: USER    NEWDPF quaternion0 -0.936693 0.160182 0.121589 -0.286644
DOCKED: USER    NEWDPF axisangle0 -0.977721 0.167198 0.126914 -146.685726
DOCKED: USER    NEWDPF quat0 -0.977721 0.167198 0.126914 -146.685726
DOCKED: USER    NEWDPF dihe0 -162.90 -178.93 -177.49 -77.22 
DOCKED: USER  keepresnum = 1 
DOCKED: USER  
DOCKED: REMARK  Name = 
DOCKED: REMARK  4 active torsions:
DOCKED: REMARK  status: ('A' for Active; 'I' for Inactive)
DOCKED: REMARK    1  A    between atoms: C_3  and  C_4
DOCKED: REMARK    2  A    between atoms: C_4  and  C_5
DOCKED: REMARK    3  A    between atoms: C_5  and  C_6
DOCKED: REMARK    4  A    between atoms: C_6  and  C_7
DOCKED: REMARK                            x       y       z     vdW  Elec       q    Type
DOCKED: REMARK                         _______ _______ _______ _____ _____    ______ ____
DOCKED: USER                              x       y       z     vdW  Elec       q    Type
DOCKED: USER                           _______ _______ _______ _____ _____    ______ ____
DOCKED: ROOT
DOCKED: ATOM      1  C   UNL     1      35.825  11.832 122.602 -0.49 -0.00    +0.000 C 
DOCKED: ENDROOT
DOCKED: BRANCH   1   2
DOCKED: ATOM      2  C   UNL     1      37.065  11.188 121.971 -0.55 -0.00    +0.000 C 
DOCKED: BRANCH   2   5
DOCKED: ATOM      3  O   UNL     1      37.065   7.706 123.456 -2.69 -0.00    +0.000 OA
DOCKED: ATOM      4  N   UNL     1      37.078   9.056 123.359 -0.60 -0.00    +0.000 N 
DOCKED: ATOM      5  C   UNL     1      37.032   9.690 122.079 -0.60 -0.00    +0.000 C 
DOCKED: ATOM      6  O   UNL     1      36.994   8.990 121.031 -2.69 -0.00    +0.000 OA
DOCKED: ATOM      7  H   UNL     1      37.119   9.604 124.175 -0.58 -0.00    +0.000 HD
DOCKED: ENDBRANCH   2   5
DOCKED: ENDBRANCH   1   2
DOCKED: BRANCH   1   8
DOCKED: ATOM      8  C   UNL     1      36.163  12.637 123.864 -0.62 -0.00    +0.000 C 
DOCKED: BRANCH   8   9
DOCKED: ATOM      9  C   UNL     1      36.103  14.113 123.581 -0.48 -0.00    +0.000 A 
DOCKED: ATOM     10  C   UNL     1      37.237  14.791 123.100 -0.39 -0.00    +0.000 A 
DOCKED: ATOM     11  C   UNL     1      37.189  16.168 122.868 -0.27 -0.00    +0.000 A 
DOCKED: ATOM     12  C   UNL     1      36.013  16.881 123.123 -0.28 -0.00    +0.000 A 
DOCKED: ATOM     13  C   UNL     1      34.886  16.218 123.614 -0.44 -0.00    +0.000 A 
DOCKED: ATOM     14  C   UNL     1      34.930  14.840 123.847 -0.50 -0.00    +0.000 A 
DOCKED: ATOM     15  CM  UNL     1      36.060  15.502 123.356 +0.00 -0.00    +0.000 AC
DOCKED: ENDBRANCH   8   9
DOCKED: ENDBRANCH   1   8
DOCKED: TORSDOF 4DOCKED: TER
DOCKED: ENDMDL
________________________________________________________________________________


	BEGINNING GENETIC ALGORITHM DOCKING 27 of 100
Run: 27 Seed: 1394550760 1943797796 [ Run 27 of 100 GA/GALS ]
Beginning LAMARCKIAN GENETIC ALGORITHM (LGA), with a maximum of 2500000 energy evaluations.

Final-Value: -10.744


	FINAL GENETIC ALGORITHM DOCKED STATE
	_______________________________________________


Detailed state:  trans 36.909 13.347 122.344 quatxyzw -0.047310 -0.039485 0.965919 0.251403 center 0.505 -0.158 0.114 ntor 4 -16.7216 -128.8679 154.0638 -12.0851
State:	 36.909  13.347 122.344  -0.049 -0.041  0.998 150.879    -16.72 -128.87  154.06  -12.09

DOCKED: MODEL       27
DOCKED: USER    Run = 27
DOCKED: USER    DPF = ligand_dock.biased.dpf
DOCKED: USER  
DOCKED: USER    Estimated Free Energy of Binding    =   -9.23 kcal/mol  [=(1)+(2)+(3)-(4)]
DOCKED: USER    Estimated Inhibition Constant, Ki   =  170.49 nM (nanomolar)  [Temperature = 298.15 K]
DOCKED: USER    
DOCKED: USER    (1) Final Intermolecular Energy     =  -10.43 kcal/mol
DOCKED: USER        vdW + Hbond + desolv Energy     =  -10.43 kcal/mol
DOCKED: USER        Electrostatic Energy            =   +0.00 kcal/mol
DOCKED: USER    (2) Final Total Internal Energy     =   -0.32 kcal/mol
DOCKED: USER    (3) Torsional Free Energy           =   +1.19 kcal/mol
DOCKED: USER    (4) Unbound System's Energy  [=(2)] =   -0.32 kcal/mol
DOCKED: USER    
DOCKED: USER    
DOCKED: USER    NEWDPF move ligand.dum.pdbqt
DOCKED: USER    NEWDPF about 0.505000 -0.158000 0.114000
DOCKED: USER    NEWDPF tran0 36.909296 13.347333 122.344221
DOCKED: USER    NEWDPF quaternion0 -0.047310 -0.039485 0.965919 0.251403
DOCKED: USER    NEWDPF axisangle0 -0.048880 -0.040795 0.997971 150.878955
DOCKED: USER    NEWDPF quat0 -0.048880 -0.040795 0.997971 150.878955
DOCKED: USER    NEWDPF dihe0 -16.72 -128.87 154.06 -12.09 
DOCKED: USER  keepresnum = 1 
DOCKED: USER  
DOCKED: REMARK  Name = 
DOCKED: REMARK  4 active torsions:
DOCKED: REMARK  status: ('A' for Active; 'I' for Inactive)
DOCKED: REMARK    1  A    between atoms: C_3  and  C_4
DOCKED: REMARK    2  A    between atoms: C_4  and  C_5
DOCKED: REMARK    3  A    between atoms: C_5  and  C_6
DOCKED: REMARK    4  A    between atoms: C_6  and  C_7
DOCKED: REMARK                            x       y       z     vdW  Elec       q    Type
DOCKED: REMARK                         _______ _______ _______ _____ _____    ______ ____
DOCKED: USER                              x       y       z     vdW  Elec       q    Type
DOCKED: USER                           _______ _______ _______ _____ _____    ______ ____
DOCKED: ROOT
DOCKED: ATOM      1  C   UNL     1      37.364  12.050 122.250 -0.48 -0.00    +0.000 C 
DOCKED: ENDROOT
DOCKED: BRANCH   1   2
DOCKED: ATOM      2  C   UNL     1      36.248  11.020 122.035 -0.61 -0.00    +0.000 C 
DOCKED: BRANCH   2   5
DOCKED: ATOM      3  O   UNL     1      37.441   7.720 123.454 -2.60 -0.00    +0.000 OA
DOCKED: ATOM      4  N   UNL     1      36.960   8.983 123.382 -0.60 -0.00    +0.000 N 
DOCKED: ATOM      5  C   UNL     1      36.764   9.613 122.114 -0.67 -0.00    +0.000 C 
DOCKED: ATOM      6  O   UNL     1      37.056   8.996 121.054 -2.71 -0.00    +0.000 OA
DOCKED: ATOM      7  H   UNL     1      36.742   9.471 124.209 -0.50 -0.00    +0.000 HD
DOCKED: ENDBRANCH   2   5
DOCKED: ENDBRANCH   1   2
DOCKED: BRANCH   1   8
DOCKED: ATOM      8  C   UNL     1      36.970  13.449 121.758 -0.43 -0.00    +0.000 C 
DOCKED: BRANCH   8   9
DOCKED: ATOM      9  C   UNL     1      37.993  14.467 122.188 -0.38 -0.00    +0.000 A 
DOCKED: ATOM     10  C   UNL     1      37.636  15.504 123.067 -0.32 -0.00    +0.000 A 
DOCKED: ATOM     11  C   UNL     1      38.579  16.466 123.440 -0.21 -0.00    +0.000 A 
DOCKED: ATOM     12  C   UNL     1      39.879  16.408 122.931 -0.25 -0.00    +0.000 A 
DOCKED: ATOM     13  C   UNL     1      40.238  15.388 122.045 -0.34 -0.00    +0.000 A 
DOCKED: ATOM     14  C   UNL     1      39.298  14.423 121.670 -0.32 -0.00    +0.000 A 
DOCKED: ATOM     15  CM  UNL     1      38.937  15.443 122.556 +0.00 -0.00    +0.000 AC
DOCKED: ENDBRANCH   8   9
DOCKED: ENDBRANCH   1   8
DOCKED: TORSDOF 4DOCKED: TER
DOCKED: ENDMDL
________________________________________________________________________________


	BEGINNING GENETIC ALGORITHM DOCKING 28 of 100
Run: 28 Seed: 540705423 658669028 [ Run 28 of 100 GA/GALS ]
Beginning LAMARCKIAN GENETIC ALGORITHM (LGA), with a maximum of 2500000 energy evaluations.

Final-Value: -11.672


	FINAL GENETIC ALGORITHM DOCKED STATE
	_______________________________________________


Detailed state:  trans 36.527 12.933 123.437 quatxyzw -0.788970 0.190767 0.576767 -0.092052 center 0.505 -0.158 0.114 ntor 4 -99.9989 -179.6086 143.9156 -80.2594
State:	 36.527  12.933 123.437  -0.792  0.192  0.579 -169.437   -100.00 -179.61  143.92  -80.26

DOCKED: MODEL       28
DOCKED: USER    Run = 28
DOCKED: USER    DPF = ligand_dock.biased.dpf
DOCKED: USER  
DOCKED: USER    Estimated Free Energy of Binding    =  -10.09 kcal/mol  [=(1)+(2)+(3)-(4)]
DOCKED: USER    Estimated Inhibition Constant, Ki   =   39.96 nM (nanomolar)  [Temperature = 298.15 K]
DOCKED: USER    
DOCKED: USER    (1) Final Intermolecular Energy     =  -11.29 kcal/mol
DOCKED: USER        vdW + Hbond + desolv Energy     =  -11.29 kcal/mol
DOCKED: USER        Electrostatic Energy            =   +0.00 kcal/mol
DOCKED: USER    (2) Final Total Internal Energy     =   -0.39 kcal/mol
DOCKED: USER    (3) Torsional Free Energy           =   +1.19 kcal/mol
DOCKED: USER    (4) Unbound System's Energy  [=(2)] =   -0.39 kcal/mol
DOCKED: USER    
DOCKED: USER    
DOCKED: USER    NEWDPF move ligand.dum.pdbqt
DOCKED: USER    NEWDPF about 0.505000 -0.158000 0.114000
DOCKED: USER    NEWDPF tran0 36.527189 12.932979 123.437092
DOCKED: USER    NEWDPF quaternion0 -0.788970 0.190767 0.576767 -0.092052
DOCKED: USER    NEWDPF axisangle0 -0.792334 0.191580 0.579227 -169.436616
DOCKED: USER    NEWDPF quat0 -0.792334 0.191580 0.579227 -169.436616
DOCKED: USER    NEWDPF dihe0 -100.00 -179.61 143.92 -80.26 
DOCKED: USER  keepresnum = 1 
DOCKED: USER  
DOCKED: REMARK  Name = 
DOCKED: REMARK  4 active torsions:
DOCKED: REMARK  status: ('A' for Active; 'I' for Inactive)
DOCKED: REMARK    1  A    between atoms: C_3  and  C_4
DOCKED: REMARK    2  A    between atoms: C_4  and  C_5
DOCKED: REMARK    3  A    between atoms: C_5  and  C_6
DOCKED: REMARK    4  A    between atoms: C_6  and  C_7
DOCKED: REMARK                            x       y       z     vdW  Elec       q    Type
DOCKED: REMARK                         _______ _______ _______ _____ _____    ______ ____
DOCKED: USER                              x       y       z     vdW  Elec       q    Type
DOCKED: USER                           _______ _______ _______ _____ _____    ______ ____
DOCKED: ROOT
DOCKED: ATOM      1  C   UNL     1      36.034  11.652 123.310 -0.69 -0.00    +0.000 C 
DOCKED: ENDROOT
DOCKED: BRANCH   1   2
DOCKED: ATOM      2  C   UNL     1      36.305  11.022 121.938 -0.59 -0.00    +0.000 C 
DOCKED: BRANCH   2   5
DOCKED: ATOM      3  O   UNL     1      37.354   7.717 123.456 -2.63 -0.00    +0.000 OA
DOCKED: ATOM      4  N   UNL     1      36.928   8.997 123.346 -0.61 -0.00    +0.000 N 
DOCKED: ATOM      5  C   UNL     1      36.759   9.596 122.060 -0.67 -0.00    +0.000 C 
DOCKED: ATOM      6  O   UNL     1      37.023   8.936 121.019 -2.70 -0.00    +0.000 OA
DOCKED: ATOM      7  H   UNL     1      36.732   9.518 124.158 -0.49 -0.00    +0.000 HD
DOCKED: ENDBRANCH   2   5
DOCKED: ENDBRANCH   1   2
DOCKED: BRANCH   1   8
DOCKED: ATOM      8  C   UNL     1      37.050  12.748 123.659 -0.56 -0.00    +0.000 C 
DOCKED: BRANCH   8   9
DOCKED: ATOM      9  C   UNL     1      36.447  14.112 123.457 -0.47 -0.00    +0.000 A 
DOCKED: ATOM     10  C   UNL     1      37.098  15.063 122.652 -0.35 -0.00    +0.000 A 
DOCKED: ATOM     11  C   UNL     1      36.553  16.340 122.490 -0.25 -0.00    +0.000 A 
DOCKED: ATOM     12  C   UNL     1      35.362  16.681 123.138 -0.34 -0.00    +0.000 A 
DOCKED: ATOM     13  C   UNL     1      34.716  15.745 123.951 -0.51 -0.00    +0.000 A 
DOCKED: ATOM     14  C   UNL     1      35.258  14.467 124.115 -0.44 -0.00    +0.000 A 
DOCKED: ATOM     15  CM  UNL     1      35.906  15.401 123.301 +0.00 -0.00    +0.000 AC
DOCKED: ENDBRANCH   8   9
DOCKED: ENDBRANCH   1   8
DOCKED: TORSDOF 4DOCKED: TER
DOCKED: ENDMDL
________________________________________________________________________________


	BEGINNING GENETIC ALGORITHM DOCKING 29 of 100
Run: 29 Seed: 1393974043 1104430195 [ Run 29 of 100 GA/GALS ]
Beginning LAMARCKIAN GENETIC ALGORITHM (LGA), with a maximum of 2500000 energy evaluations.

Final-Value: -11.467


	FINAL GENETIC ALGORITHM DOCKED STATE
	_______________________________________________


Detailed state:  trans 35.951 12.745 123.404 quatxyzw 0.937442 -0.147748 -0.090120 0.302078 center 0.505 -0.158 0.114 ntor 4 -170.1657 -179.0737 -168.0765 -88.0405
State:	 35.951  12.745 123.404   0.983 -0.155 -0.095 144.835   -170.17 -179.07 -168.08  -88.04

DOCKED: MODEL       29
DOCKED: USER    Run = 29
DOCKED: USER    DPF = ligand_dock.biased.dpf
DOCKED: USER  
DOCKED: USER    Estimated Free Energy of Binding    =   -9.87 kcal/mol  [=(1)+(2)+(3)-(4)]
DOCKED: USER    Estimated Inhibition Constant, Ki   =   57.92 nM (nanomolar)  [Temperature = 298.15 K]
DOCKED: USER    
DOCKED: USER    (1) Final Intermolecular Energy     =  -11.07 kcal/mol
DOCKED: USER        vdW + Hbond + desolv Energy     =  -11.07 kcal/mol
DOCKED: USER        Electrostatic Energy            =   +0.00 kcal/mol
DOCKED: USER    (2) Final Total Internal Energy     =   -0.40 kcal/mol
DOCKED: USER    (3) Torsional Free Energy           =   +1.19 kcal/mol
DOCKED: USER    (4) Unbound System's Energy  [=(2)] =   -0.40 kcal/mol
DOCKED: USER    
DOCKED: USER    
DOCKED: USER    NEWDPF move ligand.dum.pdbqt
DOCKED: USER    NEWDPF about 0.505000 -0.158000 0.114000
DOCKED: USER    NEWDPF tran0 35.951296 12.744833 123.404346
DOCKED: USER    NEWDPF quaternion0 0.937442 -0.147748 -0.090120 0.302078
DOCKED: USER    NEWDPF axisangle0 0.983383 -0.154988 -0.094536 144.835067
DOCKED: USER    NEWDPF quat0 0.983383 -0.154988 -0.094536 144.835067
DOCKED: USER    NEWDPF dihe0 -170.17 -179.07 -168.08 -88.04 
DOCKED: USER  keepresnum = 1 
DOCKED: USER  
DOCKED: REMARK  Name = 
DOCKED: REMARK  4 active torsions:
DOCKED: REMARK  status: ('A' for Active; 'I' for Inactive)
DOCKED: REMARK    1  A    between atoms: C_3  and  C_4
DOCKED: REMARK    2  A    between atoms: C_4  and  C_5
DOCKED: REMARK    3  A    between atoms: C_5  and  C_6
DOCKED: REMARK    4  A    between atoms: C_6  and  C_7
DOCKED: REMARK                            x       y       z     vdW  Elec       q    Type
DOCKED: REMARK                         _______ _______ _______ _____ _____    ______ ____
DOCKED: USER                              x       y       z     vdW  Elec       q    Type
DOCKED: USER                           _______ _______ _______ _____ _____    ______ ____
DOCKED: ROOT
DOCKED: ATOM      1  C   UNL     1      35.728  11.643 122.606 -0.49 -0.00    +0.000 C 
DOCKED: ENDROOT
DOCKED: BRANCH   1   2
DOCKED: ATOM      2  C   UNL     1      37.011  11.014 122.052 -0.56 -0.00    +0.000 C 
DOCKED: BRANCH   2   5
DOCKED: ATOM      3  O   UNL     1      37.074   7.500 123.457 -2.54 -0.00    +0.000 OA
DOCKED: ATOM      4  N   UNL     1      37.090   8.852 123.390 -0.62 -0.00    +0.000 N 
DOCKED: ATOM      5  C   UNL     1      36.976   9.515 122.129 -0.63 -0.00    +0.000 C 
DOCKED: ATOM      6  O   UNL     1      36.875   8.839 121.069 -2.65 -0.00    +0.000 OA
DOCKED: ATOM      7  H   UNL     1      37.180   9.381 124.214 -0.60 -0.00    +0.000 HD
DOCKED: ENDBRANCH   2   5
DOCKED: ENDBRANCH   1   2
DOCKED: BRANCH   1   8
DOCKED: ATOM      8  C   UNL     1      35.973  12.421 123.907 -0.59 -0.00    +0.000 C 
DOCKED: BRANCH   8   9
DOCKED: ATOM      9  C   UNL     1      36.192  13.881 123.615 -0.49 -0.00    +0.000 A 
DOCKED: ATOM     10  C   UNL     1      37.436  14.332 123.140 -0.43 -0.00    +0.000 A 
DOCKED: ATOM     11  C   UNL     1      37.648  15.692 122.900 -0.30 -0.00    +0.000 A 
DOCKED: ATOM     12  C   UNL     1      36.625  16.614 123.142 -0.27 -0.00    +0.000 A 
DOCKED: ATOM     13  C   UNL     1      35.390  16.177 123.628 -0.40 -0.00    +0.000 A 
DOCKED: ATOM     14  C   UNL     1      35.174  14.816 123.869 -0.51 -0.00    +0.000 A 
DOCKED: ATOM     15  CM  UNL     1      36.411  15.252 123.383 +0.00 -0.00    +0.000 AC
DOCKED: ENDBRANCH   8   9
DOCKED: ENDBRANCH   1   8
DOCKED: TORSDOF 4DOCKED: TER
DOCKED: ENDMDL
________________________________________________________________________________


	BEGINNING GENETIC ALGORITHM DOCKING 30 of 100
Run: 30 Seed: 1184250285 1371625767 [ Run 30 of 100 GA/GALS ]
Beginning LAMARCKIAN GENETIC ALGORITHM (LGA), with a maximum of 2500000 energy evaluations.

Final-Value: -11.655


	FINAL GENETIC ALGORITHM DOCKED STATE
	_______________________________________________


Detailed state:  trans 36.101 12.766 123.452 quatxyzw 0.917183 -0.161059 -0.254771 0.260628 center 0.505 -0.158 0.114 ntor 4 -144.2898 176.7679 176.3410 -88.0834
State:	 36.101  12.766 123.452   0.950 -0.167 -0.264 149.785   -144.29  176.77  176.34  -88.08

DOCKED: MODEL       30
DOCKED: USER    Run = 30
DOCKED: USER    DPF = ligand_dock.biased.dpf
DOCKED: USER  
DOCKED: USER    Estimated Free Energy of Binding    =  -10.05 kcal/mol  [=(1)+(2)+(3)-(4)]
DOCKED: USER    Estimated Inhibition Constant, Ki   =   43.14 nM (nanomolar)  [Temperature = 298.15 K]
DOCKED: USER    
DOCKED: USER    (1) Final Intermolecular Energy     =  -11.24 kcal/mol
DOCKED: USER        vdW + Hbond + desolv Energy     =  -11.24 kcal/mol
DOCKED: USER        Electrostatic Energy            =   +0.00 kcal/mol
DOCKED: USER    (2) Final Total Internal Energy     =   -0.41 kcal/mol
DOCKED: USER    (3) Torsional Free Energy           =   +1.19 kcal/mol
DOCKED: USER    (4) Unbound System's Energy  [=(2)] =   -0.41 kcal/mol
DOCKED: USER    
DOCKED: USER    
DOCKED: USER    NEWDPF move ligand.dum.pdbqt
DOCKED: USER    NEWDPF about 0.505000 -0.158000 0.114000
DOCKED: USER    NEWDPF tran0 36.100716 12.765871 123.451773
DOCKED: USER    NEWDPF quaternion0 0.917183 -0.161059 -0.254771 0.260628
DOCKED: USER    NEWDPF axisangle0 0.950016 -0.166825 -0.263891 149.785346
DOCKED: USER    NEWDPF quat0 0.950016 -0.166825 -0.263891 149.785346
DOCKED: USER    NEWDPF dihe0 -144.29 176.77 176.34 -88.08 
DOCKED: USER  keepresnum = 1 
DOCKED: USER  
DOCKED: REMARK  Name = 
DOCKED: REMARK  4 active torsions:
DOCKED: REMARK  status: ('A' for Active; 'I' for Inactive)
DOCKED: REMARK    1  A    between atoms: C_3  and  C_4
DOCKED: REMARK    2  A    between atoms: C_4  and  C_5
DOCKED: REMARK    3  A    between atoms: C_5  and  C_6
DOCKED: REMARK    4  A    between atoms: C_6  and  C_7
DOCKED: REMARK                            x       y       z     vdW  Elec       q    Type
DOCKED: REMARK                         _______ _______ _______ _____ _____    ______ ____
DOCKED: USER                              x       y       z     vdW  Elec       q    Type
DOCKED: USER                           _______ _______ _______ _____ _____    ______ ____
DOCKED: ROOT
DOCKED: ATOM      1  C   UNL     1      35.715  11.627 122.779 -0.55 -0.00    +0.000 C 
DOCKED: ENDROOT
DOCKED: BRANCH   1   2
DOCKED: ATOM      2  C   UNL     1      36.792  11.074 121.837 -0.58 -0.00    +0.000 C 
DOCKED: BRANCH   2   5
DOCKED: ATOM      3  O   UNL     1      37.242   7.682 123.457 -2.63 -0.00    +0.000 OA
DOCKED: ATOM      4  N   UNL     1      37.065   9.016 123.308 -0.62 -0.00    +0.000 N 
DOCKED: ATOM      5  C   UNL     1      36.970   9.592 122.003 -0.62 -0.00    +0.000 C 
DOCKED: ATOM      6  O   UNL     1      37.068   8.858 120.983 -2.71 -0.00    +0.000 OA
DOCKED: ATOM      7  H   UNL     1      37.000   9.592 124.103 -0.54 -0.00    +0.000 HD
DOCKED: ENDBRANCH   2   5
DOCKED: ENDBRANCH   1   2
DOCKED: BRANCH   1   8
DOCKED: ATOM      8  C   UNL     1      36.311  12.461 123.921 -0.62 -0.00    +0.000 C 
DOCKED: BRANCH   8   9
DOCKED: ATOM      9  C   UNL     1      36.309  13.923 123.564 -0.49 -0.00    +0.000 A 
DOCKED: ATOM     10  C   UNL     1      37.445  14.514 122.986 -0.41 -0.00    +0.000 A 
DOCKED: ATOM     11  C   UNL     1      37.453  15.879 122.684 -0.28 -0.00    +0.000 A 
DOCKED: ATOM     12  C   UNL     1      36.332  16.665 122.967 -0.27 -0.00    +0.000 A 
DOCKED: ATOM     13  C   UNL     1      35.203  16.088 123.555 -0.42 -0.00    +0.000 A 
DOCKED: ATOM     14  C   UNL     1      35.192  14.723 123.858 -0.50 -0.00    +0.000 A 
DOCKED: ATOM     15  CM  UNL     1      36.322  15.299 123.269 +0.00 -0.00    +0.000 AC
DOCKED: ENDBRANCH   8   9
DOCKED: ENDBRANCH   1   8
DOCKED: TORSDOF 4DOCKED: TER
DOCKED: ENDMDL
________________________________________________________________________________


	BEGINNING GENETIC ALGORITHM DOCKING 31 of 100
Run: 31 Seed: 950673977 1404908753 [ Run 31 of 100 GA/GALS ]
Beginning LAMARCKIAN GENETIC ALGORITHM (LGA), with a maximum of 2500000 energy evaluations.

Final-Value: -11.706


	FINAL GENETIC ALGORITHM DOCKED STATE
	_______________________________________________


Detailed state:  trans 37.115 13.241 123.151 quatxyzw 0.644565 -0.097305 -0.754674 -0.074392 center 0.505 -0.158 0.114 ntor 4 -90.2798 -141.7455 -84.3535 -74.1185
State:	 37.115  13.241 123.151   0.646 -0.098 -0.757 -171.467    -90.28 -141.75  -84.35  -74.12

DOCKED: MODEL       31
DOCKED: USER    Run = 31
DOCKED: USER    DPF = ligand_dock.biased.dpf
DOCKED: USER  
DOCKED: USER    Estimated Free Energy of Binding    =  -10.14 kcal/mol  [=(1)+(2)+(3)-(4)]
DOCKED: USER    Estimated Inhibition Constant, Ki   =   36.69 nM (nanomolar)  [Temperature = 298.15 K]
DOCKED: USER    
DOCKED: USER    (1) Final Intermolecular Energy     =  -11.34 kcal/mol
DOCKED: USER        vdW + Hbond + desolv Energy     =  -11.34 kcal/mol
DOCKED: USER        Electrostatic Energy            =   +0.00 kcal/mol
DOCKED: USER    (2) Final Total Internal Energy     =   -0.37 kcal/mol
DOCKED: USER    (3) Torsional Free Energy           =   +1.19 kcal/mol
DOCKED: USER    (4) Unbound System's Energy  [=(2)] =   -0.37 kcal/mol
DOCKED: USER    
DOCKED: USER    
DOCKED: USER    NEWDPF move ligand.dum.pdbqt
DOCKED: USER    NEWDPF about 0.505000 -0.158000 0.114000
DOCKED: USER    NEWDPF tran0 37.115249 13.240927 123.150702
DOCKED: USER    NEWDPF quaternion0 0.644565 -0.097305 -0.754674 -0.074392
DOCKED: USER    NEWDPF axisangle0 0.646356 -0.097575 -0.756771 -171.467441
DOCKED: USER    NEWDPF quat0 0.646356 -0.097575 -0.756771 -171.467441
DOCKED: USER    NEWDPF dihe0 -90.28 -141.75 -84.35 -74.12 
DOCKED: USER  keepresnum = 1 
DOCKED: USER  
DOCKED: REMARK  Name = 
DOCKED: REMARK  4 active torsions:
DOCKED: REMARK  status: ('A' for Active; 'I' for Inactive)
DOCKED: REMARK    1  A    between atoms: C_3  and  C_4
DOCKED: REMARK    2  A    between atoms: C_4  and  C_5
DOCKED: REMARK    3  A    between atoms: C_5  and  C_6
DOCKED: REMARK    4  A    between atoms: C_6  and  C_7
DOCKED: REMARK                            x       y       z     vdW  Elec       q    Type
DOCKED: REMARK                         _______ _______ _______ _____ _____    ______ ____
DOCKED: USER                              x       y       z     vdW  Elec       q    Type
DOCKED: USER                           _______ _______ _______ _____ _____    ______ ____
DOCKED: ROOT
DOCKED: ATOM      1  C   UNL     1      37.055  11.868 123.250 -0.67 -0.00    +0.000 C 
DOCKED: ENDROOT
DOCKED: BRANCH   1   2
DOCKED: ATOM      2  C   UNL     1      36.846  11.162 121.905 -0.58 -0.00    +0.000 C 
DOCKED: BRANCH   2   5
DOCKED: ATOM      3  O   UNL     1      37.076   7.717 123.456 -2.70 -0.00    +0.000 OA
DOCKED: ATOM      4  N   UNL     1      36.991   9.062 123.334 -0.61 -0.00    +0.000 N 
DOCKED: ATOM      5  C   UNL     1      36.921   9.668 122.041 -0.63 -0.00    +0.000 C 
DOCKED: ATOM      6  O   UNL     1      36.954   8.949 121.006 -2.68 -0.00    +0.000 OA
DOCKED: ATOM      7  H   UNL     1      36.977   9.626 124.140 -0.54 -0.00    +0.000 HD
DOCKED: ENDBRANCH   2   5
DOCKED: ENDBRANCH   1   2
DOCKED: BRANCH   1   8
DOCKED: ATOM      8  C   UNL     1      37.710  13.247 123.090 -0.54 -0.00    +0.000 C 
DOCKED: BRANCH   8   9
DOCKED: ATOM      9  C   UNL     1      36.716  14.339 123.378 -0.44 -0.00    +0.000 A 
DOCKED: ATOM     10  C   UNL     1      35.427  14.022 123.839 -0.43 -0.00    +0.000 A 
DOCKED: ATOM     11  C   UNL     1      34.495  15.037 124.076 -0.47 -0.00    +0.000 A 
DOCKED: ATOM     12  C   UNL     1      34.838  16.372 123.844 -0.44 -0.00    +0.000 A 
DOCKED: ATOM     13  C   UNL     1      36.113  16.695 123.372 -0.30 -0.00    +0.000 A 
DOCKED: ATOM     14  C   UNL     1      37.049  15.683 123.134 -0.32 -0.00    +0.000 A 
DOCKED: ATOM     15  CM  UNL     1      35.773  15.358 123.607 +0.00 -0.00    +0.000 AC
DOCKED: ENDBRANCH   8   9
DOCKED: ENDBRANCH   1   8
DOCKED: TORSDOF 4DOCKED: TER
DOCKED: ENDMDL
________________________________________________________________________________


	BEGINNING GENETIC ALGORITHM DOCKING 32 of 100
Run: 32 Seed: 2034707162 2126617751 [ Run 32 of 100 GA/GALS ]
Beginning LAMARCKIAN GENETIC ALGORITHM (LGA), with a maximum of 2500000 energy evaluations.

Final-Value: -11.583


	FINAL GENETIC ALGORITHM DOCKED STATE
	_______________________________________________


Detailed state:  trans 36.065 12.995 123.364 quatxyzw 0.945451 -0.142751 -0.162346 0.243696 center 0.505 -0.158 0.114 ntor 4 -158.9306 -172.9897 -175.5535 -78.0318
State:	 36.065  12.995 123.364   0.975 -0.147 -0.167 151.790   -158.93 -172.99 -175.55  -78.03

DOCKED: MODEL       32
DOCKED: USER    Run = 32
DOCKED: USER    DPF = ligand_dock.biased.dpf
DOCKED: USER  
DOCKED: USER    Estimated Free Energy of Binding    =  -10.01 kcal/mol  [=(1)+(2)+(3)-(4)]
DOCKED: USER    Estimated Inhibition Constant, Ki   =   46.15 nM (nanomolar)  [Temperature = 298.15 K]
DOCKED: USER    
DOCKED: USER    (1) Final Intermolecular Energy     =  -11.20 kcal/mol
DOCKED: USER        vdW + Hbond + desolv Energy     =  -11.20 kcal/mol
DOCKED: USER        Electrostatic Energy            =   +0.00 kcal/mol
DOCKED: USER    (2) Final Total Internal Energy     =   -0.38 kcal/mol
DOCKED: USER    (3) Torsional Free Energy           =   +1.19 kcal/mol
DOCKED: USER    (4) Unbound System's Energy  [=(2)] =   -0.38 kcal/mol
DOCKED: USER    
DOCKED: USER    
DOCKED: USER    NEWDPF move ligand.dum.pdbqt
DOCKED: USER    NEWDPF about 0.505000 -0.158000 0.114000
DOCKED: USER    NEWDPF tran0 36.065007 12.995418 123.364079
DOCKED: USER    NEWDPF quaternion0 0.945451 -0.142751 -0.162346 0.243696
DOCKED: USER    NEWDPF axisangle0 0.974841 -0.147189 -0.167392 151.790395
DOCKED: USER    NEWDPF quat0 0.974841 -0.147189 -0.167392 151.790395
DOCKED: USER    NEWDPF dihe0 -158.93 -172.99 -175.55 -78.03 
DOCKED: USER  keepresnum = 1 
DOCKED: USER  
DOCKED: REMARK  Name = 
DOCKED: REMARK  4 active torsions:
DOCKED: REMARK  status: ('A' for Active; 'I' for Inactive)
DOCKED: REMARK    1  A    between atoms: C_3  and  C_4
DOCKED: REMARK    2  A    between atoms: C_4  and  C_5
DOCKED: REMARK    3  A    between atoms: C_5  and  C_6
DOCKED: REMARK    4  A    between atoms: C_6  and  C_7
DOCKED: REMARK                            x       y       z     vdW  Elec       q    Type
DOCKED: REMARK                         _______ _______ _______ _____ _____    ______ ____
DOCKED: USER                              x       y       z     vdW  Elec       q    Type
DOCKED: USER                           _______ _______ _______ _____ _____    ______ ____
DOCKED: ROOT
DOCKED: ATOM      1  C   UNL     1      35.809  11.811 122.708 -0.53 -0.00    +0.000 C 
DOCKED: ENDROOT
DOCKED: BRANCH   1   2
DOCKED: ATOM      2  C   UNL     1      37.041  11.208 122.023 -0.56 -0.00    +0.000 C 
DOCKED: BRANCH   2   5
DOCKED: ATOM      3  O   UNL     1      37.094   7.705 123.457 -2.68 -0.00    +0.000 OA
DOCKED: ATOM      4  N   UNL     1      37.071   9.056 123.380 -0.60 -0.00    +0.000 N 
DOCKED: ATOM      5  C   UNL     1      37.048   9.708 122.109 -0.59 -0.00    +0.000 C 
DOCKED: ATOM      6  O   UNL     1      37.066   9.024 121.050 -2.72 -0.00    +0.000 OA
DOCKED: ATOM      7  H   UNL     1      37.069   9.593 124.205 -0.58 -0.00    +0.000 HD
DOCKED: ENDBRANCH   2   5
DOCKED: ENDBRANCH   1   2
DOCKED: BRANCH   1   8
DOCKED: ATOM      8  C   UNL     1      36.183  12.724 123.883 -0.60 -0.00    +0.000 C 
DOCKED: BRANCH   8   9
DOCKED: ATOM      9  C   UNL     1      36.014  14.170 123.504 -0.48 -0.00    +0.000 A 
DOCKED: ATOM     10  C   UNL     1      37.056  14.861 122.860 -0.38 -0.00    +0.000 A 
DOCKED: ATOM     11  C   UNL     1      36.910  16.213 122.536 -0.25 -0.00    +0.000 A 
DOCKED: ATOM     12  C   UNL     1      35.730  16.888 122.861 -0.29 -0.00    +0.000 A 
DOCKED: ATOM     13  C   UNL     1      34.695  16.212 123.514 -0.44 -0.00    +0.000 A 
DOCKED: ATOM     14  C   UNL     1      34.837  14.860 123.839 -0.50 -0.00    +0.000 A 
DOCKED: ATOM     15  CM  UNL     1      35.874  15.534 123.186 +0.00 -0.00    +0.000 AC
DOCKED: ENDBRANCH   8   9
DOCKED: ENDBRANCH   1   8
DOCKED: TORSDOF 4DOCKED: TER
DOCKED: ENDMDL
________________________________________________________________________________


	BEGINNING GENETIC ALGORITHM DOCKING 33 of 100
Run: 33 Seed: 787404745 1386072419 [ Run 33 of 100 GA/GALS ]
Beginning LAMARCKIAN GENETIC ALGORITHM (LGA), with a maximum of 2500000 energy evaluations.

Final-Value: -10.507


	FINAL GENETIC ALGORITHM DOCKED STATE
	_______________________________________________


Detailed state:  trans 37.921 12.335 120.214 quatxyzw -0.719874 0.442510 -0.318672 0.429435 center 0.505 -0.158 0.114 ntor 4 91.6759 -56.3814 19.1423 17.9559
State:	 37.921  12.335 120.214  -0.797  0.490 -0.353 129.137     91.68  -56.38   19.14   17.96

DOCKED: MODEL       33
DOCKED: USER    Run = 33
DOCKED: USER    DPF = ligand_dock.biased.dpf
DOCKED: USER  
DOCKED: USER    Estimated Free Energy of Binding    =   -8.99 kcal/mol  [=(1)+(2)+(3)-(4)]
DOCKED: USER    Estimated Inhibition Constant, Ki   =  258.80 nM (nanomolar)  [Temperature = 298.15 K]
DOCKED: USER    
DOCKED: USER    (1) Final Intermolecular Energy     =  -10.18 kcal/mol
DOCKED: USER        vdW + Hbond + desolv Energy     =  -10.18 kcal/mol
DOCKED: USER        Electrostatic Energy            =   +0.00 kcal/mol
DOCKED: USER    (2) Final Total Internal Energy     =   -0.33 kcal/mol
DOCKED: USER    (3) Torsional Free Energy           =   +1.19 kcal/mol
DOCKED: USER    (4) Unbound System's Energy  [=(2)] =   -0.33 kcal/mol
DOCKED: USER    
DOCKED: USER    
DOCKED: USER    NEWDPF move ligand.dum.pdbqt
DOCKED: USER    NEWDPF about 0.505000 -0.158000 0.114000
DOCKED: USER    NEWDPF tran0 37.921308 12.334812 120.213619
DOCKED: USER    NEWDPF quaternion0 -0.719874 0.442510 -0.318672 0.429435
DOCKED: USER    NEWDPF axisangle0 -0.797117 0.489991 -0.352866 129.136542
DOCKED: USER    NEWDPF quat0 -0.797117 0.489991 -0.352866 129.136542
DOCKED: USER    NEWDPF dihe0 91.68 -56.38 19.14 17.96 
DOCKED: USER  keepresnum = 1 
DOCKED: USER  
DOCKED: REMARK  Name = 
DOCKED: REMARK  4 active torsions:
DOCKED: REMARK  status: ('A' for Active; 'I' for Inactive)
DOCKED: REMARK    1  A    between atoms: C_3  and  C_4
DOCKED: REMARK    2  A    between atoms: C_4  and  C_5
DOCKED: REMARK    3  A    between atoms: C_5  and  C_6
DOCKED: REMARK    4  A    between atoms: C_6  and  C_7
DOCKED: REMARK                            x       y       z     vdW  Elec       q    Type
DOCKED: REMARK                         _______ _______ _______ _____ _____    ______ ____
DOCKED: USER                              x       y       z     vdW  Elec       q    Type
DOCKED: USER                           _______ _______ _______ _____ _____    ______ ____
DOCKED: ROOT
DOCKED: ATOM      1  C   UNL     1      36.783  11.919 120.870 -0.42 -0.00    +0.000 C 
DOCKED: ENDROOT
DOCKED: BRANCH   1   2
DOCKED: ATOM      2  C   UNL     1      37.056  11.319 122.255 -0.57 -0.00    +0.000 C 
DOCKED: BRANCH   2   5
DOCKED: ATOM      3  O   UNL     1      37.066   7.715 123.413 -2.68 -0.00    +0.000 OA
DOCKED: ATOM      4  N   UNL     1      37.062   9.068 123.442 -0.58 -0.00    +0.000 N 
DOCKED: ATOM      5  C   UNL     1      37.042   9.817 122.224 -0.59 -0.00    +0.000 C 
DOCKED: ATOM      6  O   UNL     1      37.044   9.217 121.116 -2.73 -0.00    +0.000 OA
DOCKED: ATOM      7  H   UNL     1      37.072   9.539 124.306 -0.55 -0.00    +0.000 HD
DOCKED: ENDBRANCH   2   5
DOCKED: ENDBRANCH   1   2
DOCKED: BRANCH   1   8
DOCKED: ATOM      8  C   UNL     1      37.885  12.892 120.428 -0.48 -0.00    +0.000 C 
DOCKED: BRANCH   8   9
DOCKED: ATOM      9  C   UNL     1      37.373  13.819 119.360 -0.35 -0.00    +0.000 A 
DOCKED: ATOM     10  C   UNL     1      37.143  15.176 119.648 -0.21 -0.00    +0.000 A 
DOCKED: ATOM     11  C   UNL     1      36.637  16.029 118.663 -0.15 -0.00    +0.000 A 
DOCKED: ATOM     12  C   UNL     1      36.347  15.533 117.388 -0.18 -0.00    +0.000 A 
DOCKED: ATOM     13  C   UNL     1      36.560  14.183 117.097 -0.32 -0.00    +0.000 A 
DOCKED: ATOM     14  C   UNL     1      37.066  13.326 118.080 -0.37 -0.00    +0.000 A 
DOCKED: ATOM     15  CM  UNL     1      36.854  14.677 118.373 +0.00 -0.00    +0.000 AC
DOCKED: ENDBRANCH   8   9
DOCKED: ENDBRANCH   1   8
DOCKED: TORSDOF 4DOCKED: TER
DOCKED: ENDMDL
________________________________________________________________________________


	BEGINNING GENETIC ALGORITHM DOCKING 34 of 100
Run: 34 Seed: 434275894 927352000 [ Run 34 of 100 GA/GALS ]
Beginning LAMARCKIAN GENETIC ALGORITHM (LGA), with a maximum of 2500000 energy evaluations.

Final-Value: -11.211


	FINAL GENETIC ALGORITHM DOCKED STATE
	_______________________________________________


Detailed state:  trans 37.878 12.565 122.164 quatxyzw 0.632931 -0.567703 0.519301 -0.086237 center 0.505 -0.158 0.114 ntor 4 50.4478 -48.4274 -26.7392 89.9603
State:	 37.878  12.565 122.164   0.635 -0.570  0.521 -170.106     50.45  -48.43  -26.74   89.96

DOCKED: MODEL       34
DOCKED: USER    Run = 34
DOCKED: USER    DPF = ligand_dock.biased.dpf
DOCKED: USER  
DOCKED: USER    Estimated Free Energy of Binding    =   -9.66 kcal/mol  [=(1)+(2)+(3)-(4)]
DOCKED: USER    Estimated Inhibition Constant, Ki   =   83.43 nM (nanomolar)  [Temperature = 298.15 K]
DOCKED: USER    
DOCKED: USER    (1) Final Intermolecular Energy     =  -10.85 kcal/mol
DOCKED: USER        vdW + Hbond + desolv Energy     =  -10.85 kcal/mol
DOCKED: USER        Electrostatic Energy            =   +0.00 kcal/mol
DOCKED: USER    (2) Final Total Internal Energy     =   -0.36 kcal/mol
DOCKED: USER    (3) Torsional Free Energy           =   +1.19 kcal/mol
DOCKED: USER    (4) Unbound System's Energy  [=(2)] =   -0.36 kcal/mol
DOCKED: USER    
DOCKED: USER    
DOCKED: USER    NEWDPF move ligand.dum.pdbqt
DOCKED: USER    NEWDPF about 0.505000 -0.158000 0.114000
DOCKED: USER    NEWDPF tran0 37.878165 12.565447 122.163534
DOCKED: USER    NEWDPF quaternion0 0.632931 -0.567703 0.519301 -0.086237
DOCKED: USER    NEWDPF axisangle0 0.635298 -0.569826 0.521243 -170.105679
DOCKED: USER    NEWDPF quat0 0.635298 -0.569826 0.521243 -170.105679
DOCKED: USER    NEWDPF dihe0 50.45 -48.43 -26.74 89.96 
DOCKED: USER  keepresnum = 1 
DOCKED: USER  
DOCKED: REMARK  Name = 
DOCKED: REMARK  4 active torsions:
DOCKED: REMARK  status: ('A' for Active; 'I' for Inactive)
DOCKED: REMARK    1  A    between atoms: C_3  and  C_4
DOCKED: REMARK    2  A    between atoms: C_4  and  C_5
DOCKED: REMARK    3  A    between atoms: C_5  and  C_6
DOCKED: REMARK    4  A    between atoms: C_6  and  C_7
DOCKED: REMARK                            x       y       z     vdW  Elec       q    Type
DOCKED: REMARK                         _______ _______ _______ _____ _____    ______ ____
DOCKED: USER                              x       y       z     vdW  Elec       q    Type
DOCKED: USER                           _______ _______ _______ _____ _____    ______ ____
DOCKED: ROOT
DOCKED: ATOM      1  C   UNL     1      36.739  11.949 121.692 -0.57 -0.00    +0.000 C 
DOCKED: ENDROOT
DOCKED: BRANCH   1   2
DOCKED: ATOM      2  C   UNL     1      36.156  10.910 122.658 -0.68 -0.00    +0.000 C 
DOCKED: BRANCH   2   5
DOCKED: ATOM      3  O   UNL     1      37.336   7.354 123.196 -2.22 -0.00    +0.000 OA
DOCKED: ATOM      4  N   UNL     1      36.843   8.590 123.443 -0.65 -0.00    +0.000 N 
DOCKED: ATOM      5  C   UNL     1      36.685   9.532 122.380 -0.71 -0.00    +0.000 C 
DOCKED: ATOM      6  O   UNL     1      37.020   9.218 121.206 -2.72 -0.00    +0.000 OA
DOCKED: ATOM      7  H   UNL     1      36.592   8.842 124.361 -0.37 -0.00    +0.000 HD
DOCKED: ENDBRANCH   2   5
DOCKED: ENDBRANCH   1   2
DOCKED: BRANCH   1   8
DOCKED: ATOM      8  C   UNL     1      37.574  13.015 122.415 -0.51 -0.00    +0.000 C 
DOCKED: BRANCH   8   9
DOCKED: ATOM      9  C   UNL     1      36.697  14.144 122.883 -0.44 -0.00    +0.000 A 
DOCKED: ATOM     10  C   UNL     1      35.681  13.910 123.826 -0.48 -0.00    +0.000 A 
DOCKED: ATOM     11  C   UNL     1      34.847  14.954 124.236 -0.48 -0.00    +0.000 A 
DOCKED: ATOM     12  C   UNL     1      35.013  16.235 123.702 -0.43 -0.00    +0.000 A 
DOCKED: ATOM     13  C   UNL     1      36.011  16.474 122.754 -0.28 -0.00    +0.000 A 
DOCKED: ATOM     14  C   UNL     1      36.848  15.432 122.341 -0.29 -0.00    +0.000 A 
DOCKED: ATOM     15  CM  UNL     1      35.849  15.191 123.290 +0.00 -0.00    +0.000 AC
DOCKED: ENDBRANCH   8   9
DOCKED: ENDBRANCH   1   8
DOCKED: TORSDOF 4DOCKED: TER
DOCKED: ENDMDL
________________________________________________________________________________


	BEGINNING GENETIC ALGORITHM DOCKING 35 of 100
Run: 35 Seed: 1324800076 287699994 [ Run 35 of 100 GA/GALS ]
Beginning LAMARCKIAN GENETIC ALGORITHM (LGA), with a maximum of 2500000 energy evaluations.

Final-Value: -11.605


	FINAL GENETIC ALGORITHM DOCKED STATE
	_______________________________________________


Detailed state:  trans 36.501 13.106 123.240 quatxyzw -0.912588 0.183876 0.335322 -0.144679 center 0.505 -0.158 0.114 ntor 4 -143.1306 -165.6133 169.3393 -63.4818
State:	 36.501  13.106 123.240  -0.922  0.186  0.339 -163.363   -143.13 -165.61  169.34  -63.48

DOCKED: MODEL       35
DOCKED: USER    Run = 35
DOCKED: USER    DPF = ligand_dock.biased.dpf
DOCKED: USER  
DOCKED: USER    Estimated Free Energy of Binding    =  -10.05 kcal/mol  [=(1)+(2)+(3)-(4)]
DOCKED: USER    Estimated Inhibition Constant, Ki   =   43.07 nM (nanomolar)  [Temperature = 298.15 K]
DOCKED: USER    
DOCKED: USER    (1) Final Intermolecular Energy     =  -11.24 kcal/mol
DOCKED: USER        vdW + Hbond + desolv Energy     =  -11.24 kcal/mol
DOCKED: USER        Electrostatic Energy            =   +0.00 kcal/mol
DOCKED: USER    (2) Final Total Internal Energy     =   -0.36 kcal/mol
DOCKED: USER    (3) Torsional Free Energy           =   +1.19 kcal/mol
DOCKED: USER    (4) Unbound System's Energy  [=(2)] =   -0.36 kcal/mol
DOCKED: USER    
DOCKED: USER    
DOCKED: USER    NEWDPF move ligand.dum.pdbqt
DOCKED: USER    NEWDPF about 0.505000 -0.158000 0.114000
DOCKED: USER    NEWDPF tran0 36.501311 13.105661 123.240039
DOCKED: USER    NEWDPF quaternion0 -0.912588 0.183876 0.335322 -0.144679
DOCKED: USER    NEWDPF axisangle0 -0.922292 0.185831 0.338887 -163.362634
DOCKED: USER    NEWDPF quat0 -0.922292 0.185831 0.338887 -163.362634
DOCKED: USER    NEWDPF dihe0 -143.13 -165.61 169.34 -63.48 
DOCKED: USER  keepresnum = 1 
DOCKED: USER  
DOCKED: REMARK  Name = 
DOCKED: REMARK  4 active torsions:
DOCKED: REMARK  status: ('A' for Active; 'I' for Inactive)
DOCKED: REMARK    1  A    between atoms: C_3  and  C_4
DOCKED: REMARK    2  A    between atoms: C_4  and  C_5
DOCKED: REMARK    3  A    between atoms: C_5  and  C_6
DOCKED: REMARK    4  A    between atoms: C_6  and  C_7
DOCKED: REMARK                            x       y       z     vdW  Elec       q    Type
DOCKED: REMARK                         _______ _______ _______ _____ _____    ______ ____
DOCKED: USER                              x       y       z     vdW  Elec       q    Type
DOCKED: USER                           _______ _______ _______ _____ _____    ______ ____
DOCKED: ROOT
DOCKED: ATOM      1  C   UNL     1      36.082  11.841 122.886 -0.65 -0.00    +0.000 C 
DOCKED: ENDROOT
DOCKED: BRANCH   1   2
DOCKED: ATOM      2  C   UNL     1      36.998  11.152 121.867 -0.55 -0.00    +0.000 C 
DOCKED: BRANCH   2   5
DOCKED: ATOM      3  O   UNL     1      37.066   7.718 123.456 -2.70 -0.00    +0.000 OA
DOCKED: ATOM      4  N   UNL     1      37.066   9.064 123.318 -0.61 -0.00    +0.000 N 
DOCKED: ATOM      5  C   UNL     1      36.980   9.659 122.021 -0.61 -0.00    +0.000 C 
DOCKED: ATOM      6  O   UNL     1      36.919   8.927 120.996 -2.67 -0.00    +0.000 OA
DOCKED: ATOM      7  H   UNL     1      37.125   9.637 124.116 -0.56 -0.00    +0.000 HD
DOCKED: ENDBRANCH   2   5
DOCKED: ENDBRANCH   1   2
DOCKED: BRANCH   1   8
DOCKED: ATOM      8  C   UNL     1      36.820  12.909 123.706 -0.56 -0.00    +0.000 C 
DOCKED: BRANCH   8   9
DOCKED: ATOM      9  C   UNL     1      36.196  14.262 123.495 -0.47 -0.00    +0.000 A 
DOCKED: ATOM     10  C   UNL     1      36.793  15.191 122.626 -0.33 -0.00    +0.000 A 
DOCKED: ATOM     11  C   UNL     1      36.230  16.459 122.456 -0.25 -0.00    +0.000 A 
DOCKED: ATOM     12  C   UNL     1      35.074  16.812 123.158 -0.36 -0.00    +0.000 A 
DOCKED: ATOM     13  C   UNL     1      34.481  15.899 124.035 -0.51 -0.00    +0.000 A 
DOCKED: ATOM     14  C   UNL     1      35.042  14.629 124.207 -0.39 -0.00    +0.000 A 
DOCKED: ATOM     15  CM  UNL     1      35.636  15.542 123.330 +0.00 -0.00    +0.000 AC
DOCKED: ENDBRANCH   8   9
DOCKED: ENDBRANCH   1   8
DOCKED: TORSDOF 4DOCKED: TER
DOCKED: ENDMDL
________________________________________________________________________________


	BEGINNING GENETIC ALGORITHM DOCKING 36 of 100
Run: 36 Seed: 322418535 1068229953 [ Run 36 of 100 GA/GALS ]
Beginning LAMARCKIAN GENETIC ALGORITHM (LGA), with a maximum of 2500000 energy evaluations.

Final-Value: -11.677


	FINAL GENETIC ALGORITHM DOCKED STATE
	_______________________________________________


Detailed state:  trans 36.421 12.875 123.443 quatxyzw -0.871851 0.193610 0.408878 -0.187644 center 0.505 -0.158 0.114 ntor 4 -122.3564 178.7817 155.2223 -78.2016
State:	 36.421  12.875 123.443  -0.888  0.197  0.416 -158.369   -122.36  178.78  155.22  -78.20

DOCKED: MODEL       36
DOCKED: USER    Run = 36
DOCKED: USER    DPF = ligand_dock.biased.dpf
DOCKED: USER  
DOCKED: USER    Estimated Free Energy of Binding    =  -10.09 kcal/mol  [=(1)+(2)+(3)-(4)]
DOCKED: USER    Estimated Inhibition Constant, Ki   =   40.11 nM (nanomolar)  [Temperature = 298.15 K]
DOCKED: USER    
DOCKED: USER    (1) Final Intermolecular Energy     =  -11.28 kcal/mol
DOCKED: USER        vdW + Hbond + desolv Energy     =  -11.28 kcal/mol
DOCKED: USER        Electrostatic Energy            =   +0.00 kcal/mol
DOCKED: USER    (2) Final Total Internal Energy     =   -0.39 kcal/mol
DOCKED: USER    (3) Torsional Free Energy           =   +1.19 kcal/mol
DOCKED: USER    (4) Unbound System's Energy  [=(2)] =   -0.39 kcal/mol
DOCKED: USER    
DOCKED: USER    
DOCKED: USER    NEWDPF move ligand.dum.pdbqt
DOCKED: USER    NEWDPF about 0.505000 -0.158000 0.114000
DOCKED: USER    NEWDPF tran0 36.420573 12.874569 123.442734
DOCKED: USER    NEWDPF quaternion0 -0.871851 0.193610 0.408878 -0.187644
DOCKED: USER    NEWDPF axisangle0 -0.887617 0.197111 0.416272 -158.369340
DOCKED: USER    NEWDPF quat0 -0.887617 0.197111 0.416272 -158.369340
DOCKED: USER    NEWDPF dihe0 -122.36 178.78 155.22 -78.20 
DOCKED: USER  keepresnum = 1 
DOCKED: USER  
DOCKED: REMARK  Name = 
DOCKED: REMARK  4 active torsions:
DOCKED: REMARK  status: ('A' for Active; 'I' for Inactive)
DOCKED: REMARK    1  A    between atoms: C_3  and  C_4
DOCKED: REMARK    2  A    between atoms: C_4  and  C_5
DOCKED: REMARK    3  A    between atoms: C_5  and  C_6
DOCKED: REMARK    4  A    between atoms: C_6  and  C_7
DOCKED: REMARK                            x       y       z     vdW  Elec       q    Type
DOCKED: REMARK                         _______ _______ _______ _____ _____    ______ ____
DOCKED: USER                              x       y       z     vdW  Elec       q    Type
DOCKED: USER                           _______ _______ _______ _____ _____    ______ ____
DOCKED: ROOT
DOCKED: ATOM      1  C   UNL     1      35.894  11.672 123.022 -0.65 -0.00    +0.000 C 
DOCKED: ENDROOT
DOCKED: BRANCH   1   2
DOCKED: ATOM      2  C   UNL     1      36.617  11.074 121.809 -0.57 -0.00    +0.000 C 
DOCKED: BRANCH   2   5
DOCKED: ATOM      3  O   UNL     1      37.211   7.716 123.451 -2.66 -0.00    +0.000 OA
DOCKED: ATOM      4  N   UNL     1      36.957   9.036 123.293 -0.62 -0.00    +0.000 N 
DOCKED: ATOM      5  C   UNL     1      36.880   9.607 121.985 -0.64 -0.00    +0.000 C 
DOCKED: ATOM      6  O   UNL     1      37.065   8.881 120.970 -2.71 -0.00    +0.000 OA
DOCKED: ATOM      7  H   UNL     1      36.824   9.607 124.084 -0.50 -0.00    +0.000 HD
DOCKED: ENDBRANCH   2   5
DOCKED: ENDBRANCH   1   2
DOCKED: BRANCH   1   8
DOCKED: ATOM      8  C   UNL     1      36.794  12.616 123.831 -0.59 -0.00    +0.000 C 
DOCKED: BRANCH   8   9
DOCKED: ATOM      9  C   UNL     1      36.422  14.051 123.573 -0.47 -0.00    +0.000 A 
DOCKED: ATOM     10  C   UNL     1      37.332  14.918 122.944 -0.37 -0.00    +0.000 A 
DOCKED: ATOM     11  C   UNL     1      36.997  16.259 122.734 -0.26 -0.00    +0.000 A 
DOCKED: ATOM     12  C   UNL     1      35.758  16.747 123.159 -0.31 -0.00    +0.000 A 
DOCKED: ATOM     13  C   UNL     1      34.853  15.895 123.798 -0.48 -0.00    +0.000 A 
DOCKED: ATOM     14  C   UNL     1      35.184  14.553 124.010 -0.46 -0.00    +0.000 A 
DOCKED: ATOM     15  CM  UNL     1      36.091  15.404 123.370 +0.00 -0.00    +0.000 AC
DOCKED: ENDBRANCH   8   9
DOCKED: ENDBRANCH   1   8
DOCKED: TORSDOF 4DOCKED: TER
DOCKED: ENDMDL
________________________________________________________________________________


	BEGINNING GENETIC ALGORITHM DOCKING 37 of 100
Run: 37 Seed: 886956508 1860815735 [ Run 37 of 100 GA/GALS ]
Beginning LAMARCKIAN GENETIC ALGORITHM (LGA), with a maximum of 2500000 energy evaluations.

Final-Value: -10.852


	FINAL GENETIC ALGORITHM DOCKED STATE
	_______________________________________________


Detailed state:  trans 36.255 13.090 123.394 quatxyzw -0.217145 -0.107691 0.932198 0.268808 center 0.505 -0.158 0.114 ntor 4 -19.3050 -133.4548 8.2597 59.8920
State:	 36.255  13.090 123.394  -0.225 -0.112  0.968 148.813    -19.31 -133.45    8.26   59.89

DOCKED: MODEL       37
DOCKED: USER    Run = 37
DOCKED: USER    DPF = ligand_dock.biased.dpf
DOCKED: USER  
DOCKED: USER    Estimated Free Energy of Binding    =   -9.26 kcal/mol  [=(1)+(2)+(3)-(4)]
DOCKED: USER    Estimated Inhibition Constant, Ki   =  162.57 nM (nanomolar)  [Temperature = 298.15 K]
DOCKED: USER    
DOCKED: USER    (1) Final Intermolecular Energy     =  -10.45 kcal/mol
DOCKED: USER        vdW + Hbond + desolv Energy     =  -10.45 kcal/mol
DOCKED: USER        Electrostatic Energy            =   +0.00 kcal/mol
DOCKED: USER    (2) Final Total Internal Energy     =   -0.40 kcal/mol
DOCKED: USER    (3) Torsional Free Energy           =   +1.19 kcal/mol
DOCKED: USER    (4) Unbound System's Energy  [=(2)] =   -0.40 kcal/mol
DOCKED: USER    
DOCKED: USER    
DOCKED: USER    NEWDPF move ligand.dum.pdbqt
DOCKED: USER    NEWDPF about 0.505000 -0.158000 0.114000
DOCKED: USER    NEWDPF tran0 36.254541 13.089592 123.394325
DOCKED: USER    NEWDPF quaternion0 -0.217145 -0.107691 0.932198 0.268808
DOCKED: USER    NEWDPF axisangle0 -0.225443 -0.111807 0.967820 148.813246
DOCKED: USER    NEWDPF quat0 -0.225443 -0.111807 0.967820 148.813246
DOCKED: USER    NEWDPF dihe0 -19.31 -133.45 8.26 59.89 
DOCKED: USER  keepresnum = 1 
DOCKED: USER  
DOCKED: REMARK  Name = 
DOCKED: REMARK  4 active torsions:
DOCKED: REMARK  status: ('A' for Active; 'I' for Inactive)
DOCKED: REMARK    1  A    between atoms: C_3  and  C_4
DOCKED: REMARK    2  A    between atoms: C_4  and  C_5
DOCKED: REMARK    3  A    between atoms: C_5  and  C_6
DOCKED: REMARK    4  A    between atoms: C_6  and  C_7
DOCKED: REMARK                            x       y       z     vdW  Elec       q    Type
DOCKED: REMARK                         _______ _______ _______ _____ _____    ______ ____
DOCKED: USER                              x       y       z     vdW  Elec       q    Type
DOCKED: USER                           _______ _______ _______ _____ _____    ______ ____
DOCKED: ROOT
DOCKED: ATOM      1  C   UNL     1      36.813  11.849 123.172 -0.68 -0.00    +0.000 C 
DOCKED: ENDROOT
DOCKED: BRANCH   1   2
DOCKED: ATOM      2  C   UNL     1      35.888  10.882 122.425 -0.65 -0.00    +0.000 C 
DOCKED: BRANCH   2   5
DOCKED: ATOM      3  O   UNL     1      37.097   7.382 123.210 -2.37 -0.00    +0.000 OA
DOCKED: ATOM      4  N   UNL     1      36.519   8.597 123.351 -0.64 -0.00    +0.000 N 
DOCKED: ATOM      5  C   UNL     1      36.512   9.526 122.264 -0.70 -0.00    +0.000 C 
DOCKED: ATOM      6  O   UNL     1      37.060   9.218 121.171 -2.74 -0.00    +0.000 OA
DOCKED: ATOM      7  H   UNL     1      36.101   8.844 124.207 -0.26 -0.00    +0.000 HD
DOCKED: ENDBRANCH   2   5
DOCKED: ENDBRANCH   1   2
DOCKED: BRANCH   1   8
DOCKED: ATOM      8  C   UNL     1      36.474  13.319 122.888 -0.55 -0.00    +0.000 C 
DOCKED: BRANCH   8   9
DOCKED: ATOM      9  C   UNL     1      37.628  14.005 122.207 -0.41 -0.00    +0.000 A 
DOCKED: ATOM     10  C   UNL     1      37.638  14.157 120.809 -0.33 -0.00    +0.000 A 
DOCKED: ATOM     11  C   UNL     1      38.725  14.766 120.176 -0.22 -0.00    +0.000 A 
DOCKED: ATOM     12  C   UNL     1      39.813  15.218 120.929 -0.23 -0.00    +0.000 A 
DOCKED: ATOM     13  C   UNL     1      39.816  15.058 122.317 -0.38 -0.00    +0.000 A 
DOCKED: ATOM     14  C   UNL     1      38.731  14.449 122.955 -0.31 -0.00    +0.000 A 
DOCKED: ATOM     15  CM  UNL     1      38.725  14.608 121.566 +0.00 -0.00    +0.000 AC
DOCKED: ENDBRANCH   8   9
DOCKED: ENDBRANCH   1   8
DOCKED: TORSDOF 4DOCKED: TER
DOCKED: ENDMDL
________________________________________________________________________________


	BEGINNING GENETIC ALGORITHM DOCKING 38 of 100
Run: 38 Seed: 1827298331 1403607426 [ Run 38 of 100 GA/GALS ]
Beginning LAMARCKIAN GENETIC ALGORITHM (LGA), with a maximum of 2500000 energy evaluations.

Final-Value: -11.603


	FINAL GENETIC ALGORITHM DOCKED STATE
	_______________________________________________


Detailed state:  trans 36.094 12.029 123.848 quatxyzw -0.110260 -0.506888 0.690393 0.504247 center 0.505 -0.158 0.114 ntor 4 -73.9691 -40.5183 77.1239 54.4960
State:	 36.094  12.029 123.848  -0.128 -0.587  0.799 119.437    -73.97  -40.52   77.12   54.50

DOCKED: MODEL       38
DOCKED: USER    Run = 38
DOCKED: USER    DPF = ligand_dock.biased.dpf
DOCKED: USER  
DOCKED: USER    Estimated Free Energy of Binding    =  -10.03 kcal/mol  [=(1)+(2)+(3)-(4)]
DOCKED: USER    Estimated Inhibition Constant, Ki   =   44.24 nM (nanomolar)  [Temperature = 298.15 K]
DOCKED: USER    
DOCKED: USER    (1) Final Intermolecular Energy     =  -11.23 kcal/mol
DOCKED: USER        vdW + Hbond + desolv Energy     =  -11.23 kcal/mol
DOCKED: USER        Electrostatic Energy            =   +0.00 kcal/mol
DOCKED: USER    (2) Final Total Internal Energy     =   -0.38 kcal/mol
DOCKED: USER    (3) Torsional Free Energy           =   +1.19 kcal/mol
DOCKED: USER    (4) Unbound System's Energy  [=(2)] =   -0.38 kcal/mol
DOCKED: USER    
DOCKED: USER    
DOCKED: USER    NEWDPF move ligand.dum.pdbqt
DOCKED: USER    NEWDPF about 0.505000 -0.158000 0.114000
DOCKED: USER    NEWDPF tran0 36.094235 12.029438 123.848489
DOCKED: USER    NEWDPF quaternion0 -0.110260 -0.506888 0.690393 0.504247
DOCKED: USER    NEWDPF axisangle0 -0.127681 -0.586975 0.799473 119.437258
DOCKED: USER    NEWDPF quat0 -0.127681 -0.586975 0.799473 119.437258
DOCKED: USER    NEWDPF dihe0 -73.97 -40.52 77.12 54.50 
DOCKED: USER  keepresnum = 1 
DOCKED: USER  
DOCKED: REMARK  Name = 
DOCKED: REMARK  4 active torsions:
DOCKED: REMARK  status: ('A' for Active; 'I' for Inactive)
DOCKED: REMARK    1  A    between atoms: C_3  and  C_4
DOCKED: REMARK    2  A    between atoms: C_4  and  C_5
DOCKED: REMARK    3  A    between atoms: C_5  and  C_6
DOCKED: REMARK    4  A    between atoms: C_6  and  C_7
DOCKED: REMARK                            x       y       z     vdW  Elec       q    Type
DOCKED: REMARK                         _______ _______ _______ _____ _____    ______ ____
DOCKED: USER                              x       y       z     vdW  Elec       q    Type
DOCKED: USER                           _______ _______ _______ _____ _____    ______ ____
DOCKED: ROOT
DOCKED: ATOM      1  C   UNL     1      37.080  11.916 122.892 -0.63 -0.00    +0.000 C 
DOCKED: ENDROOT
DOCKED: BRANCH   1   2
DOCKED: ATOM      2  C   UNL     1      36.664  11.078 121.676 -0.54 -0.00    +0.000 C 
DOCKED: BRANCH   2   5
DOCKED: ATOM      3  O   UNL     1      37.075   7.767 123.464 -2.67 -0.00    +0.000 OA
DOCKED: ATOM      4  N   UNL     1      36.877   9.088 123.247 -0.62 -0.00    +0.000 N 
DOCKED: ATOM      5  C   UNL     1      36.865   9.609 121.916 -0.63 -0.00    +0.000 C 
DOCKED: ATOM      6  O   UNL     1      37.055   8.839 120.937 -2.70 -0.00    +0.000 OA
DOCKED: ATOM      7  H   UNL     1      36.740   9.694 124.011 -0.45 -0.00    +0.000 HD
DOCKED: ENDBRANCH   2   5
DOCKED: ENDBRANCH   1   2
DOCKED: BRANCH   1   8
DOCKED: ATOM      8  C   UNL     1      35.875  12.534 123.614 -0.59 -0.00    +0.000 C 
DOCKED: BRANCH   8   9
DOCKED: ATOM      9  C   UNL     1      36.008  14.032 123.677 -0.49 -0.00    +0.000 A 
DOCKED: ATOM     10  C   UNL     1      34.906  14.827 124.036 -0.48 -0.00    +0.000 A 
DOCKED: ATOM     11  C   UNL     1      35.023  16.220 124.063 -0.44 -0.00    +0.000 A 
DOCKED: ATOM     12  C   UNL     1      36.234  16.829 123.721 -0.29 -0.00    +0.000 A 
DOCKED: ATOM     13  C   UNL     1      37.330  16.046 123.349 -0.28 -0.00    +0.000 A 
DOCKED: ATOM     14  C   UNL     1      37.218  14.652 123.322 -0.39 -0.00    +0.000 A 
DOCKED: ATOM     15  CM  UNL     1      36.120  15.434 123.694 +0.00 -0.00    +0.000 AC
DOCKED: ENDBRANCH   8   9
DOCKED: ENDBRANCH   1   8
DOCKED: TORSDOF 4DOCKED: TER
DOCKED: ENDMDL
________________________________________________________________________________


	BEGINNING GENETIC ALGORITHM DOCKING 39 of 100
Run: 39 Seed: 389557770 470531756 [ Run 39 of 100 GA/GALS ]
Beginning LAMARCKIAN GENETIC ALGORITHM (LGA), with a maximum of 2500000 energy evaluations.

Final-Value: -11.372


	FINAL GENETIC ALGORITHM DOCKED STATE
	_______________________________________________


Detailed state:  trans 36.677 12.560 123.487 quatxyzw -0.744591 0.333793 0.547858 -0.184440 center 0.505 -0.158 0.114 ntor 4 -84.6314 147.0906 150.0990 -97.8597
State:	 36.677  12.560 123.487  -0.758  0.340  0.557 -158.743    -84.63  147.09  150.10  -97.86

DOCKED: MODEL       39
DOCKED: USER    Run = 39
DOCKED: USER    DPF = ligand_dock.biased.dpf
DOCKED: USER  
DOCKED: USER    Estimated Free Energy of Binding    =   -9.70 kcal/mol  [=(1)+(2)+(3)-(4)]
DOCKED: USER    Estimated Inhibition Constant, Ki   =   78.10 nM (nanomolar)  [Temperature = 298.15 K]
DOCKED: USER    
DOCKED: USER    (1) Final Intermolecular Energy     =  -10.89 kcal/mol
DOCKED: USER        vdW + Hbond + desolv Energy     =  -10.89 kcal/mol
DOCKED: USER        Electrostatic Energy            =   +0.00 kcal/mol
DOCKED: USER    (2) Final Total Internal Energy     =   -0.48 kcal/mol
DOCKED: USER    (3) Torsional Free Energy           =   +1.19 kcal/mol
DOCKED: USER    (4) Unbound System's Energy  [=(2)] =   -0.48 kcal/mol
DOCKED: USER    
DOCKED: USER    
DOCKED: USER    NEWDPF move ligand.dum.pdbqt
DOCKED: USER    NEWDPF about 0.505000 -0.158000 0.114000
DOCKED: USER    NEWDPF tran0 36.676696 12.560008 123.486512
DOCKED: USER    NEWDPF quaternion0 -0.744591 0.333793 0.547858 -0.184440
DOCKED: USER    NEWDPF axisangle0 -0.757589 0.339619 0.557421 -158.743076
DOCKED: USER    NEWDPF quat0 -0.757589 0.339619 0.557421 -158.743076
DOCKED: USER    NEWDPF dihe0 -84.63 147.09 150.10 -97.86 
DOCKED: USER  keepresnum = 1 
DOCKED: USER  
DOCKED: REMARK  Name = 
DOCKED: REMARK  4 active torsions:
DOCKED: REMARK  status: ('A' for Active; 'I' for Inactive)
DOCKED: REMARK    1  A    between atoms: C_3  and  C_4
DOCKED: REMARK    2  A    between atoms: C_4  and  C_5
DOCKED: REMARK    3  A    between atoms: C_5  and  C_6
DOCKED: REMARK    4  A    between atoms: C_6  and  C_7
DOCKED: REMARK                            x       y       z     vdW  Elec       q    Type
DOCKED: REMARK                         _______ _______ _______ _____ _____    ______ ____
DOCKED: USER                              x       y       z     vdW  Elec       q    Type
DOCKED: USER                           _______ _______ _______ _____ _____    ______ ____
DOCKED: ROOT
DOCKED: ATOM      1  C   UNL     1      35.768  11.529 123.382 -0.64 -0.00    +0.000 C 
DOCKED: ENDROOT
DOCKED: BRANCH   1   2
DOCKED: ATOM      2  C   UNL     1      35.800  10.814 122.027 -0.51 -0.00    +0.000 C 
DOCKED: BRANCH   2   5
DOCKED: ATOM      3  O   UNL     1      37.444   7.719 123.457 -2.60 -0.00    +0.000 OA
DOCKED: ATOM      4  N   UNL     1      36.792   8.902 123.382 -0.60 -0.00    +0.000 N 
DOCKED: ATOM      5  C   UNL     1      36.507   9.491 122.111 -0.68 -0.00    +0.000 C 
DOCKED: ATOM      6  O   UNL     1      36.877   8.914 121.053 -2.66 -0.00    +0.000 OA
DOCKED: ATOM      7  H   UNL     1      36.512   9.360 124.207 -0.42 -0.00    +0.000 HD
DOCKED: ENDBRANCH   2   5
DOCKED: ENDBRANCH   1   2
DOCKED: BRANCH   1   8
DOCKED: ATOM      8  C   UNL     1      37.103  12.209 123.716 -0.62 -0.00    +0.000 C 
DOCKED: BRANCH   8   9
DOCKED: ATOM      9  C   UNL     1      37.168  13.578 123.095 -0.49 -0.00    +0.000 A 
DOCKED: ATOM     10  C   UNL     1      38.185  13.893 122.177 -0.41 -0.00    +0.000 A 
DOCKED: ATOM     11  C   UNL     1      38.263  15.175 121.625 -0.28 -0.00    +0.000 A 
DOCKED: ATOM     12  C   UNL     1      37.335  16.154 121.992 -0.21 -0.00    +0.000 A 
DOCKED: ATOM     13  C   UNL     1      36.329  15.853 122.914 -0.32 -0.00    +0.000 A 
DOCKED: ATOM     14  C   UNL     1      36.248  14.572 123.469 -0.45 -0.00    +0.000 A 
DOCKED: ATOM     15  CM  UNL     1      37.255  14.871 122.546 +0.00 -0.00    +0.000 AC
DOCKED: ENDBRANCH   8   9
DOCKED: ENDBRANCH   1   8
DOCKED: TORSDOF 4DOCKED: TER
DOCKED: ENDMDL
________________________________________________________________________________


	BEGINNING GENETIC ALGORITHM DOCKING 40 of 100
Run: 40 Seed: 1030192292 1156189603 [ Run 40 of 100 GA/GALS ]
Beginning LAMARCKIAN GENETIC ALGORITHM (LGA), with a maximum of 2500000 energy evaluations.

Final-Value: -11.684


	FINAL GENETIC ALGORITHM DOCKED STATE
	_______________________________________________


Detailed state:  trans 36.861 13.105 123.267 quatxyzw -0.742704 0.200901 0.637078 -0.046502 center 0.505 -0.158 0.114 ntor 4 -90.3793 -171.3183 105.3117 -70.8885
State:	 36.861  13.105 123.267  -0.744  0.201  0.638 -174.669    -90.38 -171.32  105.31  -70.89

DOCKED: MODEL       40
DOCKED: USER    Run = 40
DOCKED: USER    DPF = ligand_dock.biased.dpf
DOCKED: USER  
DOCKED: USER    Estimated Free Energy of Binding    =  -10.12 kcal/mol  [=(1)+(2)+(3)-(4)]
DOCKED: USER    Estimated Inhibition Constant, Ki   =   37.98 nM (nanomolar)  [Temperature = 298.15 K]
DOCKED: USER    
DOCKED: USER    (1) Final Intermolecular Energy     =  -11.32 kcal/mol
DOCKED: USER        vdW + Hbond + desolv Energy     =  -11.32 kcal/mol
DOCKED: USER        Electrostatic Energy            =   +0.00 kcal/mol
DOCKED: USER    (2) Final Total Internal Energy     =   -0.37 kcal/mol
DOCKED: USER    (3) Torsional Free Energy           =   +1.19 kcal/mol
DOCKED: USER    (4) Unbound System's Energy  [=(2)] =   -0.37 kcal/mol
DOCKED: USER    
DOCKED: USER    
DOCKED: USER    NEWDPF move ligand.dum.pdbqt
DOCKED: USER    NEWDPF about 0.505000 -0.158000 0.114000
DOCKED: USER    NEWDPF tran0 36.861100 13.105240 123.266745
DOCKED: USER    NEWDPF quaternion0 -0.742704 0.200901 0.637078 -0.046502
DOCKED: USER    NEWDPF axisangle0 -0.743508 0.201118 0.637767 -174.669338
DOCKED: USER    NEWDPF quat0 -0.743508 0.201118 0.637767 -174.669338
DOCKED: USER    NEWDPF dihe0 -90.38 -171.32 105.31 -70.89 
DOCKED: USER  keepresnum = 1 
DOCKED: USER  
DOCKED: REMARK  Name = 
DOCKED: REMARK  4 active torsions:
DOCKED: REMARK  status: ('A' for Active; 'I' for Inactive)
DOCKED: REMARK    1  A    between atoms: C_3  and  C_4
DOCKED: REMARK    2  A    between atoms: C_4  and  C_5
DOCKED: REMARK    3  A    between atoms: C_5  and  C_6
DOCKED: REMARK    4  A    between atoms: C_6  and  C_7
DOCKED: REMARK                            x       y       z     vdW  Elec       q    Type
DOCKED: REMARK                         _______ _______ _______ _____ _____    ______ ____
DOCKED: USER                              x       y       z     vdW  Elec       q    Type
DOCKED: USER                           _______ _______ _______ _____ _____    ______ ____
DOCKED: ROOT
DOCKED: ATOM      1  C   UNL     1      36.398  11.807 123.287 -0.70 -0.00    +0.000 C 
DOCKED: ENDROOT
DOCKED: BRANCH   1   2
DOCKED: ATOM      2  C   UNL     1      36.458  11.111 121.922 -0.60 -0.00    +0.000 C 
DOCKED: BRANCH   2   5
DOCKED: ATOM      3  O   UNL     1      37.135   7.721 123.465 -2.68 -0.00    +0.000 OA
DOCKED: ATOM      4  N   UNL     1      36.826   9.033 123.344 -0.60 -0.00    +0.000 N 
DOCKED: ATOM      5  C   UNL     1      36.782   9.650 122.056 -0.66 -0.00    +0.000 C 
DOCKED: ATOM      6  O   UNL     1      37.047   8.975 121.025 -2.71 -0.00    +0.000 OA
DOCKED: ATOM      7  H   UNL     1      36.630   9.566 124.148 -0.46 -0.00    +0.000 HD
DOCKED: ENDBRANCH   2   5
DOCKED: ENDBRANCH   1   2
DOCKED: BRANCH   1   8
DOCKED: ATOM      8  C   UNL     1      37.420  12.946 123.407 -0.57 -0.00    +0.000 C 
DOCKED: BRANCH   8   9
DOCKED: ATOM      9  C   UNL     1      36.722  14.278 123.470 -0.44 -0.00    +0.000 A 
DOCKED: ATOM     10  C   UNL     1      37.444  15.467 123.271 -0.32 -0.00    +0.000 A 
DOCKED: ATOM     11  C   UNL     1      36.800  16.705 123.361 -0.26 -0.00    +0.000 A 
DOCKED: ATOM     12  C   UNL     1      35.436  16.765 123.662 -0.35 -0.00    +0.000 A 
DOCKED: ATOM     13  C   UNL     1      34.715  15.588 123.876 -0.52 -0.00    +0.000 A 
DOCKED: ATOM     14  C   UNL     1      35.355  14.348 123.786 -0.46 -0.00    +0.000 A 
DOCKED: ATOM     15  CM  UNL     1      36.079  15.525 123.571 +0.00 -0.00    +0.000 AC
DOCKED: ENDBRANCH   8   9
DOCKED: ENDBRANCH   1   8
DOCKED: TORSDOF 4DOCKED: TER
DOCKED: ENDMDL
________________________________________________________________________________


	BEGINNING GENETIC ALGORITHM DOCKING 41 of 100
Run: 41 Seed: 1542116454 1620642844 [ Run 41 of 100 GA/GALS ]
Beginning LAMARCKIAN GENETIC ALGORITHM (LGA), with a maximum of 2500000 energy evaluations.

Final-Value: -11.689


	FINAL GENETIC ALGORITHM DOCKED STATE
	_______________________________________________


Detailed state:  trans 36.614 13.079 123.210 quatxyzw 0.853001 -0.192969 -0.475526 0.095012 center 0.505 -0.158 0.114 ntor 4 -126.3639 -165.8967 148.5619 -66.8642
State:	 36.614  13.079 123.210   0.857 -0.194 -0.478 169.096   -126.36 -165.90  148.56  -66.86

DOCKED: MODEL       41
DOCKED: USER    Run = 41
DOCKED: USER    DPF = ligand_dock.biased.dpf
DOCKED: USER  
DOCKED: USER    Estimated Free Energy of Binding    =  -10.13 kcal/mol  [=(1)+(2)+(3)-(4)]
DOCKED: USER    Estimated Inhibition Constant, Ki   =   37.77 nM (nanomolar)  [Temperature = 298.15 K]
DOCKED: USER    
DOCKED: USER    (1) Final Intermolecular Energy     =  -11.32 kcal/mol
DOCKED: USER        vdW + Hbond + desolv Energy     =  -11.32 kcal/mol
DOCKED: USER        Electrostatic Energy            =   +0.00 kcal/mol
DOCKED: USER    (2) Final Total Internal Energy     =   -0.37 kcal/mol
DOCKED: USER    (3) Torsional Free Energy           =   +1.19 kcal/mol
DOCKED: USER    (4) Unbound System's Energy  [=(2)] =   -0.37 kcal/mol
DOCKED: USER    
DOCKED: USER    
DOCKED: USER    NEWDPF move ligand.dum.pdbqt
DOCKED: USER    NEWDPF about 0.505000 -0.158000 0.114000
DOCKED: USER    NEWDPF tran0 36.614007 13.079291 123.210349
DOCKED: USER    NEWDPF quaternion0 0.853001 -0.192969 -0.475526 0.095012
DOCKED: USER    NEWDPF axisangle0 0.856878 -0.193846 -0.477687 169.095934
DOCKED: USER    NEWDPF quat0 0.856878 -0.193846 -0.477687 169.095934
DOCKED: USER    NEWDPF dihe0 -126.36 -165.90 148.56 -66.86 
DOCKED: USER  keepresnum = 1 
DOCKED: USER  
DOCKED: REMARK  Name = 
DOCKED: REMARK  4 active torsions:
DOCKED: REMARK  status: ('A' for Active; 'I' for Inactive)
DOCKED: REMARK    1  A    between atoms: C_3  and  C_4
DOCKED: REMARK    2  A    between atoms: C_4  and  C_5
DOCKED: REMARK    3  A    between atoms: C_5  and  C_6
DOCKED: REMARK    4  A    between atoms: C_6  and  C_7
DOCKED: REMARK                            x       y       z     vdW  Elec       q    Type
DOCKED: REMARK                         _______ _______ _______ _____ _____    ______ ____
DOCKED: USER                              x       y       z     vdW  Elec       q    Type
DOCKED: USER                           _______ _______ _______ _____ _____    ______ ____
DOCKED: ROOT
DOCKED: ATOM      1  C   UNL     1      36.156  11.792 123.033 -0.68 -0.00    +0.000 C 
DOCKED: ENDROOT
DOCKED: BRANCH   1   2
DOCKED: ATOM      2  C   UNL     1      36.733  11.097 121.794 -0.58 -0.00    +0.000 C 
DOCKED: BRANCH   2   5
DOCKED: ATOM      3  O   UNL     1      37.100   7.716 123.455 -2.69 -0.00    +0.000 OA
DOCKED: ATOM      4  N   UNL     1      36.997   9.055 123.288 -0.62 -0.00    +0.000 N 
DOCKED: ATOM      5  C   UNL     1      36.830   9.611 121.982 -0.65 -0.00    +0.000 C 
DOCKED: ATOM      6  O   UNL     1      36.794   8.852 120.975 -2.64 -0.00    +0.000 OA
DOCKED: ATOM      7  H   UNL     1      37.036   9.650 124.071 -0.53 -0.00    +0.000 HD
DOCKED: ENDBRANCH   2   5
DOCKED: ENDBRANCH   1   2
DOCKED: BRANCH   1   8
DOCKED: ATOM      8  C   UNL     1      37.070  12.908 123.557 -0.57 -0.00    +0.000 C 
DOCKED: BRANCH   8   9
DOCKED: ATOM      9  C   UNL     1      36.388  14.245 123.446 -0.46 -0.00    +0.000 A 
DOCKED: ATOM     10  C   UNL     1      36.977  15.282 122.701 -0.34 -0.00    +0.000 A 
DOCKED: ATOM     11  C   UNL     1      36.358  16.533 122.625 -0.25 -0.00    +0.000 A 
DOCKED: ATOM     12  C   UNL     1      35.155  16.762 123.299 -0.36 -0.00    +0.000 A 
DOCKED: ATOM     13  C   UNL     1      34.570  15.741 124.053 -0.52 -0.00    +0.000 A 
DOCKED: ATOM     14  C   UNL     1      35.186  14.487 124.131 -0.43 -0.00    +0.000 A 
DOCKED: ATOM     15  CM  UNL     1      35.773  15.508 123.377 +0.00 -0.00    +0.000 AC
DOCKED: ENDBRANCH   8   9
DOCKED: ENDBRANCH   1   8
DOCKED: TORSDOF 4DOCKED: TER
DOCKED: ENDMDL
________________________________________________________________________________


	BEGINNING GENETIC ALGORITHM DOCKING 42 of 100
Run: 42 Seed: 1899426000 407345233 [ Run 42 of 100 GA/GALS ]
Beginning LAMARCKIAN GENETIC ALGORITHM (LGA), with a maximum of 2500000 energy evaluations.

Final-Value: -11.562


	FINAL GENETIC ALGORITHM DOCKED STATE
	_______________________________________________


Detailed state:  trans 36.162 12.673 123.702 quatxyzw 0.843740 -0.171650 -0.472773 0.187418 center 0.505 -0.158 0.114 ntor 4 -112.3146 171.0777 165.9208 -99.1217
State:	 36.162  12.673 123.702   0.859 -0.175 -0.481 158.396   -112.31  171.08  165.92  -99.12

DOCKED: MODEL       42
DOCKED: USER    Run = 42
DOCKED: USER    DPF = ligand_dock.biased.dpf
DOCKED: USER  
DOCKED: USER    Estimated Free Energy of Binding    =   -9.93 kcal/mol  [=(1)+(2)+(3)-(4)]
DOCKED: USER    Estimated Inhibition Constant, Ki   =   52.61 nM (nanomolar)  [Temperature = 298.15 K]
DOCKED: USER    
DOCKED: USER    (1) Final Intermolecular Energy     =  -11.12 kcal/mol
DOCKED: USER        vdW + Hbond + desolv Energy     =  -11.12 kcal/mol
DOCKED: USER        Electrostatic Energy            =   +0.00 kcal/mol
DOCKED: USER    (2) Final Total Internal Energy     =   -0.44 kcal/mol
DOCKED: USER    (3) Torsional Free Energy           =   +1.19 kcal/mol
DOCKED: USER    (4) Unbound System's Energy  [=(2)] =   -0.44 kcal/mol
DOCKED: USER    
DOCKED: USER    
DOCKED: USER    NEWDPF move ligand.dum.pdbqt
DOCKED: USER    NEWDPF about 0.505000 -0.158000 0.114000
DOCKED: USER    NEWDPF tran0 36.161839 12.672880 123.701780
DOCKED: USER    NEWDPF quaternion0 0.843740 -0.171650 -0.472773 0.187418
DOCKED: USER    NEWDPF axisangle0 0.858960 -0.174746 -0.481302 158.395695
DOCKED: USER    NEWDPF quat0 0.858960 -0.174746 -0.481302 158.395695
DOCKED: USER    NEWDPF dihe0 -112.31 171.08 165.92 -99.12 
DOCKED: USER  keepresnum = 1 
DOCKED: USER  
DOCKED: REMARK  Name = 
DOCKED: REMARK  4 active torsions:
DOCKED: REMARK  status: ('A' for Active; 'I' for Inactive)
DOCKED: REMARK    1  A    between atoms: C_3  and  C_4
DOCKED: REMARK    2  A    between atoms: C_4  and  C_5
DOCKED: REMARK    3  A    between atoms: C_5  and  C_6
DOCKED: REMARK    4  A    between atoms: C_6  and  C_7
DOCKED: REMARK                            x       y       z     vdW  Elec       q    Type
DOCKED: REMARK                         _______ _______ _______ _____ _____    ______ ____
DOCKED: USER                              x       y       z     vdW  Elec       q    Type
DOCKED: USER                           _______ _______ _______ _____ _____    ______ ____
DOCKED: ROOT
DOCKED: ATOM      1  C   UNL     1      35.644  11.466 123.283 -0.61 -0.00    +0.000 C 
DOCKED: ENDROOT
DOCKED: BRANCH   1   2
DOCKED: ATOM      2  C   UNL     1      36.235  10.969 121.958 -0.59 -0.00    +0.000 C 
DOCKED: BRANCH   2   5
DOCKED: ATOM      3  O   UNL     1      37.437   7.709 123.458 -2.60 -0.00    +0.000 OA
DOCKED: ATOM      4  N   UNL     1      36.949   8.967 123.356 -0.61 -0.00    +0.000 N 
DOCKED: ATOM      5  C   UNL     1      36.759   9.567 122.072 -0.67 -0.00    +0.000 C 
DOCKED: ATOM      6  O   UNL     1      37.061   8.928 121.028 -2.71 -0.00    +0.000 OA
DOCKED: ATOM      7  H   UNL     1      36.723   9.472 124.170 -0.49 -0.00    +0.000 HD
DOCKED: ENDBRANCH   2   5
DOCKED: ENDBRANCH   1   2
DOCKED: BRANCH   1   8
DOCKED: ATOM      8  C   UNL     1      36.594  12.416 124.026 -0.51 -0.00    +0.000 C 
DOCKED: BRANCH   8   9
DOCKED: ATOM      9  C   UNL     1      36.450  13.820 123.504 -0.49 -0.00    +0.000 A 
DOCKED: ATOM     10  C   UNL     1      37.431  14.367 122.658 -0.41 -0.00    +0.000 A 
DOCKED: ATOM     11  C   UNL     1      37.312  15.682 122.200 -0.26 -0.00    +0.000 A 
DOCKED: ATOM     12  C   UNL     1      36.222  16.465 122.590 -0.26 -0.00    +0.000 A 
DOCKED: ATOM     13  C   UNL     1      35.250  15.934 123.442 -0.42 -0.00    +0.000 A 
DOCKED: ATOM     14  C   UNL     1      35.364  14.618 123.902 -0.49 -0.00    +0.000 A 
DOCKED: ATOM     15  CM  UNL     1      36.338  15.148 123.050 +0.00 -0.00    +0.000 AC
DOCKED: ENDBRANCH   8   9
DOCKED: ENDBRANCH   1   8
DOCKED: TORSDOF 4DOCKED: TER
DOCKED: ENDMDL
________________________________________________________________________________


	BEGINNING GENETIC ALGORITHM DOCKING 43 of 100
Run: 43 Seed: 1389295502 1574853107 [ Run 43 of 100 GA/GALS ]
Beginning LAMARCKIAN GENETIC ALGORITHM (LGA), with a maximum of 2500000 energy evaluations.

Final-Value: -10.892


	FINAL GENETIC ALGORITHM DOCKED STATE
	_______________________________________________


Detailed state:  trans 36.574 12.975 123.758 quatxyzw 0.199504 0.163398 -0.936467 -0.237757 center 0.505 -0.158 0.114 ntor 4 -20.9675 -128.8912 155.6448 81.9171
State:	 36.574  12.975 123.758   0.205  0.168 -0.964 -152.492    -20.97 -128.89  155.64   81.92

DOCKED: MODEL       43
DOCKED: USER    Run = 43
DOCKED: USER    DPF = ligand_dock.biased.dpf
DOCKED: USER  
DOCKED: USER    Estimated Free Energy of Binding    =   -9.27 kcal/mol  [=(1)+(2)+(3)-(4)]
DOCKED: USER    Estimated Inhibition Constant, Ki   =  161.14 nM (nanomolar)  [Temperature = 298.15 K]
DOCKED: USER    
DOCKED: USER    (1) Final Intermolecular Energy     =  -10.46 kcal/mol
DOCKED: USER        vdW + Hbond + desolv Energy     =  -10.46 kcal/mol
DOCKED: USER        Electrostatic Energy            =   +0.00 kcal/mol
DOCKED: USER    (2) Final Total Internal Energy     =   -0.43 kcal/mol
DOCKED: USER    (3) Torsional Free Energy           =   +1.19 kcal/mol
DOCKED: USER    (4) Unbound System's Energy  [=(2)] =   -0.43 kcal/mol
DOCKED: USER    
DOCKED: USER    
DOCKED: USER    NEWDPF move ligand.dum.pdbqt
DOCKED: USER    NEWDPF about 0.505000 -0.158000 0.114000
DOCKED: USER    NEWDPF tran0 36.573560 12.975243 123.758426
DOCKED: USER    NEWDPF quaternion0 0.199504 0.163398 -0.936467 -0.237757
DOCKED: USER    NEWDPF axisangle0 0.205394 0.168222 -0.964113 -152.491575
DOCKED: USER    NEWDPF quat0 0.205394 0.168222 -0.964113 -152.491575
DOCKED: USER    NEWDPF dihe0 -20.97 -128.89 155.64 81.92 
DOCKED: USER  keepresnum = 1 
DOCKED: USER  
DOCKED: REMARK  Name = 
DOCKED: REMARK  4 active torsions:
DOCKED: REMARK  status: ('A' for Active; 'I' for Inactive)
DOCKED: REMARK    1  A    between atoms: C_3  and  C_4
DOCKED: REMARK    2  A    between atoms: C_4  and  C_5
DOCKED: REMARK    3  A    between atoms: C_5  and  C_6
DOCKED: REMARK    4  A    between atoms: C_6  and  C_7
DOCKED: REMARK                            x       y       z     vdW  Elec       q    Type
DOCKED: REMARK                         _______ _______ _______ _____ _____    ______ ____
DOCKED: USER                              x       y       z     vdW  Elec       q    Type
DOCKED: USER                           _______ _______ _______ _____ _____    ______ ____
DOCKED: ROOT
DOCKED: ATOM      1  C   UNL     1      37.071  11.751 123.367 -0.67 -0.00    +0.000 C 
DOCKED: ENDROOT
DOCKED: BRANCH   1   2
DOCKED: ATOM      2  C   UNL     1      36.061  10.896 122.591 -0.67 -0.00    +0.000 C 
DOCKED: BRANCH   2   5
DOCKED: ATOM      3  O   UNL     1      37.063   7.290 123.158 -2.29 -0.00    +0.000 OA
DOCKED: ATOM      4  N   UNL     1      36.578   8.534 123.382 -0.65 -0.00    +0.000 N 
DOCKED: ATOM      5  C   UNL     1      36.582   9.511 122.338 -0.71 -0.00    +0.000 C 
DOCKED: ATOM      6  O   UNL     1      37.053   9.219 121.205 -2.73 -0.00    +0.000 OA
DOCKED: ATOM      7  H   UNL     1      36.221   8.767 124.268 -0.27 -0.00    +0.000 HD
DOCKED: ENDBRANCH   2   5
DOCKED: ENDBRANCH   1   2
DOCKED: BRANCH   1   8
DOCKED: ATOM      8  C   UNL     1      36.766  13.252 123.264 -0.60 -0.00    +0.000 C 
DOCKED: BRANCH   8   9
DOCKED: ATOM      9  C   UNL     1      37.569  13.880 122.158 -0.42 -0.00    +0.000 A 
DOCKED: ATOM     10  C   UNL     1      38.550  14.843 122.452 -0.36 -0.00    +0.000 A 
DOCKED: ATOM     11  C   UNL     1      39.273  15.448 121.420 -0.26 -0.00    +0.000 A 
DOCKED: ATOM     12  C   UNL     1      39.017  15.106 120.089 -0.19 -0.00    +0.000 A 
DOCKED: ATOM     13  C   UNL     1      38.033  14.160 119.788 -0.28 -0.00    +0.000 A 
DOCKED: ATOM     14  C   UNL     1      37.308  13.552 120.817 -0.37 -0.00    +0.000 A 
DOCKED: ATOM     15  CM  UNL     1      38.291  14.498 121.120 +0.00 -0.00    +0.000 AC
DOCKED: ENDBRANCH   8   9
DOCKED: ENDBRANCH   1   8
DOCKED: TORSDOF 4DOCKED: TER
DOCKED: ENDMDL
________________________________________________________________________________


	BEGINNING GENETIC ALGORITHM DOCKING 44 of 100
Run: 44 Seed: 965432969 230598896 [ Run 44 of 100 GA/GALS ]
Beginning LAMARCKIAN GENETIC ALGORITHM (LGA), with a maximum of 2500000 energy evaluations.

Final-Value: -11.336


	FINAL GENETIC ALGORITHM DOCKED STATE
	_______________________________________________


Detailed state:  trans 35.811 13.087 123.157 quatxyzw -0.759284 -0.049569 0.605440 0.233396 center 0.505 -0.158 0.114 ntor 4 -120.1021 -113.1408 176.3620 150.8026
State:	 35.811  13.087 123.157  -0.781 -0.051  0.623 153.006   -120.10 -113.14  176.36  150.80

DOCKED: MODEL       44
DOCKED: USER    Run = 44
DOCKED: USER    DPF = ligand_dock.biased.dpf
DOCKED: USER  
DOCKED: USER    Estimated Free Energy of Binding    =   -9.75 kcal/mol  [=(1)+(2)+(3)-(4)]
DOCKED: USER    Estimated Inhibition Constant, Ki   =   71.14 nM (nanomolar)  [Temperature = 298.15 K]
DOCKED: USER    
DOCKED: USER    (1) Final Intermolecular Energy     =  -10.94 kcal/mol
DOCKED: USER        vdW + Hbond + desolv Energy     =  -10.94 kcal/mol
DOCKED: USER        Electrostatic Energy            =   +0.00 kcal/mol
DOCKED: USER    (2) Final Total Internal Energy     =   -0.39 kcal/mol
DOCKED: USER    (3) Torsional Free Energy           =   +1.19 kcal/mol
DOCKED: USER    (4) Unbound System's Energy  [=(2)] =   -0.39 kcal/mol
DOCKED: USER    
DOCKED: USER    
DOCKED: USER    NEWDPF move ligand.dum.pdbqt
DOCKED: USER    NEWDPF about 0.505000 -0.158000 0.114000
DOCKED: USER    NEWDPF tran0 35.811065 13.086959 123.156920
DOCKED: USER    NEWDPF quaternion0 -0.759284 -0.049569 0.605440 0.233396
DOCKED: USER    NEWDPF axisangle0 -0.780849 -0.050977 0.622636 153.005797
DOCKED: USER    NEWDPF quat0 -0.780849 -0.050977 0.622636 153.005797
DOCKED: USER    NEWDPF dihe0 -120.10 -113.14 176.36 150.80 
DOCKED: USER  keepresnum = 1 
DOCKED: USER  
DOCKED: REMARK  Name = 
DOCKED: REMARK  4 active torsions:
DOCKED: REMARK  status: ('A' for Active; 'I' for Inactive)
DOCKED: REMARK    1  A    between atoms: C_3  and  C_4
DOCKED: REMARK    2  A    between atoms: C_4  and  C_5
DOCKED: REMARK    3  A    between atoms: C_5  and  C_6
DOCKED: REMARK    4  A    between atoms: C_6  and  C_7
DOCKED: REMARK                            x       y       z     vdW  Elec       q    Type
DOCKED: REMARK                         _______ _______ _______ _____ _____    ______ ____
DOCKED: USER                              x       y       z     vdW  Elec       q    Type
DOCKED: USER                           _______ _______ _______ _____ _____    ______ ____
DOCKED: ROOT
DOCKED: ATOM      1  C   UNL     1      36.356  11.833 123.329 -0.70 -0.00    +0.000 C 
DOCKED: ENDROOT
DOCKED: BRANCH   1   2
DOCKED: ATOM      2  C   UNL     1      36.904  11.217 122.035 -0.58 -0.00    +0.000 C 
DOCKED: BRANCH   2   5
DOCKED: ATOM      3  O   UNL     1      37.081   7.713 123.457 -2.69 -0.00    +0.000 OA
DOCKED: ATOM      4  N   UNL     1      37.005   9.062 123.385 -0.59 -0.00    +0.000 N 
DOCKED: ATOM      5  C   UNL     1      36.969   9.719 122.116 -0.61 -0.00    +0.000 C 
DOCKED: ATOM      6  O   UNL     1      37.024   9.040 121.055 -2.71 -0.00    +0.000 OA
DOCKED: ATOM      7  H   UNL     1      36.974   9.595 124.212 -0.56 -0.00    +0.000 HD
DOCKED: ENDBRANCH   2   5
DOCKED: ENDBRANCH   1   2
DOCKED: BRANCH   1   8
DOCKED: ATOM      8  C   UNL     1      36.326  13.366 123.278 -0.59 -0.00    +0.000 C 
DOCKED: BRANCH   8   9
DOCKED: ATOM      9  C   UNL     1      37.371  13.884 122.327 -0.42 -0.00    +0.000 A 
DOCKED: ATOM     10  C   UNL     1      38.640  14.257 122.802 -0.37 -0.00    +0.000 A 
DOCKED: ATOM     11  C   UNL     1      39.599  14.768 121.922 -0.35 -0.00    +0.000 A 
DOCKED: ATOM     12  C   UNL     1      39.295  14.920 120.566 -0.22 -0.00    +0.000 A 
DOCKED: ATOM     13  C   UNL     1      38.031  14.565 120.088 -0.27 -0.00    +0.000 A 
DOCKED: ATOM     14  C   UNL     1      37.069  14.054 120.965 -0.28 -0.00    +0.000 A 
DOCKED: ATOM     15  CM  UNL     1      38.334  14.409 121.445 +0.00 -0.00    +0.000 AC
DOCKED: ENDBRANCH   8   9
DOCKED: ENDBRANCH   1   8
DOCKED: TORSDOF 4DOCKED: TER
DOCKED: ENDMDL
________________________________________________________________________________


	BEGINNING GENETIC ALGORITHM DOCKING 45 of 100
Run: 45 Seed: 2111954387 1529895523 [ Run 45 of 100 GA/GALS ]
Beginning LAMARCKIAN GENETIC ALGORITHM (LGA), with a maximum of 2500000 energy evaluations.

Final-Value: -11.211


	FINAL GENETIC ALGORITHM DOCKED STATE
	_______________________________________________


Detailed state:  trans 36.803 12.937 123.398 quatxyzw 0.735387 -0.231600 -0.631707 0.080700 center 0.505 -0.158 0.114 ntor 4 -87.9506 174.4738 -178.3817 -118.7984
State:	 36.803  12.937 123.398   0.738 -0.232 -0.634 170.742    -87.95  174.47 -178.38 -118.80

DOCKED: MODEL       45
DOCKED: USER    Run = 45
DOCKED: USER    DPF = ligand_dock.biased.dpf
DOCKED: USER  
DOCKED: USER    Estimated Free Energy of Binding    =   -9.57 kcal/mol  [=(1)+(2)+(3)-(4)]
DOCKED: USER    Estimated Inhibition Constant, Ki   =   95.84 nM (nanomolar)  [Temperature = 298.15 K]
DOCKED: USER    
DOCKED: USER    (1) Final Intermolecular Energy     =  -10.77 kcal/mol
DOCKED: USER        vdW + Hbond + desolv Energy     =  -10.77 kcal/mol
DOCKED: USER        Electrostatic Energy            =   +0.00 kcal/mol
DOCKED: USER    (2) Final Total Internal Energy     =   -0.44 kcal/mol
DOCKED: USER    (3) Torsional Free Energy           =   +1.19 kcal/mol
DOCKED: USER    (4) Unbound System's Energy  [=(2)] =   -0.44 kcal/mol
DOCKED: USER    
DOCKED: USER    
DOCKED: USER    NEWDPF move ligand.dum.pdbqt
DOCKED: USER    NEWDPF about 0.505000 -0.158000 0.114000
DOCKED: USER    NEWDPF tran0 36.803085 12.936912 123.398280
DOCKED: USER    NEWDPF quaternion0 0.735387 -0.231600 -0.631707 0.080700
DOCKED: USER    NEWDPF axisangle0 0.737794 -0.232358 -0.633774 170.742407
DOCKED: USER    NEWDPF quat0 0.737794 -0.232358 -0.633774 170.742407
DOCKED: USER    NEWDPF dihe0 -87.95 174.47 -178.38 -118.80 
DOCKED: USER  keepresnum = 1 
DOCKED: USER  
DOCKED: REMARK  Name = 
DOCKED: REMARK  4 active torsions:
DOCKED: REMARK  status: ('A' for Active; 'I' for Inactive)
DOCKED: REMARK    1  A    between atoms: C_3  and  C_4
DOCKED: REMARK    2  A    between atoms: C_4  and  C_5
DOCKED: REMARK    3  A    between atoms: C_5  and  C_6
DOCKED: REMARK    4  A    between atoms: C_6  and  C_7
DOCKED: REMARK                            x       y       z     vdW  Elec       q    Type
DOCKED: REMARK                         _______ _______ _______ _____ _____    ______ ____
DOCKED: USER                              x       y       z     vdW  Elec       q    Type
DOCKED: USER                           _______ _______ _______ _____ _____    ______ ____
DOCKED: ROOT
DOCKED: ATOM      1  C   UNL     1      36.222  11.687 123.401 -0.70 -0.00    +0.000 C 
DOCKED: ENDROOT
DOCKED: BRANCH   1   2
DOCKED: ATOM      2  C   UNL     1      36.231  11.001 122.029 -0.60 -0.00    +0.000 C 
DOCKED: BRANCH   2   5
DOCKED: ATOM      3  O   UNL     1      37.440   7.712 123.458 -2.60 -0.00    +0.000 OA
DOCKED: ATOM      4  N   UNL     1      36.956   8.973 123.383 -0.60 -0.00    +0.000 N 
DOCKED: ATOM      5  C   UNL     1      36.751   9.595 122.113 -0.68 -0.00    +0.000 C 
DOCKED: ATOM      6  O   UNL     1      37.037   8.973 121.054 -2.70 -0.00    +0.000 OA
DOCKED: ATOM      7  H   UNL     1      36.742   9.465 124.208 -0.50 -0.00    +0.000 HD
DOCKED: ENDBRANCH   2   5
DOCKED: ENDBRANCH   1   2
DOCKED: BRANCH   1   8
DOCKED: ATOM      8  C   UNL     1      37.343  12.725 123.542 -0.55 -0.00    +0.000 C 
DOCKED: BRANCH   8   9
DOCKED: ATOM      9  C   UNL     1      37.146  13.852 122.564 -0.44 -0.00    +0.000 A 
DOCKED: ATOM     10  C   UNL     1      37.692  13.774 121.271 -0.38 -0.00    +0.000 A 
DOCKED: ATOM     11  C   UNL     1      37.535  14.836 120.375 -0.25 -0.00    +0.000 A 
DOCKED: ATOM     12  C   UNL     1      36.842  15.986 120.766 -0.17 -0.00    +0.000 A 
DOCKED: ATOM     13  C   UNL     1      36.308  16.077 122.054 -0.22 -0.00    +0.000 A 
DOCKED: ATOM     14  C   UNL     1      36.463  15.017 122.953 -0.37 -0.00    +0.000 A 
DOCKED: ATOM     15  CM  UNL     1      36.998  14.924 121.664 +0.00 -0.00    +0.000 AC
DOCKED: ENDBRANCH   8   9
DOCKED: ENDBRANCH   1   8
DOCKED: TORSDOF 4DOCKED: TER
DOCKED: ENDMDL
________________________________________________________________________________


	BEGINNING GENETIC ALGORITHM DOCKING 46 of 100
Run: 46 Seed: 411464562 730029057 [ Run 46 of 100 GA/GALS ]
Beginning LAMARCKIAN GENETIC ALGORITHM (LGA), with a maximum of 2500000 energy evaluations.

Final-Value: -11.642


	FINAL GENETIC ALGORITHM DOCKED STATE
	_______________________________________________


Detailed state:  trans 36.422 12.791 123.496 quatxyzw -0.847088 0.196036 0.462459 -0.173618 center 0.505 -0.158 0.114 ntor 4 -115.0700 175.1635 142.8059 -82.2925
State:	 36.422  12.791 123.496  -0.860  0.199  0.470 -160.004   -115.07  175.16  142.81  -82.29

DOCKED: MODEL       46
DOCKED: USER    Run = 46
DOCKED: USER    DPF = ligand_dock.biased.dpf
DOCKED: USER  
DOCKED: USER    Estimated Free Energy of Binding    =  -10.05 kcal/mol  [=(1)+(2)+(3)-(4)]
DOCKED: USER    Estimated Inhibition Constant, Ki   =   42.99 nM (nanomolar)  [Temperature = 298.15 K]
DOCKED: USER    
DOCKED: USER    (1) Final Intermolecular Energy     =  -11.24 kcal/mol
DOCKED: USER        vdW + Hbond + desolv Energy     =  -11.24 kcal/mol
DOCKED: USER        Electrostatic Energy            =   +0.00 kcal/mol
DOCKED: USER    (2) Final Total Internal Energy     =   -0.40 kcal/mol
DOCKED: USER    (3) Torsional Free Energy           =   +1.19 kcal/mol
DOCKED: USER    (4) Unbound System's Energy  [=(2)] =   -0.40 kcal/mol
DOCKED: USER    
DOCKED: USER    
DOCKED: USER    NEWDPF move ligand.dum.pdbqt
DOCKED: USER    NEWDPF about 0.505000 -0.158000 0.114000
DOCKED: USER    NEWDPF tran0 36.422091 12.790774 123.495921
DOCKED: USER    NEWDPF quaternion0 -0.847088 0.196036 0.462459 -0.173618
DOCKED: USER    NEWDPF axisangle0 -0.860151 0.199060 0.469590 -160.003530
DOCKED: USER    NEWDPF quat0 -0.860151 0.199060 0.469590 -160.003530
DOCKED: USER    NEWDPF dihe0 -115.07 175.16 142.81 -82.29 
DOCKED: USER  keepresnum = 1 
DOCKED: USER  
DOCKED: REMARK  Name = 
DOCKED: REMARK  4 active torsions:
DOCKED: REMARK  status: ('A' for Active; 'I' for Inactive)
DOCKED: REMARK    1  A    between atoms: C_3  and  C_4
DOCKED: REMARK    2  A    between atoms: C_4  and  C_5
DOCKED: REMARK    3  A    between atoms: C_5  and  C_6
DOCKED: REMARK    4  A    between atoms: C_6  and  C_7
DOCKED: REMARK                            x       y       z     vdW  Elec       q    Type
DOCKED: REMARK                         _______ _______ _______ _____ _____    ______ ____
DOCKED: USER                              x       y       z     vdW  Elec       q    Type
DOCKED: USER                           _______ _______ _______ _____ _____    ______ ____
DOCKED: ROOT
DOCKED: ATOM      1  C   UNL     1      35.870  11.580 123.136 -0.66 -0.00    +0.000 C 
DOCKED: ENDROOT
DOCKED: BRANCH   1   2
DOCKED: ATOM      2  C   UNL     1      36.452  10.999 121.842 -0.54 -0.00    +0.000 C 
DOCKED: BRANCH   2   5
DOCKED: ATOM      3  O   UNL     1      37.361   7.697 123.454 -2.61 -0.00    +0.000 OA
DOCKED: ATOM      4  N   UNL     1      36.994   8.991 123.308 -0.62 -0.00    +0.000 N 
DOCKED: ATOM      5  C   UNL     1      36.842   9.557 122.004 -0.65 -0.00    +0.000 C 
DOCKED: ATOM      6  O   UNL     1      37.065   8.854 120.983 -2.71 -0.00    +0.000 OA
DOCKED: ATOM      7  H   UNL     1      36.830   9.546 124.104 -0.50 -0.00    +0.000 HD
DOCKED: ENDBRANCH   2   5
DOCKED: ENDBRANCH   1   2
DOCKED: BRANCH   1   8
DOCKED: ATOM      8  C   UNL     1      36.844  12.538 123.836 -0.59 -0.00    +0.000 C 
DOCKED: BRANCH   8   9
DOCKED: ATOM      9  C   UNL     1      36.476  13.969 123.549 -0.47 -0.00    +0.000 A 
DOCKED: ATOM     10  C   UNL     1      37.441  14.863 123.053 -0.38 -0.00    +0.000 A 
DOCKED: ATOM     11  C   UNL     1      37.105  16.200 122.817 -0.26 -0.00    +0.000 A 
DOCKED: ATOM     12  C   UNL     1      35.811  16.656 123.083 -0.31 -0.00    +0.000 A 
DOCKED: ATOM     13  C   UNL     1      34.850  15.776 123.589 -0.46 -0.00    +0.000 A 
DOCKED: ATOM     14  C   UNL     1      35.181  14.438 123.826 -0.47 -0.00    +0.000 A 
DOCKED: ATOM     15  CM  UNL     1      36.144  15.317 123.320 +0.00 -0.00    +0.000 AC
DOCKED: ENDBRANCH   8   9
DOCKED: ENDBRANCH   1   8
DOCKED: TORSDOF 4DOCKED: TER
DOCKED: ENDMDL
________________________________________________________________________________


	BEGINNING GENETIC ALGORITHM DOCKING 47 of 100
Run: 47 Seed: 562282765 648887296 [ Run 47 of 100 GA/GALS ]
Beginning LAMARCKIAN GENETIC ALGORITHM (LGA), with a maximum of 2500000 energy evaluations.

Final-Value: -11.615


	FINAL GENETIC ALGORITHM DOCKED STATE
	_______________________________________________


Detailed state:  trans 36.595 12.839 123.531 quatxyzw 0.801267 -0.224997 -0.532455 0.154403 center 0.505 -0.158 0.114 ntor 4 -100.3919 171.4314 135.6190 -79.6885
State:	 36.595  12.839 123.531   0.811 -0.228 -0.539 162.236   -100.39  171.43  135.62  -79.69

DOCKED: MODEL       47
DOCKED: USER    Run = 47
DOCKED: USER    DPF = ligand_dock.biased.dpf
DOCKED: USER  
DOCKED: USER    Estimated Free Energy of Binding    =  -10.03 kcal/mol  [=(1)+(2)+(3)-(4)]
DOCKED: USER    Estimated Inhibition Constant, Ki   =   44.73 nM (nanomolar)  [Temperature = 298.15 K]
DOCKED: USER    
DOCKED: USER    (1) Final Intermolecular Energy     =  -11.22 kcal/mol
DOCKED: USER        vdW + Hbond + desolv Energy     =  -11.22 kcal/mol
DOCKED: USER        Electrostatic Energy            =   +0.00 kcal/mol
DOCKED: USER    (2) Final Total Internal Energy     =   -0.40 kcal/mol
DOCKED: USER    (3) Torsional Free Energy           =   +1.19 kcal/mol
DOCKED: USER    (4) Unbound System's Energy  [=(2)] =   -0.40 kcal/mol
DOCKED: USER    
DOCKED: USER    
DOCKED: USER    NEWDPF move ligand.dum.pdbqt
DOCKED: USER    NEWDPF about 0.505000 -0.158000 0.114000
DOCKED: USER    NEWDPF tran0 36.595074 12.839343 123.531308
DOCKED: USER    NEWDPF quaternion0 0.801267 -0.224997 -0.532455 0.154403
DOCKED: USER    NEWDPF axisangle0 0.810992 -0.227727 -0.538918 162.235649
DOCKED: USER    NEWDPF quat0 0.810992 -0.227727 -0.538918 162.235649
DOCKED: USER    NEWDPF dihe0 -100.39 171.43 135.62 -79.69 
DOCKED: USER  keepresnum = 1 
DOCKED: USER  
DOCKED: REMARK  Name = 
DOCKED: REMARK  4 active torsions:
DOCKED: REMARK  status: ('A' for Active; 'I' for Inactive)
DOCKED: REMARK    1  A    between atoms: C_3  and  C_4
DOCKED: REMARK    2  A    between atoms: C_4  and  C_5
DOCKED: REMARK    3  A    between atoms: C_5  and  C_6
DOCKED: REMARK    4  A    between atoms: C_6  and  C_7
DOCKED: REMARK                            x       y       z     vdW  Elec       q    Type
DOCKED: REMARK                         _______ _______ _______ _____ _____    ______ ____
DOCKED: USER                              x       y       z     vdW  Elec       q    Type
DOCKED: USER                           _______ _______ _______ _____ _____    ______ ____
DOCKED: ROOT
DOCKED: ATOM      1  C   UNL     1      35.959  11.639 123.297 -0.69 -0.00    +0.000 C 
DOCKED: ENDROOT
DOCKED: BRANCH   1   2
DOCKED: ATOM      2  C   UNL     1      36.289  11.025 121.931 -0.58 -0.00    +0.000 C 
DOCKED: BRANCH   2   5
DOCKED: ATOM      3  O   UNL     1      37.321   7.719 123.458 -2.63 -0.00    +0.000 OA
DOCKED: ATOM      4  N   UNL     1      36.886   8.995 123.344 -0.61 -0.00    +0.000 N 
DOCKED: ATOM      5  C   UNL     1      36.753   9.602 122.057 -0.67 -0.00    +0.000 C 
DOCKED: ATOM      6  O   UNL     1      37.056   8.952 121.020 -2.71 -0.00    +0.000 OA
DOCKED: ATOM      7  H   UNL     1      36.660   9.509 124.153 -0.47 -0.00    +0.000 HD
DOCKED: ENDBRANCH   2   5
DOCKED: ENDBRANCH   1   2
DOCKED: BRANCH   1   8
DOCKED: ATOM      8  C   UNL     1      37.065  12.580 123.795 -0.55 -0.00    +0.000 C 
DOCKED: BRANCH   8   9
DOCKED: ATOM      9  C   UNL     1      36.658  14.017 123.610 -0.44 -0.00    +0.000 A 
DOCKED: ATOM     10  C   UNL     1      37.566  14.948 123.076 -0.37 -0.00    +0.000 A 
DOCKED: ATOM     11  C   UNL     1      37.197  16.289 122.934 -0.26 -0.00    +0.000 A 
DOCKED: ATOM     12  C   UNL     1      35.926  16.713 123.333 -0.30 -0.00    +0.000 A 
DOCKED: ATOM     13  C   UNL     1      35.023  15.796 123.878 -0.48 -0.00    +0.000 A 
DOCKED: ATOM     14  C   UNL     1      35.387  14.454 124.021 -0.46 -0.00    +0.000 A 
DOCKED: ATOM     15  CM  UNL     1      36.293  15.370 123.476 +0.00 -0.00    +0.000 AC
DOCKED: ENDBRANCH   8   9
DOCKED: ENDBRANCH   1   8
DOCKED: TORSDOF 4DOCKED: TER
DOCKED: ENDMDL
________________________________________________________________________________


	BEGINNING GENETIC ALGORITHM DOCKING 48 of 100
Run: 48 Seed: 150583145 2083091399 [ Run 48 of 100 GA/GALS ]
Beginning LAMARCKIAN GENETIC ALGORITHM (LGA), with a maximum of 2500000 energy evaluations.

Final-Value: -11.589


	FINAL GENETIC ALGORITHM DOCKED STATE
	_______________________________________________


Detailed state:  trans 36.648 13.028 123.386 quatxyzw -0.693932 0.237111 0.678080 -0.049433 center 0.505 -0.158 0.114 ntor 4 -68.2802 170.8655 -65.1372 -77.5835
State:	 36.648  13.028 123.386  -0.695  0.237  0.679 -174.333    -68.28  170.87  -65.14  -77.58

DOCKED: MODEL       48
DOCKED: USER    Run = 48
DOCKED: USER    DPF = ligand_dock.biased.dpf
DOCKED: USER  
DOCKED: USER    Estimated Free Energy of Binding    =  -10.00 kcal/mol  [=(1)+(2)+(3)-(4)]
DOCKED: USER    Estimated Inhibition Constant, Ki   =   46.98 nM (nanomolar)  [Temperature = 298.15 K]
DOCKED: USER    
DOCKED: USER    (1) Final Intermolecular Energy     =  -11.19 kcal/mol
DOCKED: USER        vdW + Hbond + desolv Energy     =  -11.19 kcal/mol
DOCKED: USER        Electrostatic Energy            =   +0.00 kcal/mol
DOCKED: USER    (2) Final Total Internal Energy     =   -0.40 kcal/mol
DOCKED: USER    (3) Torsional Free Energy           =   +1.19 kcal/mol
DOCKED: USER    (4) Unbound System's Energy  [=(2)] =   -0.40 kcal/mol
DOCKED: USER    
DOCKED: USER    
DOCKED: USER    NEWDPF move ligand.dum.pdbqt
DOCKED: USER    NEWDPF about 0.505000 -0.158000 0.114000
DOCKED: USER    NEWDPF tran0 36.648285 13.028363 123.386160
DOCKED: USER    NEWDPF quaternion0 -0.693932 0.237111 0.678080 -0.049433
DOCKED: USER    NEWDPF axisangle0 -0.694782 0.237401 0.678910 -174.333054
DOCKED: USER    NEWDPF quat0 -0.694782 0.237401 0.678910 -174.333054
DOCKED: USER    NEWDPF dihe0 -68.28 170.87 -65.14 -77.58 
DOCKED: USER  keepresnum = 1 
DOCKED: USER  
DOCKED: REMARK  Name = 
DOCKED: REMARK  4 active torsions:
DOCKED: REMARK  status: ('A' for Active; 'I' for Inactive)
DOCKED: REMARK    1  A    between atoms: C_3  and  C_4
DOCKED: REMARK    2  A    between atoms: C_4  and  C_5
DOCKED: REMARK    3  A    between atoms: C_5  and  C_6
DOCKED: REMARK    4  A    between atoms: C_6  and  C_7
DOCKED: REMARK                            x       y       z     vdW  Elec       q    Type
DOCKED: REMARK                         _______ _______ _______ _____ _____    ______ ____
DOCKED: USER                              x       y       z     vdW  Elec       q    Type
DOCKED: USER                           _______ _______ _______ _____ _____    ______ ____
DOCKED: ROOT
DOCKED: ATOM      1  C   UNL     1      36.099  11.769 123.497 -0.69 -0.00    +0.000 C 
DOCKED: ENDROOT
DOCKED: BRANCH   1   2
DOCKED: ATOM      2  C   UNL     1      35.937  11.048 122.153 -0.60 -0.00    +0.000 C 
DOCKED: BRANCH   2   5
DOCKED: ATOM      3  O   UNL     1      37.232   7.719 123.406 -2.63 -0.00    +0.000 OA
DOCKED: ATOM      4  N   UNL     1      36.646   8.938 123.387 -0.59 -0.00    +0.000 N 
DOCKED: ATOM      5  C   UNL     1      36.571   9.687 122.171 -0.68 -0.00    +0.000 C 
DOCKED: ATOM      6  O   UNL     1      37.066   9.216 121.112 -2.74 -0.00    +0.000 OA
DOCKED: ATOM      7  H   UNL     1      36.269   9.313 124.215 -0.33 -0.00    +0.000 HD
DOCKED: ENDBRANCH   2   5
DOCKED: ENDBRANCH   1   2
DOCKED: BRANCH   1   8
DOCKED: ATOM      8  C   UNL     1      37.207  12.830 123.460 -0.60 -0.00    +0.000 C 
DOCKED: BRANCH   8   9
DOCKED: ATOM      9  C   UNL     1      36.614  14.212 123.411 -0.46 -0.00    +0.000 A 
DOCKED: ATOM     10  C   UNL     1      35.318  14.445 123.903 -0.47 -0.00    +0.000 A 
DOCKED: ATOM     11  C   UNL     1      34.756  15.723 123.828 -0.50 -0.00    +0.000 A 
DOCKED: ATOM     12  C   UNL     1      35.477  16.774 123.253 -0.33 -0.00    +0.000 A 
DOCKED: ATOM     13  C   UNL     1      36.760  16.547 122.749 -0.25 -0.00    +0.000 A 
DOCKED: ATOM     14  C   UNL     1      37.327  15.270 122.822 -0.34 -0.00    +0.000 A 
DOCKED: ATOM     15  CM  UNL     1      36.042  15.495 123.328 +0.00 -0.00    +0.000 AC
DOCKED: ENDBRANCH   8   9
DOCKED: ENDBRANCH   1   8
DOCKED: TORSDOF 4DOCKED: TER
DOCKED: ENDMDL
________________________________________________________________________________


	BEGINNING GENETIC ALGORITHM DOCKING 49 of 100
Run: 49 Seed: 935813789 1956965502 [ Run 49 of 100 GA/GALS ]
Beginning LAMARCKIAN GENETIC ALGORITHM (LGA), with a maximum of 2500000 energy evaluations.

Final-Value: -11.409


	FINAL GENETIC ALGORITHM DOCKED STATE
	_______________________________________________


Detailed state:  trans 36.782 13.343 122.531 quatxyzw 0.336598 -0.093155 -0.913089 -0.210457 center 0.505 -0.158 0.114 ntor 4 -37.6772 -150.4717 -122.3780 -65.7492
State:	 36.782  13.343 122.531   0.344 -0.095 -0.934 -155.702    -37.68 -150.47 -122.38  -65.75

DOCKED: MODEL       49
DOCKED: USER    Run = 49
DOCKED: USER    DPF = ligand_dock.biased.dpf
DOCKED: USER  
DOCKED: USER    Estimated Free Energy of Binding    =   -9.86 kcal/mol  [=(1)+(2)+(3)-(4)]
DOCKED: USER    Estimated Inhibition Constant, Ki   =   58.78 nM (nanomolar)  [Temperature = 298.15 K]
DOCKED: USER    
DOCKED: USER    (1) Final Intermolecular Energy     =  -11.06 kcal/mol
DOCKED: USER        vdW + Hbond + desolv Energy     =  -11.06 kcal/mol
DOCKED: USER        Electrostatic Energy            =   +0.00 kcal/mol
DOCKED: USER    (2) Final Total Internal Energy     =   -0.35 kcal/mol
DOCKED: USER    (3) Torsional Free Energy           =   +1.19 kcal/mol
DOCKED: USER    (4) Unbound System's Energy  [=(2)] =   -0.35 kcal/mol
DOCKED: USER    
DOCKED: USER    
DOCKED: USER    NEWDPF move ligand.dum.pdbqt
DOCKED: USER    NEWDPF about 0.505000 -0.158000 0.114000
DOCKED: USER    NEWDPF tran0 36.781683 13.342735 122.531398
DOCKED: USER    NEWDPF quaternion0 0.336598 -0.093155 -0.913089 -0.210457
DOCKED: USER    NEWDPF axisangle0 0.344310 -0.095289 -0.934008 -155.701713
DOCKED: USER    NEWDPF quat0 0.344310 -0.095289 -0.934008 -155.701713
DOCKED: USER    NEWDPF dihe0 -37.68 -150.47 -122.38 -65.75 
DOCKED: USER  keepresnum = 1 
DOCKED: USER  
DOCKED: REMARK  Name = 
DOCKED: REMARK  4 active torsions:
DOCKED: REMARK  status: ('A' for Active; 'I' for Inactive)
DOCKED: REMARK    1  A    between atoms: C_3  and  C_4
DOCKED: REMARK    2  A    between atoms: C_4  and  C_5
DOCKED: REMARK    3  A    between atoms: C_5  and  C_6
DOCKED: REMARK    4  A    between atoms: C_6  and  C_7
DOCKED: REMARK                            x       y       z     vdW  Elec       q    Type
DOCKED: REMARK                         _______ _______ _______ _____ _____    ______ ____
DOCKED: USER                              x       y       z     vdW  Elec       q    Type
DOCKED: USER                           _______ _______ _______ _____ _____    ______ ____
DOCKED: ROOT
DOCKED: ATOM      1  C   UNL     1      37.050  12.022 122.819 -0.63 -0.00    +0.000 C 
DOCKED: ENDROOT
DOCKED: BRANCH   1   2
DOCKED: ATOM      2  C   UNL     1      36.166  11.032 122.050 -0.60 -0.00    +0.000 C 
DOCKED: BRANCH   2   5
DOCKED: ATOM      3  O   UNL     1      37.353   7.720 123.445 -2.62 -0.00    +0.000 OA
DOCKED: ATOM      4  N   UNL     1      36.852   8.975 123.381 -0.60 -0.00    +0.000 N 
DOCKED: ATOM      5  C   UNL     1      36.706   9.632 122.121 -0.69 -0.00    +0.000 C 
DOCKED: ATOM      6  O   UNL     1      37.060   9.048 121.061 -2.72 -0.00    +0.000 OA
DOCKED: ATOM      7  H   UNL     1      36.586   9.438 124.208 -0.45 -0.00    +0.000 HD
DOCKED: ENDBRANCH   2   5
DOCKED: ENDBRANCH   1   2
DOCKED: BRANCH   1   8
DOCKED: ATOM      8  C   UNL     1      37.188  13.367 122.093 -0.50 -0.00    +0.000 C 
DOCKED: BRANCH   8   9
DOCKED: ATOM      9  C   UNL     1      36.602  14.477 122.924 -0.41 -0.00    +0.000 A 
DOCKED: ATOM     10  C   UNL     1      35.494  14.234 123.754 -0.47 -0.00    +0.000 A 
DOCKED: ATOM     11  C   UNL     1      34.932  15.273 124.501 -0.48 -0.00    +0.000 A 
DOCKED: ATOM     12  C   UNL     1      35.463  16.564 124.417 -0.35 -0.00    +0.000 A 
DOCKED: ATOM     13  C   UNL     1      36.556  16.817 123.583 -0.27 -0.00    +0.000 A 
DOCKED: ATOM     14  C   UNL     1      37.121  15.780 122.835 -0.30 -0.00    +0.000 A 
DOCKED: ATOM     15  CM  UNL     1      36.028  15.524 123.668 +0.00 -0.00    +0.000 AC
DOCKED: ENDBRANCH   8   9
DOCKED: ENDBRANCH   1   8
DOCKED: TORSDOF 4DOCKED: TER
DOCKED: ENDMDL
________________________________________________________________________________


	BEGINNING GENETIC ALGORITHM DOCKING 50 of 100
Run: 50 Seed: 1130513041 1827058285 [ Run 50 of 100 GA/GALS ]
Beginning LAMARCKIAN GENETIC ALGORITHM (LGA), with a maximum of 2500000 energy evaluations.

Final-Value: -11.525


	FINAL GENETIC ALGORITHM DOCKED STATE
	_______________________________________________


Detailed state:  trans 37.928 12.465 122.875 quatxyzw 0.444768 -0.656521 0.603076 0.086378 center 0.505 -0.158 0.114 ntor 4 13.6009 -35.7834 179.5527 87.6239
State:	 37.928  12.465 122.875   0.446 -0.659  0.605 170.089     13.60  -35.78  179.55   87.62

DOCKED: MODEL       50
DOCKED: USER    Run = 50
DOCKED: USER    DPF = ligand_dock.biased.dpf
DOCKED: USER  
DOCKED: USER    Estimated Free Energy of Binding    =   -9.92 kcal/mol  [=(1)+(2)+(3)-(4)]
DOCKED: USER    Estimated Inhibition Constant, Ki   =   53.76 nM (nanomolar)  [Temperature = 298.15 K]
DOCKED: USER    
DOCKED: USER    (1) Final Intermolecular Energy     =  -11.11 kcal/mol
DOCKED: USER        vdW + Hbond + desolv Energy     =  -11.11 kcal/mol
DOCKED: USER        Electrostatic Energy            =   +0.00 kcal/mol
DOCKED: USER    (2) Final Total Internal Energy     =   -0.41 kcal/mol
DOCKED: USER    (3) Torsional Free Energy           =   +1.19 kcal/mol
DOCKED: USER    (4) Unbound System's Energy  [=(2)] =   -0.41 kcal/mol
DOCKED: USER    
DOCKED: USER    
DOCKED: USER    NEWDPF move ligand.dum.pdbqt
DOCKED: USER    NEWDPF about 0.505000 -0.158000 0.114000
DOCKED: USER    NEWDPF tran0 37.927947 12.465380 122.875031
DOCKED: USER    NEWDPF quaternion0 0.444768 -0.656521 0.603076 0.086378
DOCKED: USER    NEWDPF axisangle0 0.446437 -0.658984 0.605338 170.089418
DOCKED: USER    NEWDPF quat0 0.446437 -0.658984 0.605338 170.089418
DOCKED: USER    NEWDPF dihe0 13.60 -35.78 179.55 87.62 
DOCKED: USER  keepresnum = 1 
DOCKED: USER  
DOCKED: REMARK  Name = 
DOCKED: REMARK  4 active torsions:
DOCKED: REMARK  status: ('A' for Active; 'I' for Inactive)
DOCKED: REMARK    1  A    between atoms: C_3  and  C_4
DOCKED: REMARK    2  A    between atoms: C_4  and  C_5
DOCKED: REMARK    3  A    between atoms: C_5  and  C_6
DOCKED: REMARK    4  A    between atoms: C_6  and  C_7
DOCKED: REMARK                            x       y       z     vdW  Elec       q    Type
DOCKED: REMARK                         _______ _______ _______ _____ _____    ______ ____
DOCKED: USER                              x       y       z     vdW  Elec       q    Type
DOCKED: USER                           _______ _______ _______ _____ _____    ______ ____
DOCKED: ROOT
DOCKED: ATOM      1  C   UNL     1      37.137  12.130 121.797 -0.55 -0.00    +0.000 C 
DOCKED: ENDROOT
DOCKED: BRANCH   1   2
DOCKED: ATOM      2  C   UNL     1      36.066  11.082 122.122 -0.60 -0.00    +0.000 C 
DOCKED: BRANCH   2   5
DOCKED: ATOM      3  O   UNL     1      37.247   7.720 123.398 -2.62 -0.00    +0.000 OA
DOCKED: ATOM      4  N   UNL     1      36.719   8.966 123.374 -0.59 -0.00    +0.000 N 
DOCKED: ATOM      5  C   UNL     1      36.634   9.692 122.146 -0.68 -0.00    +0.000 C 
DOCKED: ATOM      6  O   UNL     1      37.066   9.178 121.079 -2.73 -0.00    +0.000 OA
DOCKED: ATOM      7  H   UNL     1      36.392   9.375 124.207 -0.38 -0.00    +0.000 HD
DOCKED: ENDBRANCH   2   5
DOCKED: ENDBRANCH   1   2
DOCKED: BRANCH   1   8
DOCKED: ATOM      8  C   UNL     1      37.576  12.920 123.037 -0.54 -0.00    +0.000 C 
DOCKED: BRANCH   8   9
DOCKED: ATOM      9  C   UNL     1      36.712  14.139 123.220 -0.46 -0.00    +0.000 A 
DOCKED: ATOM     10  C   UNL     1      37.081  15.365 122.639 -0.32 -0.00    +0.000 A 
DOCKED: ATOM     11  C   UNL     1      36.294  16.503 122.836 -0.27 -0.00    +0.000 A 
DOCKED: ATOM     12  C   UNL     1      35.139  16.429 123.621 -0.40 -0.00    +0.000 A 
DOCKED: ATOM     13  C   UNL     1      34.772  15.218 124.213 -0.53 -0.00    +0.000 A 
DOCKED: ATOM     14  C   UNL     1      35.557  14.077 124.018 -0.44 -0.00    +0.000 A 
DOCKED: ATOM     15  CM  UNL     1      35.926  15.288 123.425 +0.00 -0.00    +0.000 AC
DOCKED: ENDBRANCH   8   9
DOCKED: ENDBRANCH   1   8
DOCKED: TORSDOF 4DOCKED: TER
DOCKED: ENDMDL
________________________________________________________________________________


	BEGINNING GENETIC ALGORITHM DOCKING 51 of 100
Run: 51 Seed: 1339478391 1405040091 [ Run 51 of 100 GA/GALS ]
Beginning LAMARCKIAN GENETIC ALGORITHM (LGA), with a maximum of 2500000 energy evaluations.

Final-Value: -11.713


	FINAL GENETIC ALGORITHM DOCKED STATE
	_______________________________________________


Detailed state:  trans 36.885 13.124 123.017 quatxyzw 0.765209 -0.194867 -0.613201 0.021582 center 0.505 -0.158 0.114 ntor 4 -97.5010 -164.1827 -72.2355 -60.7717
State:	 36.885  13.124 123.017   0.765 -0.195 -0.613 177.527    -97.50 -164.18  -72.24  -60.77

DOCKED: MODEL       51
DOCKED: USER    Run = 51
DOCKED: USER    DPF = ligand_dock.biased.dpf
DOCKED: USER  
DOCKED: USER    Estimated Free Energy of Binding    =  -10.16 kcal/mol  [=(1)+(2)+(3)-(4)]
DOCKED: USER    Estimated Inhibition Constant, Ki   =   35.59 nM (nanomolar)  [Temperature = 298.15 K]
DOCKED: USER    
DOCKED: USER    (1) Final Intermolecular Energy     =  -11.35 kcal/mol
DOCKED: USER        vdW + Hbond + desolv Energy     =  -11.35 kcal/mol
DOCKED: USER        Electrostatic Energy            =   +0.00 kcal/mol
DOCKED: USER    (2) Final Total Internal Energy     =   -0.36 kcal/mol
DOCKED: USER    (3) Torsional Free Energy           =   +1.19 kcal/mol
DOCKED: USER    (4) Unbound System's Energy  [=(2)] =   -0.36 kcal/mol
DOCKED: USER    
DOCKED: USER    
DOCKED: USER    NEWDPF move ligand.dum.pdbqt
DOCKED: USER    NEWDPF about 0.505000 -0.158000 0.114000
DOCKED: USER    NEWDPF tran0 36.884745 13.123832 123.017127
DOCKED: USER    NEWDPF quaternion0 0.765209 -0.194867 -0.613201 0.021582
DOCKED: USER    NEWDPF axisangle0 0.765388 -0.194912 -0.613344 177.526645
DOCKED: USER    NEWDPF quat0 0.765388 -0.194912 -0.613344 177.526645
DOCKED: USER    NEWDPF dihe0 -97.50 -164.18 -72.24 -60.77 
DOCKED: USER  keepresnum = 1 
DOCKED: USER  
DOCKED: REMARK  Name = 
DOCKED: REMARK  4 active torsions:
DOCKED: REMARK  status: ('A' for Active; 'I' for Inactive)
DOCKED: REMARK    1  A    between atoms: C_3  and  C_4
DOCKED: REMARK    2  A    between atoms: C_4  and  C_5
DOCKED: REMARK    3  A    between atoms: C_5  and  C_6
DOCKED: REMARK    4  A    between atoms: C_6  and  C_7
DOCKED: REMARK                            x       y       z     vdW  Elec       q    Type
DOCKED: REMARK                         _______ _______ _______ _____ _____    ______ ____
DOCKED: USER                              x       y       z     vdW  Elec       q    Type
DOCKED: USER                           _______ _______ _______ _____ _____    ______ ____
DOCKED: ROOT
DOCKED: ATOM      1  C   UNL     1      36.482  11.807 123.067 -0.69 -0.00    +0.000 C 
DOCKED: ENDROOT
DOCKED: BRANCH   1   2
DOCKED: ATOM      2  C   UNL     1      36.650  11.060 121.739 -0.55 -0.00    +0.000 C 
DOCKED: BRANCH   2   5
DOCKED: ATOM      3  O   UNL     1      37.083   7.716 123.459 -2.69 -0.00    +0.000 OA
DOCKED: ATOM      4  N   UNL     1      36.874   9.040 123.269 -0.62 -0.00    +0.000 N 
DOCKED: ATOM      5  C   UNL     1      36.864   9.589 121.949 -0.64 -0.00    +0.000 C 
DOCKED: ATOM      6  O   UNL     1      37.066   8.840 120.955 -2.71 -0.00    +0.000 OA
DOCKED: ATOM      7  H   UNL     1      36.727   9.628 124.044 -0.47 -0.00    +0.000 HD
DOCKED: ENDBRANCH   2   5
DOCKED: ENDBRANCH   1   2
DOCKED: BRANCH   1   8
DOCKED: ATOM      8  C   UNL     1      37.442  12.998 123.194 -0.58 -0.00    +0.000 C 
DOCKED: BRANCH   8   9
DOCKED: ATOM      9  C   UNL     1      36.674  14.274 123.411 -0.45 -0.00    +0.000 A 
DOCKED: ATOM     10  C   UNL     1      35.333  14.233 123.830 -0.45 -0.00    +0.000 A 
DOCKED: ATOM     11  C   UNL     1      34.612  15.418 124.000 -0.53 -0.00    +0.000 A 
DOCKED: ATOM     12  C   UNL     1      35.220  16.651 123.744 -0.38 -0.00    +0.000 A 
DOCKED: ATOM     13  C   UNL     1      36.548  16.700 123.314 -0.27 -0.00    +0.000 A 
DOCKED: ATOM     14  C   UNL     1      37.273  15.516 123.142 -0.33 -0.00    +0.000 A 
DOCKED: ATOM     15  CM  UNL     1      35.944  15.465 123.573 +0.00 -0.00    +0.000 AC
DOCKED: ENDBRANCH   8   9
DOCKED: ENDBRANCH   1   8
DOCKED: TORSDOF 4DOCKED: TER
DOCKED: ENDMDL
________________________________________________________________________________


	BEGINNING GENETIC ALGORITHM DOCKING 52 of 100
Run: 52 Seed: 256993798 219460850 [ Run 52 of 100 GA/GALS ]
Beginning LAMARCKIAN GENETIC ALGORITHM (LGA), with a maximum of 2500000 energy evaluations.

Final-Value: -11.296


	FINAL GENETIC ALGORITHM DOCKED STATE
	_______________________________________________


Detailed state:  trans 35.661 13.192 122.850 quatxyzw 0.907289 -0.024201 -0.388219 -0.159769 center 0.505 -0.158 0.114 ntor 4 -150.7100 -119.5818 173.1688 177.4427
State:	 35.661  13.192 122.850   0.919 -0.025 -0.393 -161.613   -150.71 -119.58  173.17  177.44

DOCKED: MODEL       52
DOCKED: USER    Run = 52
DOCKED: USER    DPF = ligand_dock.biased.dpf
DOCKED: USER  
DOCKED: USER    Estimated Free Energy of Binding    =   -9.67 kcal/mol  [=(1)+(2)+(3)-(4)]
DOCKED: USER    Estimated Inhibition Constant, Ki   =   82.26 nM (nanomolar)  [Temperature = 298.15 K]
DOCKED: USER    
DOCKED: USER    (1) Final Intermolecular Energy     =  -10.86 kcal/mol
DOCKED: USER        vdW + Hbond + desolv Energy     =  -10.86 kcal/mol
DOCKED: USER        Electrostatic Energy            =   +0.00 kcal/mol
DOCKED: USER    (2) Final Total Internal Energy     =   -0.44 kcal/mol
DOCKED: USER    (3) Torsional Free Energy           =   +1.19 kcal/mol
DOCKED: USER    (4) Unbound System's Energy  [=(2)] =   -0.44 kcal/mol
DOCKED: USER    
DOCKED: USER    
DOCKED: USER    NEWDPF move ligand.dum.pdbqt
DOCKED: USER    NEWDPF about 0.505000 -0.158000 0.114000
DOCKED: USER    NEWDPF tran0 35.661220 13.191625 122.849566
DOCKED: USER    NEWDPF quaternion0 0.907289 -0.024201 -0.388219 -0.159769
DOCKED: USER    NEWDPF axisangle0 0.919096 -0.024516 -0.393271 -161.613068
DOCKED: USER    NEWDPF quat0 0.919096 -0.024516 -0.393271 -161.613068
DOCKED: USER    NEWDPF dihe0 -150.71 -119.58 173.17 177.44 
DOCKED: USER  keepresnum = 1 
DOCKED: USER  
DOCKED: REMARK  Name = 
DOCKED: REMARK  4 active torsions:
DOCKED: REMARK  status: ('A' for Active; 'I' for Inactive)
DOCKED: REMARK    1  A    between atoms: C_3  and  C_4
DOCKED: REMARK    2  A    between atoms: C_4  and  C_5
DOCKED: REMARK    3  A    between atoms: C_5  and  C_6
DOCKED: REMARK    4  A    between atoms: C_6  and  C_7
DOCKED: REMARK                            x       y       z     vdW  Elec       q    Type
DOCKED: REMARK                         _______ _______ _______ _____ _____    ______ ____
DOCKED: USER                              x       y       z     vdW  Elec       q    Type
DOCKED: USER                           _______ _______ _______ _____ _____    ______ ____
DOCKED: ROOT
DOCKED: ATOM      1  C   UNL     1      35.935  11.864 123.098 -0.66 -0.00    +0.000 C 
DOCKED: ENDROOT
DOCKED: BRANCH   1   2
DOCKED: ATOM      2  C   UNL     1      37.025  11.280 122.191 -0.57 -0.00    +0.000 C 
DOCKED: BRANCH   2   5
DOCKED: ATOM      3  O   UNL     1      37.072   7.713 123.458 -2.70 -0.00    +0.000 OA
DOCKED: ATOM      4  N   UNL     1      37.062   9.066 123.445 -0.58 -0.00    +0.000 N 
DOCKED: ATOM      5  C   UNL     1      37.018   9.778 122.207 -0.60 -0.00    +0.000 C 
DOCKED: ATOM      6  O   UNL     1      37.004   9.145 121.117 -2.71 -0.00    +0.000 OA
DOCKED: ATOM      7  H   UNL     1      37.084   9.564 124.294 -0.56 -0.00    +0.000 HD
DOCKED: ENDBRANCH   2   5
DOCKED: ENDBRANCH   1   2
DOCKED: BRANCH   1   8
DOCKED: ATOM      8  C   UNL     1      36.058  13.386 123.253 -0.55 -0.00    +0.000 C 
DOCKED: BRANCH   8   9
DOCKED: ATOM      9  C   UNL     1      37.225  13.905 122.457 -0.43 -0.00    +0.000 A 
DOCKED: ATOM     10  C   UNL     1      38.462  14.140 123.083 -0.37 -0.00    +0.000 A 
DOCKED: ATOM     11  C   UNL     1      39.535  14.653 122.349 -0.36 -0.00    +0.000 A 
DOCKED: ATOM     12  C   UNL     1      39.381  14.945 120.991 -0.26 -0.00    +0.000 A 
DOCKED: ATOM     13  C   UNL     1      38.151  14.727 120.365 -0.26 -0.00    +0.000 A 
DOCKED: ATOM     14  C   UNL     1      37.074  14.215 121.095 -0.27 -0.00    +0.000 A 
DOCKED: ATOM     15  CM  UNL     1      38.304  14.431 121.723 +0.00 -0.00    +0.000 AC
DOCKED: ENDBRANCH   8   9
DOCKED: ENDBRANCH   1   8
DOCKED: TORSDOF 4DOCKED: TER
DOCKED: ENDMDL
________________________________________________________________________________


	BEGINNING GENETIC ALGORITHM DOCKING 53 of 100
Run: 53 Seed: 681621609 1920411351 [ Run 53 of 100 GA/GALS ]
Beginning LAMARCKIAN GENETIC ALGORITHM (LGA), with a maximum of 2500000 energy evaluations.

Final-Value: -11.113


	FINAL GENETIC ALGORITHM DOCKED STATE
	_______________________________________________


Detailed state:  trans 38.038 12.695 121.900 quatxyzw -0.664199 0.498903 -0.541760 0.128188 center 0.505 -0.158 0.114 ntor 4 60.7616 -67.2408 149.3101 96.9241
State:	 38.038  12.695 121.900  -0.670  0.503 -0.546 165.270     60.76  -67.24  149.31   96.92

DOCKED: MODEL       53
DOCKED: USER    Run = 53
DOCKED: USER    DPF = ligand_dock.biased.dpf
DOCKED: USER  
DOCKED: USER    Estimated Free Energy of Binding    =   -9.60 kcal/mol  [=(1)+(2)+(3)-(4)]
DOCKED: USER    Estimated Inhibition Constant, Ki   =   91.72 nM (nanomolar)  [Temperature = 298.15 K]
DOCKED: USER    
DOCKED: USER    (1) Final Intermolecular Energy     =  -10.79 kcal/mol
DOCKED: USER        vdW + Hbond + desolv Energy     =  -10.79 kcal/mol
DOCKED: USER        Electrostatic Energy            =   +0.00 kcal/mol
DOCKED: USER    (2) Final Total Internal Energy     =   -0.32 kcal/mol
DOCKED: USER    (3) Torsional Free Energy           =   +1.19 kcal/mol
DOCKED: USER    (4) Unbound System's Energy  [=(2)] =   -0.32 kcal/mol
DOCKED: USER    
DOCKED: USER    
DOCKED: USER    NEWDPF move ligand.dum.pdbqt
DOCKED: USER    NEWDPF about 0.505000 -0.158000 0.114000
DOCKED: USER    NEWDPF tran0 38.038325 12.694524 121.900145
DOCKED: USER    NEWDPF quaternion0 -0.664199 0.498903 -0.541760 0.128188
DOCKED: USER    NEWDPF axisangle0 -0.669724 0.503053 -0.546267 165.270241
DOCKED: USER    NEWDPF quat0 -0.669724 0.503053 -0.546267 165.270241
DOCKED: USER    NEWDPF dihe0 60.76 -67.24 149.31 96.92 
DOCKED: USER  keepresnum = 1 
DOCKED: USER  
DOCKED: REMARK  Name = 
DOCKED: REMARK  4 active torsions:
DOCKED: REMARK  status: ('A' for Active; 'I' for Inactive)
DOCKED: REMARK    1  A    between atoms: C_3  and  C_4
DOCKED: REMARK    2  A    between atoms: C_4  and  C_5
DOCKED: REMARK    3  A    between atoms: C_5  and  C_6
DOCKED: REMARK    4  A    between atoms: C_6  and  C_7
DOCKED: REMARK                            x       y       z     vdW  Elec       q    Type
DOCKED: REMARK                         _______ _______ _______ _____ _____    ______ ____
DOCKED: USER                              x       y       z     vdW  Elec       q    Type
DOCKED: USER                           _______ _______ _______ _____ _____    ______ ____
DOCKED: ROOT
DOCKED: ATOM      1  C   UNL     1      36.932  11.929 121.600 -0.56 -0.00    +0.000 C 
DOCKED: ENDROOT
DOCKED: BRANCH   1   2
DOCKED: ATOM      2  C   UNL     1      36.498  11.001 122.741 -0.68 -0.00    +0.000 C 
DOCKED: BRANCH   2   5
DOCKED: ATOM      3  O   UNL     1      37.064   7.280 123.145 -2.27 -0.00    +0.000 OA
DOCKED: ATOM      4  N   UNL     1      36.831   8.578 123.446 -0.65 -0.00    +0.000 N 
DOCKED: ATOM      5  C   UNL     1      36.738   9.556 122.407 -0.70 -0.00    +0.000 C 
DOCKED: ATOM      6  O   UNL     1      36.888   9.212 121.204 -2.69 -0.00    +0.000 OA
DOCKED: ATOM      7  H   UNL     1      36.726   8.852 124.385 -0.41 -0.00    +0.000 HD
DOCKED: ENDBRANCH   2   5
DOCKED: ENDBRANCH   1   2
DOCKED: BRANCH   1   8
DOCKED: ATOM      8  C   UNL     1      37.711  13.151 122.106 -0.49 -0.00    +0.000 C 
DOCKED: BRANCH   8   9
DOCKED: ATOM      9  C   UNL     1      36.767  14.200 122.628 -0.40 -0.00    +0.000 A 
DOCKED: ATOM     10  C   UNL     1      36.759  15.489 122.067 -0.25 -0.00    +0.000 A 
DOCKED: ATOM     11  C   UNL     1      35.903  16.472 122.574 -0.27 -0.00    +0.000 A 
DOCKED: ATOM     12  C   UNL     1      35.059  16.179 123.649 -0.43 -0.00    +0.000 A 
DOCKED: ATOM     13  C   UNL     1      35.071  14.904 124.221 -0.49 -0.00    +0.000 A 
DOCKED: ATOM     14  C   UNL     1      35.925  13.918 123.717 -0.50 -0.00    +0.000 A 
DOCKED: ATOM     15  CM  UNL     1      35.914  15.194 123.143 +0.00 -0.00    +0.000 AC
DOCKED: ENDBRANCH   8   9
DOCKED: ENDBRANCH   1   8
DOCKED: TORSDOF 4DOCKED: TER
DOCKED: ENDMDL
________________________________________________________________________________


	BEGINNING GENETIC ALGORITHM DOCKING 54 of 100
Run: 54 Seed: 1644362732 637622831 [ Run 54 of 100 GA/GALS ]
Beginning LAMARCKIAN GENETIC ALGORITHM (LGA), with a maximum of 2500000 energy evaluations.

Final-Value: -11.719


	FINAL GENETIC ALGORITHM DOCKED STATE
	_______________________________________________


Detailed state:  trans 36.976 13.228 123.118 quatxyzw -0.609730 0.112845 0.780063 0.083650 center 0.505 -0.158 0.114 ntor 4 -81.0143 -152.4357 121.0385 -79.3069
State:	 36.976  13.228 123.118  -0.612  0.113  0.783 170.403    -81.01 -152.44  121.04  -79.31

DOCKED: MODEL       54
DOCKED: USER    Run = 54
DOCKED: USER    DPF = ligand_dock.biased.dpf
DOCKED: USER  
DOCKED: USER    Estimated Free Energy of Binding    =  -10.16 kcal/mol  [=(1)+(2)+(3)-(4)]
DOCKED: USER    Estimated Inhibition Constant, Ki   =   35.98 nM (nanomolar)  [Temperature = 298.15 K]
DOCKED: USER    
DOCKED: USER    (1) Final Intermolecular Energy     =  -11.35 kcal/mol
DOCKED: USER        vdW + Hbond + desolv Energy     =  -11.35 kcal/mol
DOCKED: USER        Electrostatic Energy            =   +0.00 kcal/mol
DOCKED: USER    (2) Final Total Internal Energy     =   -0.37 kcal/mol
DOCKED: USER    (3) Torsional Free Energy           =   +1.19 kcal/mol
DOCKED: USER    (4) Unbound System's Energy  [=(2)] =   -0.37 kcal/mol
DOCKED: USER    
DOCKED: USER    
DOCKED: USER    NEWDPF move ligand.dum.pdbqt
DOCKED: USER    NEWDPF about 0.505000 -0.158000 0.114000
DOCKED: USER    NEWDPF tran0 36.976157 13.227656 123.117514
DOCKED: USER    NEWDPF quaternion0 -0.609730 0.112845 0.780063 0.083650
DOCKED: USER    NEWDPF axisangle0 -0.611875 0.113241 0.782806 170.403217
DOCKED: USER    NEWDPF quat0 -0.611875 0.113241 0.782806 170.403217
DOCKED: USER    NEWDPF dihe0 -81.01 -152.44 121.04 -79.31 
DOCKED: USER  keepresnum = 1 
DOCKED: USER  
DOCKED: REMARK  Name = 
DOCKED: REMARK  4 active torsions:
DOCKED: REMARK  status: ('A' for Active; 'I' for Inactive)
DOCKED: REMARK    1  A    between atoms: C_3  and  C_4
DOCKED: REMARK    2  A    between atoms: C_4  and  C_5
DOCKED: REMARK    3  A    between atoms: C_5  and  C_6
DOCKED: REMARK    4  A    between atoms: C_6  and  C_7
DOCKED: REMARK                            x       y       z     vdW  Elec       q    Type
DOCKED: REMARK                         _______ _______ _______ _____ _____    ______ ____
DOCKED: USER                              x       y       z     vdW  Elec       q    Type
DOCKED: USER                           _______ _______ _______ _____ _____    ______ ____
DOCKED: ROOT
DOCKED: ATOM      1  C   UNL     1      36.904  11.860 123.271 -0.68 -0.00    +0.000 C 
DOCKED: ENDROOT
DOCKED: BRANCH   1   2
DOCKED: ATOM      2  C   UNL     1      36.570  11.111 121.975 -0.62 -0.00    +0.000 C 
DOCKED: BRANCH   2   5
DOCKED: ATOM      3  O   UNL     1      37.362   7.719 123.456 -2.62 -0.00    +0.000 OA
DOCKED: ATOM      4  N   UNL     1      37.065   9.036 123.361 -0.61 -0.00    +0.000 N 
DOCKED: ATOM      5  C   UNL     1      36.881   9.646 122.082 -0.64 -0.00    +0.000 C 
DOCKED: ATOM      6  O   UNL     1      37.011   8.959 121.033 -2.70 -0.00    +0.000 OA
DOCKED: ATOM      7  H   UNL     1      36.974   9.577 124.178 -0.55 -0.00    +0.000 HD
DOCKED: ENDBRANCH   2   5
DOCKED: ENDBRANCH   1   2
DOCKED: BRANCH   1   8
DOCKED: ATOM      8  C   UNL     1      37.564  13.220 123.007 -0.55 -0.00    +0.000 C 
DOCKED: BRANCH   8   9
DOCKED: ATOM      9  C   UNL     1      36.575  14.336 123.216 -0.44 -0.00    +0.000 A 
DOCKED: ATOM     10  C   UNL     1      36.681  15.526 122.475 -0.30 -0.00    +0.000 A 
DOCKED: ATOM     11  C   UNL     1      35.782  16.573 122.694 -0.29 -0.00    +0.000 A 
DOCKED: ATOM     12  C   UNL     1      34.778  16.446 123.659 -0.43 -0.00    +0.000 A 
DOCKED: ATOM     13  C   UNL     1      34.675  15.272 124.410 -0.50 -0.00    +0.000 A 
DOCKED: ATOM     14  C   UNL     1      35.573  14.221 124.194 -0.42 -0.00    +0.000 A 
DOCKED: ATOM     15  CM  UNL     1      35.677  15.396 123.442 +0.00 -0.00    +0.000 AC
DOCKED: ENDBRANCH   8   9
DOCKED: ENDBRANCH   1   8
DOCKED: TORSDOF 4DOCKED: TER
DOCKED: ENDMDL
________________________________________________________________________________


	BEGINNING GENETIC ALGORITHM DOCKING 55 of 100
Run: 55 Seed: 753786813 894343697 [ Run 55 of 100 GA/GALS ]
Beginning LAMARCKIAN GENETIC ALGORITHM (LGA), with a maximum of 2500000 energy evaluations.

Final-Value: -11.623


	FINAL GENETIC ALGORITHM DOCKED STATE
	_______________________________________________


Detailed state:  trans 36.216 12.923 123.422 quatxyzw 0.929751 -0.170705 -0.160358 0.284091 center 0.505 -0.158 0.114 ntor 4 -155.8883 -180.0000 -175.3872 -78.0793
State:	 36.216  12.923 123.422   0.970 -0.178 -0.167 146.991   -155.89 -180.00 -175.39  -78.08

DOCKED: MODEL       55
DOCKED: USER    Run = 55
DOCKED: USER    DPF = ligand_dock.biased.dpf
DOCKED: USER  
DOCKED: USER    Estimated Free Energy of Binding    =  -10.04 kcal/mol  [=(1)+(2)+(3)-(4)]
DOCKED: USER    Estimated Inhibition Constant, Ki   =   43.74 nM (nanomolar)  [Temperature = 298.15 K]
DOCKED: USER    
DOCKED: USER    (1) Final Intermolecular Energy     =  -11.23 kcal/mol
DOCKED: USER        vdW + Hbond + desolv Energy     =  -11.23 kcal/mol
DOCKED: USER        Electrostatic Energy            =   +0.00 kcal/mol
DOCKED: USER    (2) Final Total Internal Energy     =   -0.39 kcal/mol
DOCKED: USER    (3) Torsional Free Energy           =   +1.19 kcal/mol
DOCKED: USER    (4) Unbound System's Energy  [=(2)] =   -0.39 kcal/mol
DOCKED: USER    
DOCKED: USER    
DOCKED: USER    NEWDPF move ligand.dum.pdbqt
DOCKED: USER    NEWDPF about 0.505000 -0.158000 0.114000
DOCKED: USER    NEWDPF tran0 36.216097 12.923008 123.422042
DOCKED: USER    NEWDPF quaternion0 0.929751 -0.170705 -0.160358 0.284091
DOCKED: USER    NEWDPF axisangle0 0.969706 -0.178041 -0.167249 146.990934
DOCKED: USER    NEWDPF quat0 0.969706 -0.178041 -0.167249 146.990934
DOCKED: USER    NEWDPF dihe0 -155.89 -180.00 -175.39 -78.08 
DOCKED: USER  keepresnum = 1 
DOCKED: USER  
DOCKED: REMARK  Name = 
DOCKED: REMARK  4 active torsions:
DOCKED: REMARK  status: ('A' for Active; 'I' for Inactive)
DOCKED: REMARK    1  A    between atoms: C_3  and  C_4
DOCKED: REMARK    2  A    between atoms: C_4  and  C_5
DOCKED: REMARK    3  A    between atoms: C_5  and  C_6
DOCKED: REMARK    4  A    between atoms: C_6  and  C_7
DOCKED: REMARK                            x       y       z     vdW  Elec       q    Type
DOCKED: REMARK                         _______ _______ _______ _____ _____    ______ ____
DOCKED: USER                              x       y       z     vdW  Elec       q    Type
DOCKED: USER                           _______ _______ _______ _____ _____    ______ ____
DOCKED: ROOT
DOCKED: ATOM      1  C   UNL     1      35.875  11.812 122.681 -0.56 -0.00    +0.000 C 
DOCKED: ENDROOT
DOCKED: BRANCH   1   2
DOCKED: ATOM      2  C   UNL     1      37.061  11.175 121.946 -0.55 -0.00    +0.000 C 
DOCKED: BRANCH   2   5
DOCKED: ATOM      3  O   UNL     1      37.075   7.705 123.457 -2.69 -0.00    +0.000 OA
DOCKED: ATOM      4  N   UNL     1      37.067   9.054 123.351 -0.61 -0.00    +0.000 N 
DOCKED: ATOM      5  C   UNL     1      37.051   9.678 122.065 -0.60 -0.00    +0.000 C 
DOCKED: ATOM      6  O   UNL     1      37.061   8.970 121.022 -2.71 -0.00    +0.000 OA
DOCKED: ATOM      7  H   UNL     1      37.071   9.609 124.163 -0.57 -0.00    +0.000 HD
DOCKED: ENDBRANCH   2   5
DOCKED: ENDBRANCH   1   2
DOCKED: BRANCH   1   8
DOCKED: ATOM      8  C   UNL     1      36.315  12.606 123.919 -0.61 -0.00    +0.000 C 
DOCKED: BRANCH   8   9
DOCKED: ATOM      9  C   UNL     1      36.251  14.085 123.648 -0.47 -0.00    +0.000 A 
DOCKED: ATOM     10  C   UNL     1      37.338  14.744 123.048 -0.40 -0.00    +0.000 A 
DOCKED: ATOM     11  C   UNL     1      37.290  16.123 122.826 -0.27 -0.00    +0.000 A 
DOCKED: ATOM     12  C   UNL     1      36.163  16.856 123.210 -0.28 -0.00    +0.000 A 
DOCKED: ATOM     13  C   UNL     1      35.083  16.211 123.820 -0.43 -0.00    +0.000 A 
DOCKED: ATOM     14  C   UNL     1      35.128  14.831 124.044 -0.50 -0.00    +0.000 A 
DOCKED: ATOM     15  CM  UNL     1      36.209  15.475 123.433 +0.00 -0.00    +0.000 AC
DOCKED: ENDBRANCH   8   9
DOCKED: ENDBRANCH   1   8
DOCKED: TORSDOF 4DOCKED: TER
DOCKED: ENDMDL
________________________________________________________________________________


	BEGINNING GENETIC ALGORITHM DOCKING 56 of 100
Run: 56 Seed: 5972735 1852778580 [ Run 56 of 100 GA/GALS ]
Beginning LAMARCKIAN GENETIC ALGORITHM (LGA), with a maximum of 2500000 energy evaluations.

Final-Value: -11.719


	FINAL GENETIC ALGORITHM DOCKED STATE
	_______________________________________________


Detailed state:  trans 36.928 13.302 123.245 quatxyzw -0.566931 0.124207 0.811400 0.069216 center 0.505 -0.158 0.114 ntor 4 -61.1309 -159.6801 -94.4004 -78.5890
State:	 36.928  13.302 123.245  -0.568  0.125  0.813 172.062    -61.13 -159.68  -94.40  -78.59

DOCKED: MODEL       56
DOCKED: USER    Run = 56
DOCKED: USER    DPF = ligand_dock.biased.dpf
DOCKED: USER  
DOCKED: USER    Estimated Free Energy of Binding    =  -10.15 kcal/mol  [=(1)+(2)+(3)-(4)]
DOCKED: USER    Estimated Inhibition Constant, Ki   =   36.16 nM (nanomolar)  [Temperature = 298.15 K]
DOCKED: USER    
DOCKED: USER    (1) Final Intermolecular Energy     =  -11.35 kcal/mol
DOCKED: USER        vdW + Hbond + desolv Energy     =  -11.35 kcal/mol
DOCKED: USER        Electrostatic Energy            =   +0.00 kcal/mol
DOCKED: USER    (2) Final Total Internal Energy     =   -0.37 kcal/mol
DOCKED: USER    (3) Torsional Free Energy           =   +1.19 kcal/mol
DOCKED: USER    (4) Unbound System's Energy  [=(2)] =   -0.37 kcal/mol
DOCKED: USER    
DOCKED: USER    
DOCKED: USER    NEWDPF move ligand.dum.pdbqt
DOCKED: USER    NEWDPF about 0.505000 -0.158000 0.114000
DOCKED: USER    NEWDPF tran0 36.927947 13.302115 123.244671
DOCKED: USER    NEWDPF quaternion0 -0.566931 0.124207 0.811400 0.069216
DOCKED: USER    NEWDPF axisangle0 -0.568294 0.124506 0.813351 172.062126
DOCKED: USER    NEWDPF quat0 -0.568294 0.124506 0.813351 172.062126
DOCKED: USER    NEWDPF dihe0 -61.13 -159.68 -94.40 -78.59 
DOCKED: USER  keepresnum = 1 
DOCKED: USER  
DOCKED: REMARK  Name = 
DOCKED: REMARK  4 active torsions:
DOCKED: REMARK  status: ('A' for Active; 'I' for Inactive)
DOCKED: REMARK    1  A    between atoms: C_3  and  C_4
DOCKED: REMARK    2  A    between atoms: C_4  and  C_5
DOCKED: REMARK    3  A    between atoms: C_5  and  C_6
DOCKED: REMARK    4  A    between atoms: C_6  and  C_7
DOCKED: REMARK                            x       y       z     vdW  Elec       q    Type
DOCKED: REMARK                         _______ _______ _______ _____ _____    ______ ____
DOCKED: USER                              x       y       z     vdW  Elec       q    Type
DOCKED: USER                           _______ _______ _______ _____ _____    ______ ____
DOCKED: ROOT
DOCKED: ATOM      1  C   UNL     1      36.802  11.939 123.408 -0.69 -0.00    +0.000 C 
DOCKED: ENDROOT
DOCKED: BRANCH   1   2
DOCKED: ATOM      2  C   UNL     1      36.303  11.212 122.154 -0.63 -0.00    +0.000 C 
DOCKED: BRANCH   2   5
DOCKED: ATOM      3  O   UNL     1      37.084   7.715 123.372 -2.65 -0.00    +0.000 OA
DOCKED: ATOM      4  N   UNL     1      36.709   9.015 123.371 -0.58 -0.00    +0.000 N 
DOCKED: ATOM      5  C   UNL     1      36.701   9.764 122.154 -0.68 -0.00    +0.000 C 
DOCKED: ATOM      6  O   UNL     1      37.061   9.218 121.076 -2.74 -0.00    +0.000 OA
DOCKED: ATOM      7  H   UNL     1      36.439   9.447 124.213 -0.39 -0.00    +0.000 HD
DOCKED: ENDBRANCH   2   5
DOCKED: ENDBRANCH   1   2
DOCKED: BRANCH   1   8
DOCKED: ATOM      8  C   UNL     1      37.500  13.265 123.076 -0.57 -0.00    +0.000 C 
DOCKED: BRANCH   8   9
DOCKED: ATOM      9  C   UNL     1      36.603  14.430 123.396 -0.44 -0.00    +0.000 A 
DOCKED: ATOM     10  C   UNL     1      35.283  14.211 123.827 -0.43 -0.00    +0.000 A 
DOCKED: ATOM     11  C   UNL     1      34.441  15.294 124.094 -0.53 -0.00    +0.000 A 
DOCKED: ATOM     12  C   UNL     1      34.905  16.602 123.922 -0.42 -0.00    +0.000 A 
DOCKED: ATOM     13  C   UNL     1      36.211  16.828 123.481 -0.28 -0.00    +0.000 A 
DOCKED: ATOM     14  C   UNL     1      37.057  15.747 123.213 -0.32 -0.00    +0.000 A 
DOCKED: ATOM     15  CM  UNL     1      35.750  15.519 123.655 +0.00 -0.00    +0.000 AC
DOCKED: ENDBRANCH   8   9
DOCKED: ENDBRANCH   1   8
DOCKED: TORSDOF 4DOCKED: TER
DOCKED: ENDMDL
________________________________________________________________________________


	BEGINNING GENETIC ALGORITHM DOCKING 57 of 100
Run: 57 Seed: 621283720 2062119121 [ Run 57 of 100 GA/GALS ]
Beginning LAMARCKIAN GENETIC ALGORITHM (LGA), with a maximum of 2500000 energy evaluations.

Final-Value: -11.427


	FINAL GENETIC ALGORITHM DOCKED STATE
	_______________________________________________


Detailed state:  trans 36.813 13.414 122.839 quatxyzw -0.370703 0.075773 0.908154 0.179149 center 0.505 -0.158 0.114 ntor 4 -35.4092 -149.9259 -124.0015 -74.2047
State:	 36.813  13.414 122.839  -0.377  0.077  0.923 159.360    -35.41 -149.93 -124.00  -74.20

DOCKED: MODEL       57
DOCKED: USER    Run = 57
DOCKED: USER    DPF = ligand_dock.biased.dpf
DOCKED: USER  
DOCKED: USER    Estimated Free Energy of Binding    =   -9.87 kcal/mol  [=(1)+(2)+(3)-(4)]
DOCKED: USER    Estimated Inhibition Constant, Ki   =   57.78 nM (nanomolar)  [Temperature = 298.15 K]
DOCKED: USER    
DOCKED: USER    (1) Final Intermolecular Energy     =  -11.07 kcal/mol
DOCKED: USER        vdW + Hbond + desolv Energy     =  -11.07 kcal/mol
DOCKED: USER        Electrostatic Energy            =   +0.00 kcal/mol
DOCKED: USER    (2) Final Total Internal Energy     =   -0.36 kcal/mol
DOCKED: USER    (3) Torsional Free Energy           =   +1.19 kcal/mol
DOCKED: USER    (4) Unbound System's Energy  [=(2)] =   -0.36 kcal/mol
DOCKED: USER    
DOCKED: USER    
DOCKED: USER    NEWDPF move ligand.dum.pdbqt
DOCKED: USER    NEWDPF about 0.505000 -0.158000 0.114000
DOCKED: USER    NEWDPF tran0 36.812969 13.414108 122.838600
DOCKED: USER    NEWDPF quaternion0 -0.370703 0.075773 0.908154 0.179149
DOCKED: USER    NEWDPF axisangle0 -0.376799 0.077019 0.923087 159.359571
DOCKED: USER    NEWDPF quat0 -0.376799 0.077019 0.923087 159.359571
DOCKED: USER    NEWDPF dihe0 -35.41 -149.93 -124.00 -74.20 
DOCKED: USER  keepresnum = 1 
DOCKED: USER  
DOCKED: REMARK  Name = 
DOCKED: REMARK  4 active torsions:
DOCKED: REMARK  status: ('A' for Active; 'I' for Inactive)
DOCKED: REMARK    1  A    between atoms: C_3  and  C_4
DOCKED: REMARK    2  A    between atoms: C_4  and  C_5
DOCKED: REMARK    3  A    between atoms: C_5  and  C_6
DOCKED: REMARK    4  A    between atoms: C_6  and  C_7
DOCKED: REMARK                            x       y       z     vdW  Elec       q    Type
DOCKED: REMARK                         _______ _______ _______ _____ _____    ______ ____
DOCKED: USER                              x       y       z     vdW  Elec       q    Type
DOCKED: USER                           _______ _______ _______ _____ _____    ______ ____
DOCKED: ROOT
DOCKED: ATOM      1  C   UNL     1      37.016  12.068 123.053 -0.65 -0.00    +0.000 C 
DOCKED: ENDROOT
DOCKED: BRANCH   1   2
DOCKED: ATOM      2  C   UNL     1      36.150  11.165 122.165 -0.62 -0.00    +0.000 C 
DOCKED: BRANCH   2   5
DOCKED: ATOM      3  O   UNL     1      37.056   7.712 123.421 -2.67 -0.00    +0.000 OA
DOCKED: ATOM      4  N   UNL     1      36.611   8.989 123.401 -0.57 -0.00    +0.000 N 
DOCKED: ATOM      5  C   UNL     1      36.627   9.742 122.185 -0.68 -0.00    +0.000 C 
DOCKED: ATOM      6  O   UNL     1      37.072   9.219 121.128 -2.73 -0.00    +0.000 OA
DOCKED: ATOM      7  H   UNL     1      36.274   9.403 124.227 -0.32 -0.00    +0.000 HD
DOCKED: ENDBRANCH   2   5
DOCKED: ENDBRANCH   1   2
DOCKED: BRANCH   1   8
DOCKED: ATOM      8  C   UNL     1      37.247  13.451 122.430 -0.52 -0.00    +0.000 C 
DOCKED: BRANCH   8   9
DOCKED: ATOM      9  C   UNL     1      36.477  14.504 123.180 -0.43 -0.00    +0.000 A 
DOCKED: ATOM     10  C   UNL     1      35.222  14.202 123.737 -0.38 -0.00    +0.000 A 
DOCKED: ATOM     11  C   UNL     1      34.493  15.190 124.406 -0.47 -0.00    +0.000 A 
DOCKED: ATOM     12  C   UNL     1      35.004  16.486 124.514 -0.42 -0.00    +0.000 A 
DOCKED: ATOM     13  C   UNL     1      36.245  16.798 123.951 -0.28 -0.00    +0.000 A 
DOCKED: ATOM     14  C   UNL     1      36.977  15.813 123.281 -0.31 -0.00    +0.000 A 
DOCKED: ATOM     15  CM  UNL     1      35.736  15.499 123.844 +0.00 -0.00    +0.000 AC
DOCKED: ENDBRANCH   8   9
DOCKED: ENDBRANCH   1   8
DOCKED: TORSDOF 4DOCKED: TER
DOCKED: ENDMDL
________________________________________________________________________________


	BEGINNING GENETIC ALGORITHM DOCKING 58 of 100
Run: 58 Seed: 671804045 818844696 [ Run 58 of 100 GA/GALS ]
Beginning LAMARCKIAN GENETIC ALGORITHM (LGA), with a maximum of 2500000 energy evaluations.

Final-Value: -11.312


	FINAL GENETIC ALGORITHM DOCKED STATE
	_______________________________________________


Detailed state:  trans 37.987 12.554 122.234 quatxyzw 0.546838 -0.598726 0.583897 -0.039491 center 0.505 -0.158 0.114 ntor 4 41.1943 -44.9356 163.0681 97.0670
State:	 37.987  12.554 122.234   0.547 -0.599  0.584 -175.474     41.19  -44.94  163.07   97.07

DOCKED: MODEL       58
DOCKED: USER    Run = 58
DOCKED: USER    DPF = ligand_dock.biased.dpf
DOCKED: USER  
DOCKED: USER    Estimated Free Energy of Binding    =   -9.74 kcal/mol  [=(1)+(2)+(3)-(4)]
DOCKED: USER    Estimated Inhibition Constant, Ki   =   72.92 nM (nanomolar)  [Temperature = 298.15 K]
DOCKED: USER    
DOCKED: USER    (1) Final Intermolecular Energy     =  -10.93 kcal/mol
DOCKED: USER        vdW + Hbond + desolv Energy     =  -10.93 kcal/mol
DOCKED: USER        Electrostatic Energy            =   +0.00 kcal/mol
DOCKED: USER    (2) Final Total Internal Energy     =   -0.38 kcal/mol
DOCKED: USER    (3) Torsional Free Energy           =   +1.19 kcal/mol
DOCKED: USER    (4) Unbound System's Energy  [=(2)] =   -0.38 kcal/mol
DOCKED: USER    
DOCKED: USER    
DOCKED: USER    NEWDPF move ligand.dum.pdbqt
DOCKED: USER    NEWDPF about 0.505000 -0.158000 0.114000
DOCKED: USER    NEWDPF tran0 37.986854 12.553577 122.233803
DOCKED: USER    NEWDPF quaternion0 0.546838 -0.598726 0.583897 -0.039491
DOCKED: USER    NEWDPF axisangle0 0.547265 -0.599193 0.584353 -175.473514
DOCKED: USER    NEWDPF quat0 0.547265 -0.599193 0.584353 -175.473514
DOCKED: USER    NEWDPF dihe0 41.19 -44.94 163.07 97.07 
DOCKED: USER  keepresnum = 1 
DOCKED: USER  
DOCKED: REMARK  Name = 
DOCKED: REMARK  4 active torsions:
DOCKED: REMARK  status: ('A' for Active; 'I' for Inactive)
DOCKED: REMARK    1  A    between atoms: C_3  and  C_4
DOCKED: REMARK    2  A    between atoms: C_4  and  C_5
DOCKED: REMARK    3  A    between atoms: C_5  and  C_6
DOCKED: REMARK    4  A    between atoms: C_6  and  C_7
DOCKED: REMARK                            x       y       z     vdW  Elec       q    Type
DOCKED: REMARK                         _______ _______ _______ _____ _____    ______ ____
DOCKED: USER                              x       y       z     vdW  Elec       q    Type
DOCKED: USER                           _______ _______ _______ _____ _____    ______ ____
DOCKED: ROOT
DOCKED: ATOM      1  C   UNL     1      36.942  12.024 121.508 -0.55 -0.00    +0.000 C 
DOCKED: ENDROOT
DOCKED: BRANCH   1   2
DOCKED: ATOM      2  C   UNL     1      36.076  11.039 122.303 -0.65 -0.00    +0.000 C 
DOCKED: BRANCH   2   5
DOCKED: ATOM      3  O   UNL     1      37.087   7.521 123.267 -2.48 -0.00    +0.000 OA
DOCKED: ATOM      4  N   UNL     1      36.602   8.782 123.352 -0.62 -0.00    +0.000 N 
DOCKED: ATOM      5  C   UNL     1      36.597   9.634 122.204 -0.69 -0.00    +0.000 C 
DOCKED: ATOM      6  O   UNL     1      37.061   9.217 121.109 -2.74 -0.00    +0.000 OA
DOCKED: ATOM      7  H   UNL     1      36.250   9.114 124.209 -0.32 -0.00    +0.000 HD
DOCKED: ENDBRANCH   2   5
DOCKED: ENDBRANCH   1   2
DOCKED: BRANCH   1   8
DOCKED: ATOM      8  C   UNL     1      37.669  13.026 122.415 -0.49 -0.00    +0.000 C 
DOCKED: BRANCH   8   9
DOCKED: ATOM      9  C   UNL     1      36.740  14.137 122.825 -0.43 -0.00    +0.000 A 
DOCKED: ATOM     10  C   UNL     1      36.889  15.425 122.281 -0.29 -0.00    +0.000 A 
DOCKED: ATOM     11  C   UNL     1      36.046  16.463 122.688 -0.28 -0.00    +0.000 A 
DOCKED: ATOM     12  C   UNL     1      35.056  16.227 123.647 -0.43 -0.00    +0.000 A 
DOCKED: ATOM     13  C   UNL     1      34.910  14.953 124.203 -0.49 -0.00    +0.000 A 
DOCKED: ATOM     14  C   UNL     1      35.752  13.912 123.799 -0.49 -0.00    +0.000 A 
DOCKED: ATOM     15  CM  UNL     1      35.899  15.186 123.241 +0.00 -0.00    +0.000 AC
DOCKED: ENDBRANCH   8   9
DOCKED: ENDBRANCH   1   8
DOCKED: TORSDOF 4DOCKED: TER
DOCKED: ENDMDL
________________________________________________________________________________


	BEGINNING GENETIC ALGORITHM DOCKING 59 of 100
Run: 59 Seed: 225976763 724162898 [ Run 59 of 100 GA/GALS ]
Beginning LAMARCKIAN GENETIC ALGORITHM (LGA), with a maximum of 2500000 energy evaluations.

Final-Value: -10.668


	FINAL GENETIC ALGORITHM DOCKED STATE
	_______________________________________________


Detailed state:  trans 36.505 11.547 122.216 quatxyzw -0.711941 0.682346 0.165615 0.010757 center 0.505 -0.158 0.114 ntor 4 0.7947 63.2530 -56.0674 -1.6025
State:	 36.505  11.547 122.216  -0.712  0.682  0.166 178.767      0.79   63.25  -56.07   -1.60

DOCKED: MODEL       59
DOCKED: USER    Run = 59
DOCKED: USER    DPF = ligand_dock.biased.dpf
DOCKED: USER  
DOCKED: USER    Estimated Free Energy of Binding    =   -9.02 kcal/mol  [=(1)+(2)+(3)-(4)]
DOCKED: USER    Estimated Inhibition Constant, Ki   =  244.60 nM (nanomolar)  [Temperature = 298.15 K]
DOCKED: USER    
DOCKED: USER    (1) Final Intermolecular Energy     =  -10.21 kcal/mol
DOCKED: USER        vdW + Hbond + desolv Energy     =  -10.21 kcal/mol
DOCKED: USER        Electrostatic Energy            =   +0.00 kcal/mol
DOCKED: USER    (2) Final Total Internal Energy     =   -0.45 kcal/mol
DOCKED: USER    (3) Torsional Free Energy           =   +1.19 kcal/mol
DOCKED: USER    (4) Unbound System's Energy  [=(2)] =   -0.45 kcal/mol
DOCKED: USER    
DOCKED: USER    
DOCKED: USER    NEWDPF move ligand.dum.pdbqt
DOCKED: USER    NEWDPF about 0.505000 -0.158000 0.114000
DOCKED: USER    NEWDPF tran0 36.505377 11.547412 122.216292
DOCKED: USER    NEWDPF quaternion0 -0.711941 0.682346 0.165615 0.010757
DOCKED: USER    NEWDPF axisangle0 -0.711982 0.682385 0.165625 178.767370
DOCKED: USER    NEWDPF quat0 -0.711982 0.682385 0.165625 178.767370
DOCKED: USER    NEWDPF dihe0 0.79 63.25 -56.07 -1.60 
DOCKED: USER  keepresnum = 1 
DOCKED: USER  
DOCKED: REMARK  Name = 
DOCKED: REMARK  4 active torsions:
DOCKED: REMARK  status: ('A' for Active; 'I' for Inactive)
DOCKED: REMARK    1  A    between atoms: C_3  and  C_4
DOCKED: REMARK    2  A    between atoms: C_4  and  C_5
DOCKED: REMARK    3  A    between atoms: C_5  and  C_6
DOCKED: REMARK    4  A    between atoms: C_6  and  C_7
DOCKED: REMARK                            x       y       z     vdW  Elec       q    Type
DOCKED: REMARK                         _______ _______ _______ _____ _____    ______ ____
DOCKED: USER                              x       y       z     vdW  Elec       q    Type
DOCKED: USER                           _______ _______ _______ _____ _____    ______ ____
DOCKED: ROOT
DOCKED: ATOM      1  C   UNL     1      35.194  11.220 122.487 -0.21 -0.00    +0.000 C 
DOCKED: ENDROOT
DOCKED: BRANCH   1   2
DOCKED: ATOM      2  C   UNL     1      34.873   9.736 122.274 -0.59 -0.00    +0.000 C 
DOCKED: BRANCH   2   5
DOCKED: ATOM      3  O   UNL     1      37.629   7.426 123.456 -2.10 -0.00    +0.000 OA
DOCKED: ATOM      4  N   UNL     1      36.501   8.173 123.450 -0.69 -0.00    +0.000 N 
DOCKED: ATOM      5  C   UNL     1      36.115   8.891 122.275 -0.72 -0.00    +0.000 C 
DOCKED: ATOM      6  O   UNL     1      36.836   8.842 121.242 -2.60 -0.00    +0.000 OA
DOCKED: ATOM      7  H   UNL     1      35.942   8.223 124.259 -0.14 -0.00    +0.000 HD
DOCKED: ENDBRANCH   2   5
DOCKED: ENDBRANCH   1   2
DOCKED: BRANCH   1   8
DOCKED: ATOM      8  C   UNL     1      36.681  11.460 122.781 -0.68 -0.00    +0.000 C 
DOCKED: BRANCH   8   9
DOCKED: ATOM      9  C   UNL     1      36.945  12.923 123.013 -0.54 -0.00    +0.000 A 
DOCKED: ATOM     10  C   UNL     1      35.971  13.731 123.627 -0.50 -0.00    +0.000 A 
DOCKED: ATOM     11  C   UNL     1      36.205  15.096 123.813 -0.41 -0.00    +0.000 A 
DOCKED: ATOM     12  C   UNL     1      37.405  15.668 123.380 -0.31 -0.00    +0.000 A 
DOCKED: ATOM     13  C   UNL     1      38.372  14.875 122.756 -0.36 -0.00    +0.000 A 
DOCKED: ATOM     14  C   UNL     1      38.142  13.508 122.568 -0.36 -0.00    +0.000 A 
DOCKED: ATOM     15  CM  UNL     1      37.173  14.300 123.193 +0.00 -0.00    +0.000 AC
DOCKED: ENDBRANCH   8   9
DOCKED: ENDBRANCH   1   8
DOCKED: TORSDOF 4DOCKED: TER
DOCKED: ENDMDL
________________________________________________________________________________


	BEGINNING GENETIC ALGORITHM DOCKING 60 of 100
Run: 60 Seed: 442554783 416771325 [ Run 60 of 100 GA/GALS ]
Beginning LAMARCKIAN GENETIC ALGORITHM (LGA), with a maximum of 2500000 energy evaluations.

Final-Value: -11.646


	FINAL GENETIC ALGORITHM DOCKED STATE
	_______________________________________________


Detailed state:  trans 36.519 13.014 123.331 quatxyzw 0.856276 -0.187585 -0.466504 0.118227 center 0.505 -0.158 0.114 ntor 4 -127.1166 -170.1965 147.1574 -74.4578
State:	 36.519  13.014 123.331   0.862 -0.189 -0.470 166.420   -127.12 -170.20  147.16  -74.46

DOCKED: MODEL       60
DOCKED: USER    Run = 60
DOCKED: USER    DPF = ligand_dock.biased.dpf
DOCKED: USER  
DOCKED: USER    Estimated Free Energy of Binding    =  -10.07 kcal/mol  [=(1)+(2)+(3)-(4)]
DOCKED: USER    Estimated Inhibition Constant, Ki   =   41.27 nM (nanomolar)  [Temperature = 298.15 K]
DOCKED: USER    
DOCKED: USER    (1) Final Intermolecular Energy     =  -11.27 kcal/mol
DOCKED: USER        vdW + Hbond + desolv Energy     =  -11.27 kcal/mol
DOCKED: USER        Electrostatic Energy            =   +0.00 kcal/mol
DOCKED: USER    (2) Final Total Internal Energy     =   -0.38 kcal/mol
DOCKED: USER    (3) Torsional Free Energy           =   +1.19 kcal/mol
DOCKED: USER    (4) Unbound System's Energy  [=(2)] =   -0.38 kcal/mol
DOCKED: USER    
DOCKED: USER    
DOCKED: USER    NEWDPF move ligand.dum.pdbqt
DOCKED: USER    NEWDPF about 0.505000 -0.158000 0.114000
DOCKED: USER    NEWDPF tran0 36.519401 13.013913 123.330648
DOCKED: USER    NEWDPF quaternion0 0.856276 -0.187585 -0.466504 0.118227
DOCKED: USER    NEWDPF axisangle0 0.862324 -0.188910 -0.469799 166.420480
DOCKED: USER    NEWDPF quat0 0.862324 -0.188910 -0.469799 166.420480
DOCKED: USER    NEWDPF dihe0 -127.12 -170.20 147.16 -74.46 
DOCKED: USER  keepresnum = 1 
DOCKED: USER  
DOCKED: REMARK  Name = 
DOCKED: REMARK  4 active torsions:
DOCKED: REMARK  status: ('A' for Active; 'I' for Inactive)
DOCKED: REMARK    1  A    between atoms: C_3  and  C_4
DOCKED: REMARK    2  A    between atoms: C_4  and  C_5
DOCKED: REMARK    3  A    between atoms: C_5  and  C_6
DOCKED: REMARK    4  A    between atoms: C_6  and  C_7
DOCKED: REMARK                            x       y       z     vdW  Elec       q    Type
DOCKED: REMARK                         _______ _______ _______ _____ _____    ______ ____
DOCKED: USER                              x       y       z     vdW  Elec       q    Type
DOCKED: USER                           _______ _______ _______ _____ _____    ______ ____
DOCKED: ROOT
DOCKED: ATOM      1  C   UNL     1      36.050  11.741 123.088 -0.68 -0.00    +0.000 C 
DOCKED: ENDROOT
DOCKED: BRANCH   1   2
DOCKED: ATOM      2  C   UNL     1      36.654  11.090 121.838 -0.59 -0.00    +0.000 C 
DOCKED: BRANCH   2   5
DOCKED: ATOM      3  O   UNL     1      37.205   7.712 123.456 -2.66 -0.00    +0.000 OA
DOCKED: ATOM      4  N   UNL     1      37.037   9.046 123.306 -0.62 -0.00    +0.000 N 
DOCKED: ATOM      5  C   UNL     1      36.822   9.607 122.008 -0.65 -0.00    +0.000 C 
DOCKED: ATOM      6  O   UNL     1      36.803   8.858 120.994 -2.64 -0.00    +0.000 OA
DOCKED: ATOM      7  H   UNL     1      37.063   9.635 124.094 -0.55 -0.00    +0.000 HD
DOCKED: ENDBRANCH   2   5
DOCKED: ENDBRANCH   1   2
DOCKED: BRANCH   1   8
DOCKED: ATOM      8  C   UNL     1      36.963  12.822 123.683 -0.55 -0.00    +0.000 C 
DOCKED: BRANCH   8   9
DOCKED: ATOM      9  C   UNL     1      36.387  14.191 123.442 -0.47 -0.00    +0.000 A 
DOCKED: ATOM     10  C   UNL     1      37.138  15.169 122.767 -0.35 -0.00    +0.000 A 
DOCKED: ATOM     11  C   UNL     1      36.613  16.450 122.572 -0.25 -0.00    +0.000 A 
DOCKED: ATOM     12  C   UNL     1      35.342  16.768 123.058 -0.33 -0.00    +0.000 A 
DOCKED: ATOM     13  C   UNL     1      34.594  15.806 123.742 -0.49 -0.00    +0.000 A 
DOCKED: ATOM     14  C   UNL     1      35.115  14.523 123.939 -0.44 -0.00    +0.000 A 
DOCKED: ATOM     15  CM  UNL     1      35.865  15.485 123.254 +0.00 -0.00    +0.000 AC
DOCKED: ENDBRANCH   8   9
DOCKED: ENDBRANCH   1   8
DOCKED: TORSDOF 4DOCKED: TER
DOCKED: ENDMDL
________________________________________________________________________________


	BEGINNING GENETIC ALGORITHM DOCKING 61 of 100
Run: 61 Seed: 57372218 1445011794 [ Run 61 of 100 GA/GALS ]
Beginning LAMARCKIAN GENETIC ALGORITHM (LGA), with a maximum of 2500000 energy evaluations.

Final-Value: -11.633


	FINAL GENETIC ALGORITHM DOCKED STATE
	_______________________________________________


Detailed state:  trans 36.522 12.849 123.409 quatxyzw -0.832036 0.211961 0.488341 -0.155923 center 0.505 -0.158 0.114 ntor 4 -109.8327 175.2900 137.6047 -76.8588
State:	 36.522  12.849 123.409  -0.842  0.215  0.494 -162.059   -109.83  175.29  137.60  -76.86

DOCKED: MODEL       61
DOCKED: USER    Run = 61
DOCKED: USER    DPF = ligand_dock.biased.dpf
DOCKED: USER  
DOCKED: USER    Estimated Free Energy of Binding    =  -10.05 kcal/mol  [=(1)+(2)+(3)-(4)]
DOCKED: USER    Estimated Inhibition Constant, Ki   =   43.00 nM (nanomolar)  [Temperature = 298.15 K]
DOCKED: USER    
DOCKED: USER    (1) Final Intermolecular Energy     =  -11.24 kcal/mol
DOCKED: USER        vdW + Hbond + desolv Energy     =  -11.24 kcal/mol
DOCKED: USER        Electrostatic Energy            =   +0.00 kcal/mol
DOCKED: USER    (2) Final Total Internal Energy     =   -0.39 kcal/mol
DOCKED: USER    (3) Torsional Free Energy           =   +1.19 kcal/mol
DOCKED: USER    (4) Unbound System's Energy  [=(2)] =   -0.39 kcal/mol
DOCKED: USER    
DOCKED: USER    
DOCKED: USER    NEWDPF move ligand.dum.pdbqt
DOCKED: USER    NEWDPF about 0.505000 -0.158000 0.114000
DOCKED: USER    NEWDPF tran0 36.521532 12.848555 123.409395
DOCKED: USER    NEWDPF quaternion0 -0.832036 0.211961 0.488341 -0.155923
DOCKED: USER    NEWDPF axisangle0 -0.842339 0.214586 0.494387 -162.059341
DOCKED: USER    NEWDPF quat0 -0.842339 0.214586 0.494387 -162.059341
DOCKED: USER    NEWDPF dihe0 -109.83 175.29 137.60 -76.86 
DOCKED: USER  keepresnum = 1 
DOCKED: USER  
DOCKED: REMARK  Name = 
DOCKED: REMARK  4 active torsions:
DOCKED: REMARK  status: ('A' for Active; 'I' for Inactive)
DOCKED: REMARK    1  A    between atoms: C_3  and  C_4
DOCKED: REMARK    2  A    between atoms: C_4  and  C_5
DOCKED: REMARK    3  A    between atoms: C_5  and  C_6
DOCKED: REMARK    4  A    between atoms: C_6  and  C_7
DOCKED: REMARK                            x       y       z     vdW  Elec       q    Type
DOCKED: REMARK                         _______ _______ _______ _____ _____    ______ ____
DOCKED: USER                              x       y       z     vdW  Elec       q    Type
DOCKED: USER                           _______ _______ _______ _____ _____    ______ ____
DOCKED: ROOT
DOCKED: ATOM      1  C   UNL     1      35.938  11.633 123.125 -0.68 -0.00    +0.000 C 
DOCKED: ENDROOT
DOCKED: BRANCH   1   2
DOCKED: ATOM      2  C   UNL     1      36.424  11.009 121.811 -0.52 -0.00    +0.000 C 
DOCKED: BRANCH   2   5
DOCKED: ATOM      3  O   UNL     1      37.305   7.716 123.456 -2.64 -0.00    +0.000 OA
DOCKED: ATOM      4  N   UNL     1      36.940   9.009 123.297 -0.62 -0.00    +0.000 N 
DOCKED: ATOM      5  C   UNL     1      36.811   9.569 121.988 -0.66 -0.00    +0.000 C 
DOCKED: ATOM      6  O   UNL     1      37.054   8.860 120.974 -2.70 -0.00    +0.000 OA
DOCKED: ATOM      7  H   UNL     1      36.761   9.568 124.087 -0.49 -0.00    +0.000 HD
DOCKED: ENDBRANCH   2   5
DOCKED: ENDBRANCH   1   2
DOCKED: BRANCH   1   8
DOCKED: ATOM      8  C   UNL     1      36.965  12.602 123.726 -0.58 -0.00    +0.000 C 
DOCKED: BRANCH   8   9
DOCKED: ATOM      9  C   UNL     1      36.519  14.027 123.538 -0.47 -0.00    +0.000 A 
DOCKED: ATOM     10  C   UNL     1      37.418  14.994 123.056 -0.37 -0.00    +0.000 A 
DOCKED: ATOM     11  C   UNL     1      37.012  16.324 122.912 -0.26 -0.00    +0.000 A 
DOCKED: ATOM     12  C   UNL     1      35.711  16.701 123.258 -0.32 -0.00    +0.000 A 
DOCKED: ATOM     13  C   UNL     1      34.815  15.749 123.752 -0.48 -0.00    +0.000 A 
DOCKED: ATOM     14  C   UNL     1      35.218  14.417 123.897 -0.46 -0.00    +0.000 A 
DOCKED: ATOM     15  CM  UNL     1      36.116  15.369 123.403 +0.00 -0.00    +0.000 AC
DOCKED: ENDBRANCH   8   9
DOCKED: ENDBRANCH   1   8
DOCKED: TORSDOF 4DOCKED: TER
DOCKED: ENDMDL
________________________________________________________________________________


	BEGINNING GENETIC ALGORITHM DOCKING 62 of 100
Run: 62 Seed: 914758383 74654184 [ Run 62 of 100 GA/GALS ]
Beginning LAMARCKIAN GENETIC ALGORITHM (LGA), with a maximum of 2500000 energy evaluations.

Final-Value: -11.409


	FINAL GENETIC ALGORITHM DOCKED STATE
	_______________________________________________


Detailed state:  trans 35.794 12.435 124.037 quatxyzw -0.404582 -0.361616 0.722175 0.428964 center 0.505 -0.158 0.114 ntor 4 -102.6083 -65.1212 -91.5271 91.5443
State:	 35.794  12.435 124.037  -0.448 -0.400  0.799 129.196   -102.61  -65.12  -91.53   91.54

DOCKED: MODEL       62
DOCKED: USER    Run = 62
DOCKED: USER    DPF = ligand_dock.biased.dpf
DOCKED: USER  
DOCKED: USER    Estimated Free Energy of Binding    =   -9.84 kcal/mol  [=(1)+(2)+(3)-(4)]
DOCKED: USER    Estimated Inhibition Constant, Ki   =   61.13 nM (nanomolar)  [Temperature = 298.15 K]
DOCKED: USER    
DOCKED: USER    (1) Final Intermolecular Energy     =  -11.03 kcal/mol
DOCKED: USER        vdW + Hbond + desolv Energy     =  -11.03 kcal/mol
DOCKED: USER        Electrostatic Energy            =   +0.00 kcal/mol
DOCKED: USER    (2) Final Total Internal Energy     =   -0.37 kcal/mol
DOCKED: USER    (3) Torsional Free Energy           =   +1.19 kcal/mol
DOCKED: USER    (4) Unbound System's Energy  [=(2)] =   -0.37 kcal/mol
DOCKED: USER    
DOCKED: USER    
DOCKED: USER    NEWDPF move ligand.dum.pdbqt
DOCKED: USER    NEWDPF about 0.505000 -0.158000 0.114000
DOCKED: USER    NEWDPF tran0 35.794201 12.434521 124.036861
DOCKED: USER    NEWDPF quaternion0 -0.404582 -0.361616 0.722175 0.428964
DOCKED: USER    NEWDPF axisangle0 -0.447883 -0.400319 0.799466 129.196300
DOCKED: USER    NEWDPF quat0 -0.447883 -0.400319 0.799466 129.196300
DOCKED: USER    NEWDPF dihe0 -102.61 -65.12 -91.53 91.54 
DOCKED: USER  keepresnum = 1 
DOCKED: USER  
DOCKED: REMARK  Name = 
DOCKED: REMARK  4 active torsions:
DOCKED: REMARK  status: ('A' for Active; 'I' for Inactive)
DOCKED: REMARK    1  A    between atoms: C_3  and  C_4
DOCKED: REMARK    2  A    between atoms: C_4  and  C_5
DOCKED: REMARK    3  A    between atoms: C_5  and  C_6
DOCKED: REMARK    4  A    between atoms: C_6  and  C_7
DOCKED: REMARK                            x       y       z     vdW  Elec       q    Type
DOCKED: REMARK                         _______ _______ _______ _____ _____    ______ ____
DOCKED: USER                              x       y       z     vdW  Elec       q    Type
DOCKED: USER                           _______ _______ _______ _____ _____    ______ ____
DOCKED: ROOT
DOCKED: ATOM      1  C   UNL     1      36.958  11.850 123.585 -0.68 -0.00    +0.000 C 
DOCKED: ENDROOT
DOCKED: BRANCH   1   2
DOCKED: ATOM      2  C   UNL     1      36.841  11.256 122.176 -0.60 -0.00    +0.000 C 
DOCKED: BRANCH   2   5
DOCKED: ATOM      3  O   UNL     1      37.081   7.699 123.450 -2.68 -0.00    +0.000 OA
DOCKED: ATOM      4  N   UNL     1      37.053   9.052 123.430 -0.59 -0.00    +0.000 N 
DOCKED: ATOM      5  C   UNL     1      36.853   9.754 122.201 -0.64 -0.00    +0.000 C 
DOCKED: ATOM      6  O   UNL     1      36.715   9.112 121.125 -2.62 -0.00    +0.000 OA
DOCKED: ATOM      7  H   UNL     1      37.173   9.556 124.267 -0.58 -0.00    +0.000 HD
DOCKED: ENDBRANCH   2   5
DOCKED: ENDBRANCH   1   2
DOCKED: BRANCH   1   8
DOCKED: ATOM      8  C   UNL     1      35.943  12.975 123.830 -0.60 -0.00    +0.000 C 
DOCKED: BRANCH   8   9
DOCKED: ATOM      9  C   UNL     1      36.486  14.291 123.340 -0.45 -0.00    +0.000 A 
DOCKED: ATOM     10  C   UNL     1      37.779  14.366 122.794 -0.41 -0.00    +0.000 A 
DOCKED: ATOM     11  C   UNL     1      38.293  15.594 122.369 -0.28 -0.00    +0.000 A 
DOCKED: ATOM     12  C   UNL     1      37.527  16.757 122.495 -0.19 -0.00    +0.000 A 
DOCKED: ATOM     13  C   UNL     1      36.246  16.693 123.050 -0.27 -0.00    +0.000 A 
DOCKED: ATOM     14  C   UNL     1      35.728  15.466 123.476 -0.42 -0.00    +0.000 A 
DOCKED: ATOM     15  CM  UNL     1      37.010  15.528 122.921 +0.00 -0.00    +0.000 AC
DOCKED: ENDBRANCH   8   9
DOCKED: ENDBRANCH   1   8
DOCKED: TORSDOF 4DOCKED: TER
DOCKED: ENDMDL
________________________________________________________________________________


	BEGINNING GENETIC ALGORITHM DOCKING 63 of 100
Run: 63 Seed: 1844011194 90442080 [ Run 63 of 100 GA/GALS ]
Beginning LAMARCKIAN GENETIC ALGORITHM (LGA), with a maximum of 2500000 energy evaluations.

Final-Value: -10.488


	FINAL GENETIC ALGORITHM DOCKED STATE
	_______________________________________________


Detailed state:  trans 37.343 13.209 121.791 quatxyzw -0.715211 0.236588 -0.656580 -0.037440 center 0.505 -0.158 0.114 ntor 4 76.0054 -115.7630 173.8345 -70.8896
State:	 37.343  13.209 121.791  -0.716  0.237 -0.657 -175.709     76.01 -115.76  173.83  -70.89

DOCKED: MODEL       63
DOCKED: USER    Run = 63
DOCKED: USER    DPF = ligand_dock.biased.dpf
DOCKED: USER  
DOCKED: USER    Estimated Free Energy of Binding    =   -8.95 kcal/mol  [=(1)+(2)+(3)-(4)]
DOCKED: USER    Estimated Inhibition Constant, Ki   =  275.87 nM (nanomolar)  [Temperature = 298.15 K]
DOCKED: USER    
DOCKED: USER    (1) Final Intermolecular Energy     =  -10.14 kcal/mol
DOCKED: USER        vdW + Hbond + desolv Energy     =  -10.14 kcal/mol
DOCKED: USER        Electrostatic Energy            =   +0.00 kcal/mol
DOCKED: USER    (2) Final Total Internal Energy     =   -0.35 kcal/mol
DOCKED: USER    (3) Torsional Free Energy           =   +1.19 kcal/mol
DOCKED: USER    (4) Unbound System's Energy  [=(2)] =   -0.35 kcal/mol
DOCKED: USER    
DOCKED: USER    
DOCKED: USER    NEWDPF move ligand.dum.pdbqt
DOCKED: USER    NEWDPF about 0.505000 -0.158000 0.114000
DOCKED: USER    NEWDPF tran0 37.342614 13.209373 121.790695
DOCKED: USER    NEWDPF quaternion0 -0.715211 0.236588 -0.656580 -0.037440
DOCKED: USER    NEWDPF axisangle0 -0.715713 0.236754 -0.657041 -175.708660
DOCKED: USER    NEWDPF quat0 -0.715713 0.236754 -0.657041 -175.708660
DOCKED: USER    NEWDPF dihe0 76.01 -115.76 173.83 -70.89 
DOCKED: USER  keepresnum = 1 
DOCKED: USER  
DOCKED: REMARK  Name = 
DOCKED: REMARK  4 active torsions:
DOCKED: REMARK  status: ('A' for Active; 'I' for Inactive)
DOCKED: REMARK    1  A    between atoms: C_3  and  C_4
DOCKED: REMARK    2  A    between atoms: C_4  and  C_5
DOCKED: REMARK    3  A    between atoms: C_5  and  C_6
DOCKED: REMARK    4  A    between atoms: C_6  and  C_7
DOCKED: REMARK                            x       y       z     vdW  Elec       q    Type
DOCKED: REMARK                         _______ _______ _______ _____ _____    ______ ____
DOCKED: USER                              x       y       z     vdW  Elec       q    Type
DOCKED: USER                           _______ _______ _______ _____ _____    ______ ____
DOCKED: ROOT
DOCKED: ATOM      1  C   UNL     1      36.960  11.914 121.518 -0.56 -0.00    +0.000 C 
DOCKED: ENDROOT
DOCKED: BRANCH   1   2
DOCKED: ATOM      2  C   UNL     1      36.865  11.025 122.764 -0.64 -0.00    +0.000 C 
DOCKED: BRANCH   2   5
DOCKED: ATOM      3  O   UNL     1      37.066   7.262 123.129 -2.25 -0.00    +0.000 OA
DOCKED: ATOM      4  N   UNL     1      36.985   8.576 123.444 -0.66 -0.00    +0.000 N 
DOCKED: ATOM      5  C   UNL     1      36.936   9.566 122.414 -0.64 -0.00    +0.000 C 
DOCKED: ATOM      6  O   UNL     1      36.983   9.217 121.204 -2.71 -0.00    +0.000 OA
DOCKED: ATOM      7  H   UNL     1      36.960   8.852 124.389 -0.50 -0.00    +0.000 HD
DOCKED: ENDBRANCH   2   5
DOCKED: ENDBRANCH   1   2
DOCKED: BRANCH   1   8
DOCKED: ATOM      8  C   UNL     1      36.779  13.402 121.847 -0.40 -0.00    +0.000 C 
DOCKED: BRANCH   8   9
DOCKED: ATOM      9  C   UNL     1      38.067  14.150 121.632 -0.37 -0.00    +0.000 A 
DOCKED: ATOM     10  C   UNL     1      38.927  14.409 122.714 -0.37 -0.00    +0.000 A 
DOCKED: ATOM     11  C   UNL     1      40.107  15.132 122.519 -0.37 -0.00    +0.000 A 
DOCKED: ATOM     12  C   UNL     1      40.433  15.611 121.247 -0.25 -0.00    +0.000 A 
DOCKED: ATOM     13  C   UNL     1      39.577  15.371 120.169 -0.17 -0.00    +0.000 A 
DOCKED: ATOM     14  C   UNL     1      38.395  14.647 120.360 -0.26 -0.00    +0.000 A 
DOCKED: ATOM     15  CM  UNL     1      39.251  14.887 121.440 +0.00 -0.00    +0.000 AC
DOCKED: ENDBRANCH   8   9
DOCKED: ENDBRANCH   1   8
DOCKED: TORSDOF 4DOCKED: TER
DOCKED: ENDMDL
________________________________________________________________________________


	BEGINNING GENETIC ALGORITHM DOCKING 64 of 100
Run: 64 Seed: 1763101456 1519418647 [ Run 64 of 100 GA/GALS ]
Beginning LAMARCKIAN GENETIC ALGORITHM (LGA), with a maximum of 2500000 energy evaluations.

Final-Value: -11.662


	FINAL GENETIC ALGORITHM DOCKED STATE
	_______________________________________________


Detailed state:  trans 36.421 12.919 123.460 quatxyzw -0.866424 0.178955 0.442481 -0.146614 center 0.505 -0.158 0.114 ntor 4 -128.7248 -173.7782 162.9744 -79.9064
State:	 36.421  12.919 123.460  -0.876  0.181  0.447 -163.138   -128.72 -173.78  162.97  -79.91

DOCKED: MODEL       64
DOCKED: USER    Run = 64
DOCKED: USER    DPF = ligand_dock.biased.dpf
DOCKED: USER  
DOCKED: USER    Estimated Free Energy of Binding    =  -10.08 kcal/mol  [=(1)+(2)+(3)-(4)]
DOCKED: USER    Estimated Inhibition Constant, Ki   =   40.79 nM (nanomolar)  [Temperature = 298.15 K]
DOCKED: USER    
DOCKED: USER    (1) Final Intermolecular Energy     =  -11.27 kcal/mol
DOCKED: USER        vdW + Hbond + desolv Energy     =  -11.27 kcal/mol
DOCKED: USER        Electrostatic Energy            =   +0.00 kcal/mol
DOCKED: USER    (2) Final Total Internal Energy     =   -0.39 kcal/mol
DOCKED: USER    (3) Torsional Free Energy           =   +1.19 kcal/mol
DOCKED: USER    (4) Unbound System's Energy  [=(2)] =   -0.39 kcal/mol
DOCKED: USER    
DOCKED: USER    
DOCKED: USER    NEWDPF move ligand.dum.pdbqt
DOCKED: USER    NEWDPF about 0.505000 -0.158000 0.114000
DOCKED: USER    NEWDPF tran0 36.421109 12.918639 123.459684
DOCKED: USER    NEWDPF quaternion0 -0.866424 0.178955 0.442481 -0.146614
DOCKED: USER    NEWDPF axisangle0 -0.875889 0.180910 0.447314 -163.138488
DOCKED: USER    NEWDPF quat0 -0.875889 0.180910 0.447314 -163.138488
DOCKED: USER    NEWDPF dihe0 -128.72 -173.78 162.97 -79.91 
DOCKED: USER  keepresnum = 1 
DOCKED: USER  
DOCKED: REMARK  Name = 
DOCKED: REMARK  4 active torsions:
DOCKED: REMARK  status: ('A' for Active; 'I' for Inactive)
DOCKED: REMARK    1  A    between atoms: C_3  and  C_4
DOCKED: REMARK    2  A    between atoms: C_4  and  C_5
DOCKED: REMARK    3  A    between atoms: C_5  and  C_6
DOCKED: REMARK    4  A    between atoms: C_6  and  C_7
DOCKED: REMARK                            x       y       z     vdW  Elec       q    Type
DOCKED: REMARK                         _______ _______ _______ _____ _____    ______ ____
DOCKED: USER                              x       y       z     vdW  Elec       q    Type
DOCKED: USER                           _______ _______ _______ _____ _____    ______ ____
DOCKED: ROOT
DOCKED: ATOM      1  C   UNL     1      35.953  11.665 123.130 -0.68 -0.00    +0.000 C 
DOCKED: ENDROOT
DOCKED: BRANCH   1   2
DOCKED: ATOM      2  C   UNL     1      36.627  11.061 121.892 -0.60 -0.00    +0.000 C 
DOCKED: BRANCH   2   5
DOCKED: ATOM      3  O   UNL     1      37.277   7.679 123.464 -2.61 -0.00    +0.000 OA
DOCKED: ATOM      4  N   UNL     1      37.065   9.009 123.332 -0.62 -0.00    +0.000 N 
DOCKED: ATOM      5  C   UNL     1      36.844   9.583 122.041 -0.65 -0.00    +0.000 C 
DOCKED: ATOM      6  O   UNL     1      36.860   8.849 121.016 -2.65 -0.00    +0.000 OA
DOCKED: ATOM      7  H   UNL     1      37.064   9.586 124.130 -0.56 -0.00    +0.000 HD
DOCKED: ENDBRANCH   2   5
DOCKED: ENDBRANCH   1   2
DOCKED: BRANCH   1   8
DOCKED: ATOM      8  C   UNL     1      36.839  12.705 123.830 -0.56 -0.00    +0.000 C 
DOCKED: BRANCH   8   9
DOCKED: ATOM      9  C   UNL     1      36.373  14.099 123.507 -0.47 -0.00    +0.000 A 
DOCKED: ATOM     10  C   UNL     1      37.123  14.915 122.642 -0.36 -0.00    +0.000 A 
DOCKED: ATOM     11  C   UNL     1      36.706  16.221 122.368 -0.24 -0.00    +0.000 A 
DOCKED: ATOM     12  C   UNL     1      35.545  16.725 122.963 -0.31 -0.00    +0.000 A 
DOCKED: ATOM     13  C   UNL     1      34.802  15.925 123.835 -0.48 -0.00    +0.000 A 
DOCKED: ATOM     14  C   UNL     1      35.216  14.618 124.111 -0.46 -0.00    +0.000 A 
DOCKED: ATOM     15  CM  UNL     1      35.961  15.417 123.238 +0.00 -0.00    +0.000 AC
DOCKED: ENDBRANCH   8   9
DOCKED: ENDBRANCH   1   8
DOCKED: TORSDOF 4DOCKED: TER
DOCKED: ENDMDL
________________________________________________________________________________


	BEGINNING GENETIC ALGORITHM DOCKING 65 of 100
Run: 65 Seed: 2067698086 310527601 [ Run 65 of 100 GA/GALS ]
Beginning LAMARCKIAN GENETIC ALGORITHM (LGA), with a maximum of 2500000 energy evaluations.

Final-Value: -10.850


	FINAL GENETIC ALGORITHM DOCKED STATE
	_______________________________________________


Detailed state:  trans 35.667 12.901 122.571 quatxyzw -0.962927 0.073003 0.165278 0.200313 center 0.505 -0.158 0.114 ntor 4 169.2009 -96.8120 161.3595 -161.4382
State:	 35.667  12.901 122.571  -0.983  0.075  0.169 156.889    169.20  -96.81  161.36 -161.44

DOCKED: MODEL       65
DOCKED: USER    Run = 65
DOCKED: USER    DPF = ligand_dock.biased.dpf
DOCKED: USER  
DOCKED: USER    Estimated Free Energy of Binding    =   -9.19 kcal/mol  [=(1)+(2)+(3)-(4)]
DOCKED: USER    Estimated Inhibition Constant, Ki   =  184.61 nM (nanomolar)  [Temperature = 298.15 K]
DOCKED: USER    
DOCKED: USER    (1) Final Intermolecular Energy     =  -10.38 kcal/mol
DOCKED: USER        vdW + Hbond + desolv Energy     =  -10.38 kcal/mol
DOCKED: USER        Electrostatic Energy            =   +0.00 kcal/mol
DOCKED: USER    (2) Final Total Internal Energy     =   -0.47 kcal/mol
DOCKED: USER    (3) Torsional Free Energy           =   +1.19 kcal/mol
DOCKED: USER    (4) Unbound System's Energy  [=(2)] =   -0.47 kcal/mol
DOCKED: USER    
DOCKED: USER    
DOCKED: USER    NEWDPF move ligand.dum.pdbqt
DOCKED: USER    NEWDPF about 0.505000 -0.158000 0.114000
DOCKED: USER    NEWDPF tran0 35.666845 12.901315 122.571342
DOCKED: USER    NEWDPF quaternion0 -0.962927 0.073003 0.165278 0.200313
DOCKED: USER    NEWDPF axisangle0 -0.982847 0.074513 0.168697 156.889496
DOCKED: USER    NEWDPF quat0 -0.982847 0.074513 0.168697 156.889496
DOCKED: USER    NEWDPF dihe0 169.20 -96.81 161.36 -161.44 
DOCKED: USER  keepresnum = 1 
DOCKED: USER  
DOCKED: REMARK  Name = 
DOCKED: REMARK  4 active torsions:
DOCKED: REMARK  status: ('A' for Active; 'I' for Inactive)
DOCKED: REMARK    1  A    between atoms: C_3  and  C_4
DOCKED: REMARK    2  A    between atoms: C_4  and  C_5
DOCKED: REMARK    3  A    between atoms: C_5  and  C_6
DOCKED: REMARK    4  A    between atoms: C_6  and  C_7
DOCKED: REMARK                            x       y       z     vdW  Elec       q    Type
DOCKED: REMARK                         _______ _______ _______ _____ _____    ______ ____
DOCKED: USER                              x       y       z     vdW  Elec       q    Type
DOCKED: USER                           _______ _______ _______ _____ _____    ______ ____
DOCKED: ROOT
DOCKED: ATOM      1  C   UNL     1      35.790  11.616 123.054 -0.64 -0.00    +0.000 C 
DOCKED: ENDROOT
DOCKED: BRANCH   1   2
DOCKED: ATOM      2  C   UNL     1      37.166  10.991 122.799 -0.48 -0.00    +0.000 C 
DOCKED: BRANCH   2   5
DOCKED: ATOM      3  O   UNL     1      37.059   7.219 123.088 -2.19 -0.00    +0.000 OA
DOCKED: ATOM      4  N   UNL     1      37.139   8.526 123.428 -0.66 -0.00    +0.000 N 
DOCKED: ATOM      5  C   UNL     1      37.059   9.541 122.424 -0.61 -0.00    +0.000 C 
DOCKED: ATOM      6  O   UNL     1      36.929   9.219 121.212 -2.69 -0.00    +0.000 OA
DOCKED: ATOM      7  H   UNL     1      37.252   8.780 124.372 -0.56 -0.00    +0.000 HD
DOCKED: ENDBRANCH   2   5
DOCKED: ENDBRANCH   1   2
DOCKED: BRANCH   1   8
DOCKED: ATOM      8  C   UNL     1      35.841  13.150 123.086 -0.41 -0.00    +0.000 C 
DOCKED: BRANCH   8   9
DOCKED: ATOM      9  C   UNL     1      37.063  13.652 122.364 -0.44 -0.00    +0.000 A 
DOCKED: ATOM     10  C   UNL     1      38.127  14.224 123.083 -0.41 -0.00    +0.000 A 
DOCKED: ATOM     11  C   UNL     1      39.247  14.719 122.409 -0.37 -0.00    +0.000 A 
DOCKED: ATOM     12  C   UNL     1      39.308  14.657 121.013 -0.27 -0.00    +0.000 A 
DOCKED: ATOM     13  C   UNL     1      38.249  14.103 120.290 -0.30 -0.00    +0.000 A 
DOCKED: ATOM     14  C   UNL     1      37.127  13.607 120.961 -0.35 -0.00    +0.000 A 
DOCKED: ATOM     15  CM  UNL     1      38.186  14.161 121.687 +0.00 -0.00    +0.000 AC
DOCKED: ENDBRANCH   8   9
DOCKED: ENDBRANCH   1   8
DOCKED: TORSDOF 4DOCKED: TER
DOCKED: ENDMDL
________________________________________________________________________________


	BEGINNING GENETIC ALGORITHM DOCKING 66 of 100
Run: 66 Seed: 1065599112 1624937645 [ Run 66 of 100 GA/GALS ]
Beginning LAMARCKIAN GENETIC ALGORITHM (LGA), with a maximum of 2500000 energy evaluations.

Final-Value: -11.232


	FINAL GENETIC ALGORITHM DOCKED STATE
	_______________________________________________


Detailed state:  trans 35.803 12.650 124.153 quatxyzw -0.293080 -0.329216 0.825323 0.352935 center 0.505 -0.158 0.114 ntor 4 -68.4110 -96.1545 79.9218 70.0834
State:	 35.803  12.650 124.153  -0.313 -0.352  0.882 138.666    -68.41  -96.15   79.92   70.08

DOCKED: MODEL       66
DOCKED: USER    Run = 66
DOCKED: USER    DPF = ligand_dock.biased.dpf
DOCKED: USER  
DOCKED: USER    Estimated Free Energy of Binding    =   -9.66 kcal/mol  [=(1)+(2)+(3)-(4)]
DOCKED: USER    Estimated Inhibition Constant, Ki   =   83.45 nM (nanomolar)  [Temperature = 298.15 K]
DOCKED: USER    
DOCKED: USER    (1) Final Intermolecular Energy     =  -10.85 kcal/mol
DOCKED: USER        vdW + Hbond + desolv Energy     =  -10.85 kcal/mol
DOCKED: USER        Electrostatic Energy            =   +0.00 kcal/mol
DOCKED: USER    (2) Final Total Internal Energy     =   -0.38 kcal/mol
DOCKED: USER    (3) Torsional Free Energy           =   +1.19 kcal/mol
DOCKED: USER    (4) Unbound System's Energy  [=(2)] =   -0.38 kcal/mol
DOCKED: USER    
DOCKED: USER    
DOCKED: USER    NEWDPF move ligand.dum.pdbqt
DOCKED: USER    NEWDPF about 0.505000 -0.158000 0.114000
DOCKED: USER    NEWDPF tran0 35.803404 12.650016 124.152959
DOCKED: USER    NEWDPF quaternion0 -0.293080 -0.329216 0.825323 0.352935
DOCKED: USER    NEWDPF axisangle0 -0.313237 -0.351859 0.882087 138.666065
DOCKED: USER    NEWDPF quat0 -0.313237 -0.351859 0.882087 138.666065
DOCKED: USER    NEWDPF dihe0 -68.41 -96.15 79.92 70.08 
DOCKED: USER  keepresnum = 1 
DOCKED: USER  
DOCKED: REMARK  Name = 
DOCKED: REMARK  4 active torsions:
DOCKED: REMARK  status: ('A' for Active; 'I' for Inactive)
DOCKED: REMARK    1  A    between atoms: C_3  and  C_4
DOCKED: REMARK    2  A    between atoms: C_4  and  C_5
DOCKED: REMARK    3  A    between atoms: C_5  and  C_6
DOCKED: REMARK    4  A    between atoms: C_6  and  C_7
DOCKED: REMARK                            x       y       z     vdW  Elec       q    Type
DOCKED: REMARK                         _______ _______ _______ _____ _____    ______ ____
DOCKED: USER                              x       y       z     vdW  Elec       q    Type
DOCKED: USER                           _______ _______ _______ _____ _____    ______ ____
DOCKED: ROOT
DOCKED: ATOM      1  C   UNL     1      36.715  11.828 123.526 -0.70 -0.00    +0.000 C 
DOCKED: ENDROOT
DOCKED: BRANCH   1   2
DOCKED: ATOM      2  C   UNL     1      36.140  11.078 122.319 -0.65 -0.00    +0.000 C 
DOCKED: BRANCH   2   5
DOCKED: ATOM      3  O   UNL     1      37.434   7.686 123.391 -2.53 -0.00    +0.000 OA
DOCKED: ATOM      4  N   UNL     1      36.970   8.956 123.451 -0.59 -0.00    +0.000 N 
DOCKED: ATOM      5  C   UNL     1      36.636   9.662 122.254 -0.70 -0.00    +0.000 C 
DOCKED: ATOM      6  O   UNL     1      36.788   9.106 121.133 -2.64 -0.00    +0.000 OA
DOCKED: ATOM      7  H   UNL     1      36.863   9.397 124.324 -0.43 -0.00    +0.000 HD
DOCKED: ENDBRANCH   2   5
DOCKED: ENDBRANCH   1   2
DOCKED: BRANCH   1   8
DOCKED: ATOM      8  C   UNL     1      35.953  13.127 123.824 -0.60 -0.00    +0.000 C 
DOCKED: BRANCH   8   9
DOCKED: ATOM      9  C   UNL     1      36.774  14.324 123.430 -0.44 -0.00    +0.000 A 
DOCKED: ATOM     10  C   UNL     1      36.195  15.605 123.404 -0.38 -0.00    +0.000 A 
DOCKED: ATOM     11  C   UNL     1      36.951  16.711 123.007 -0.24 -0.00    +0.000 A 
DOCKED: ATOM     12  C   UNL     1      38.285  16.548 122.622 -0.21 -0.00    +0.000 A 
DOCKED: ATOM     13  C   UNL     1      38.864  15.276 122.631 -0.33 -0.00    +0.000 A 
DOCKED: ATOM     14  C   UNL     1      38.112  14.166 123.028 -0.42 -0.00    +0.000 A 
DOCKED: ATOM     15  CM  UNL     1      37.530  15.438 123.020 +0.00 -0.00    +0.000 AC
DOCKED: ENDBRANCH   8   9
DOCKED: ENDBRANCH   1   8
DOCKED: TORSDOF 4DOCKED: TER
DOCKED: ENDMDL
________________________________________________________________________________


	BEGINNING GENETIC ALGORITHM DOCKING 67 of 100
Run: 67 Seed: 540177757 1766068420 [ Run 67 of 100 GA/GALS ]
Beginning LAMARCKIAN GENETIC ALGORITHM (LGA), with a maximum of 2500000 energy evaluations.

Final-Value: -11.671


	FINAL GENETIC ALGORITHM DOCKED STATE
	_______________________________________________


Detailed state:  trans 36.610 12.874 123.398 quatxyzw 0.762736 -0.222774 -0.599853 0.093708 center 0.505 -0.158 0.114 ntor 4 -92.2935 173.0323 125.2782 -79.3210
State:	 36.610  12.874 123.398   0.766 -0.224 -0.603 169.246    -92.29  173.03  125.28  -79.32

DOCKED: MODEL       67
DOCKED: USER    Run = 67
DOCKED: USER    DPF = ligand_dock.biased.dpf
DOCKED: USER  
DOCKED: USER    Estimated Free Energy of Binding    =  -10.09 kcal/mol  [=(1)+(2)+(3)-(4)]
DOCKED: USER    Estimated Inhibition Constant, Ki   =   40.47 nM (nanomolar)  [Temperature = 298.15 K]
DOCKED: USER    
DOCKED: USER    (1) Final Intermolecular Energy     =  -11.28 kcal/mol
DOCKED: USER        vdW + Hbond + desolv Energy     =  -11.28 kcal/mol
DOCKED: USER        Electrostatic Energy            =   +0.00 kcal/mol
DOCKED: USER    (2) Final Total Internal Energy     =   -0.39 kcal/mol
DOCKED: USER    (3) Torsional Free Energy           =   +1.19 kcal/mol
DOCKED: USER    (4) Unbound System's Energy  [=(2)] =   -0.39 kcal/mol
DOCKED: USER    
DOCKED: USER    
DOCKED: USER    NEWDPF move ligand.dum.pdbqt
DOCKED: USER    NEWDPF about 0.505000 -0.158000 0.114000
DOCKED: USER    NEWDPF tran0 36.610015 12.873818 123.398210
DOCKED: USER    NEWDPF quaternion0 0.762736 -0.222774 -0.599853 0.093708
DOCKED: USER    NEWDPF axisangle0 0.766107 -0.223758 -0.602504 169.246105
DOCKED: USER    NEWDPF quat0 0.766107 -0.223758 -0.602504 169.246105
DOCKED: USER    NEWDPF dihe0 -92.29 173.03 125.28 -79.32 
DOCKED: USER  keepresnum = 1 
DOCKED: USER  
DOCKED: REMARK  Name = 
DOCKED: REMARK  4 active torsions:
DOCKED: REMARK  status: ('A' for Active; 'I' for Inactive)
DOCKED: REMARK    1  A    between atoms: C_3  and  C_4
DOCKED: REMARK    2  A    between atoms: C_4  and  C_5
DOCKED: REMARK    3  A    between atoms: C_5  and  C_6
DOCKED: REMARK    4  A    between atoms: C_6  and  C_7
DOCKED: REMARK                            x       y       z     vdW  Elec       q    Type
DOCKED: REMARK                         _______ _______ _______ _____ _____    ______ ____
DOCKED: USER                              x       y       z     vdW  Elec       q    Type
DOCKED: USER                           _______ _______ _______ _____ _____    ______ ____
DOCKED: ROOT
DOCKED: ATOM      1  C   UNL     1      36.036  11.622 123.335 -0.69 -0.00    +0.000 C 
DOCKED: ENDROOT
DOCKED: BRANCH   1   2
DOCKED: ATOM      2  C   UNL     1      36.170  10.952 121.963 -0.58 -0.00    +0.000 C 
DOCKED: BRANCH   2   5
DOCKED: ATOM      3  O   UNL     1      37.440   7.714 123.456 -2.60 -0.00    +0.000 OA
DOCKED: ATOM      4  N   UNL     1      36.929   8.963 123.356 -0.61 -0.00    +0.000 N 
DOCKED: ATOM      5  C   UNL     1      36.720   9.559 122.074 -0.68 -0.00    +0.000 C 
DOCKED: ATOM      6  O   UNL     1      37.027   8.925 121.028 -2.70 -0.00    +0.000 OA
DOCKED: ATOM      7  H   UNL     1      36.699   9.464 124.171 -0.48 -0.00    +0.000 HD
DOCKED: ENDBRANCH   2   5
DOCKED: ENDBRANCH   1   2
DOCKED: BRANCH   1   8
DOCKED: ATOM      8  C   UNL     1      37.136  12.662 123.587 -0.58 -0.00    +0.000 C 
DOCKED: BRANCH   8   9
DOCKED: ATOM      9  C   UNL     1      36.594  14.056 123.419 -0.47 -0.00    +0.000 A 
DOCKED: ATOM     10  C   UNL     1      37.404  15.073 122.885 -0.36 -0.00    +0.000 A 
DOCKED: ATOM     11  C   UNL     1      36.908  16.375 122.759 -0.25 -0.00    +0.000 A 
DOCKED: ATOM     12  C   UNL     1      35.607  16.673 123.175 -0.32 -0.00    +0.000 A 
DOCKED: ATOM     13  C   UNL     1      34.800  15.670 123.719 -0.48 -0.00    +0.000 A 
DOCKED: ATOM     14  C   UNL     1      35.292  14.367 123.847 -0.46 -0.00    +0.000 A 
DOCKED: ATOM     15  CM  UNL     1      36.101  15.369 123.301 +0.00 -0.00    +0.000 AC
DOCKED: ENDBRANCH   8   9
DOCKED: ENDBRANCH   1   8
DOCKED: TORSDOF 4DOCKED: TER
DOCKED: ENDMDL
________________________________________________________________________________


	BEGINNING GENETIC ALGORITHM DOCKING 68 of 100
Run: 68 Seed: 115939810 1281793335 [ Run 68 of 100 GA/GALS ]
Beginning LAMARCKIAN GENETIC ALGORITHM (LGA), with a maximum of 2500000 energy evaluations.

Final-Value: -11.273


	FINAL GENETIC ALGORITHM DOCKED STATE
	_______________________________________________


Detailed state:  trans 36.079 12.795 123.249 quatxyzw 0.906334 -0.168077 0.030032 0.386533 center 0.505 -0.158 0.114 ntor 4 180.0000 168.1841 29.3450 -80.7320
State:	 36.079  12.795 123.249   0.983 -0.182  0.033 134.522    180.00  168.18   29.35  -80.73

DOCKED: MODEL       68
DOCKED: USER    Run = 68
DOCKED: USER    DPF = ligand_dock.biased.dpf
DOCKED: USER  
DOCKED: USER    Estimated Free Energy of Binding    =   -9.68 kcal/mol  [=(1)+(2)+(3)-(4)]
DOCKED: USER    Estimated Inhibition Constant, Ki   =   80.91 nM (nanomolar)  [Temperature = 298.15 K]
DOCKED: USER    
DOCKED: USER    (1) Final Intermolecular Energy     =  -10.87 kcal/mol
DOCKED: USER        vdW + Hbond + desolv Energy     =  -10.87 kcal/mol
DOCKED: USER        Electrostatic Energy            =   +0.00 kcal/mol
DOCKED: USER    (2) Final Total Internal Energy     =   -0.40 kcal/mol
DOCKED: USER    (3) Torsional Free Energy           =   +1.19 kcal/mol
DOCKED: USER    (4) Unbound System's Energy  [=(2)] =   -0.40 kcal/mol
DOCKED: USER    
DOCKED: USER    
DOCKED: USER    NEWDPF move ligand.dum.pdbqt
DOCKED: USER    NEWDPF about 0.505000 -0.158000 0.114000
DOCKED: USER    NEWDPF tran0 36.078899 12.794848 123.249232
DOCKED: USER    NEWDPF quaternion0 0.906334 -0.168077 0.030032 0.386533
DOCKED: USER    NEWDPF axisangle0 0.982714 -0.182242 0.032563 134.522143
DOCKED: USER    NEWDPF quat0 0.982714 -0.182242 0.032563 134.522143
DOCKED: USER    NEWDPF dihe0 180.00 168.18 29.35 -80.73 
DOCKED: USER  keepresnum = 1 
DOCKED: USER  
DOCKED: REMARK  Name = 
DOCKED: REMARK  4 active torsions:
DOCKED: REMARK  status: ('A' for Active; 'I' for Inactive)
DOCKED: REMARK    1  A    between atoms: C_3  and  C_4
DOCKED: REMARK    2  A    between atoms: C_4  and  C_5
DOCKED: REMARK    3  A    between atoms: C_5  and  C_6
DOCKED: REMARK    4  A    between atoms: C_6  and  C_7
DOCKED: REMARK                            x       y       z     vdW  Elec       q    Type
DOCKED: REMARK                         _______ _______ _______ _____ _____    ______ ____
DOCKED: USER                              x       y       z     vdW  Elec       q    Type
DOCKED: USER                           _______ _______ _______ _____ _____    ______ ____
DOCKED: ROOT
DOCKED: ATOM      1  C   UNL     1      35.925  11.844 122.264 -0.46 -0.00    +0.000 C 
DOCKED: ENDROOT
DOCKED: BRANCH   1   2
DOCKED: ATOM      2  C   UNL     1      37.220  11.101 121.916 -0.34 -0.00    +0.000 C 
DOCKED: BRANCH   2   5
DOCKED: ATOM      3  O   UNL     1      37.050   7.649 123.459 -2.64 -0.00    +0.000 OA
DOCKED: ATOM      4  N   UNL     1      37.173   8.991 123.337 -0.58 -0.00    +0.000 N 
DOCKED: ATOM      5  C   UNL     1      37.065   9.614 122.055 -0.60 -0.00    +0.000 C 
DOCKED: ATOM      6  O   UNL     1      36.869   8.910 121.028 -2.66 -0.00    +0.000 OA
DOCKED: ATOM      7  H   UNL     1      37.338   9.542 124.136 -0.59 -0.00    +0.000 HD
DOCKED: ENDBRANCH   2   5
DOCKED: ENDBRANCH   1   2
DOCKED: BRANCH   1   8
DOCKED: ATOM      8  C   UNL     1      35.942  12.413 123.689 -0.63 -0.00    +0.000 C 
DOCKED: BRANCH   8   9
DOCKED: ATOM      9  C   UNL     1      36.221  13.892 123.663 -0.49 -0.00    +0.000 A 
DOCKED: ATOM     10  C   UNL     1      35.275  14.801 124.169 -0.48 -0.00    +0.000 A 
DOCKED: ATOM     11  C   UNL     1      35.522  16.176 124.116 -0.40 -0.00    +0.000 A 
DOCKED: ATOM     12  C   UNL     1      36.706  16.654 123.548 -0.27 -0.00    +0.000 A 
DOCKED: ATOM     13  C   UNL     1      37.645  15.758 123.030 -0.30 -0.00    +0.000 A 
DOCKED: ATOM     14  C   UNL     1      37.402  14.382 123.082 -0.43 -0.00    +0.000 A 
DOCKED: ATOM     15  CM  UNL     1      36.462  15.277 123.601 +0.00 -0.00    +0.000 AC
DOCKED: ENDBRANCH   8   9
DOCKED: ENDBRANCH   1   8
DOCKED: TORSDOF 4DOCKED: TER
DOCKED: ENDMDL
________________________________________________________________________________


	BEGINNING GENETIC ALGORITHM DOCKING 69 of 100
Run: 69 Seed: 1402567762 133216696 [ Run 69 of 100 GA/GALS ]
Beginning LAMARCKIAN GENETIC ALGORITHM (LGA), with a maximum of 2500000 energy evaluations.

Final-Value: -11.628


	FINAL GENETIC ALGORITHM DOCKED STATE
	_______________________________________________


Detailed state:  trans 36.171 12.864 123.390 quatxyzw 0.923036 -0.169968 -0.236565 0.251300 center 0.505 -0.158 0.114 ntor 4 -144.8314 -179.9129 168.7205 -77.9081
State:	 36.171  12.864 123.390   0.954 -0.176 -0.244 150.891   -144.83 -179.91  168.72  -77.91

DOCKED: MODEL       69
DOCKED: USER    Run = 69
DOCKED: USER    DPF = ligand_dock.biased.dpf
DOCKED: USER  
DOCKED: USER    Estimated Free Energy of Binding    =  -10.04 kcal/mol  [=(1)+(2)+(3)-(4)]
DOCKED: USER    Estimated Inhibition Constant, Ki   =   43.49 nM (nanomolar)  [Temperature = 298.15 K]
DOCKED: USER    
DOCKED: USER    (1) Final Intermolecular Energy     =  -11.24 kcal/mol
DOCKED: USER        vdW + Hbond + desolv Energy     =  -11.24 kcal/mol
DOCKED: USER        Electrostatic Energy            =   +0.00 kcal/mol
DOCKED: USER    (2) Final Total Internal Energy     =   -0.39 kcal/mol
DOCKED: USER    (3) Torsional Free Energy           =   +1.19 kcal/mol
DOCKED: USER    (4) Unbound System's Energy  [=(2)] =   -0.39 kcal/mol
DOCKED: USER    
DOCKED: USER    
DOCKED: USER    NEWDPF move ligand.dum.pdbqt
DOCKED: USER    NEWDPF about 0.505000 -0.158000 0.114000
DOCKED: USER    NEWDPF tran0 36.171147 12.864149 123.389945
DOCKED: USER    NEWDPF quaternion0 0.923036 -0.169968 -0.236565 0.251300
DOCKED: USER    NEWDPF axisangle0 0.953639 -0.175603 -0.244409 150.891091
DOCKED: USER    NEWDPF quat0 0.953639 -0.175603 -0.244409 150.891091
DOCKED: USER    NEWDPF dihe0 -144.83 -179.91 168.72 -77.91 
DOCKED: USER  keepresnum = 1 
DOCKED: USER  
DOCKED: REMARK  Name = 
DOCKED: REMARK  4 active torsions:
DOCKED: REMARK  status: ('A' for Active; 'I' for Inactive)
DOCKED: REMARK    1  A    between atoms: C_3  and  C_4
DOCKED: REMARK    2  A    between atoms: C_4  and  C_5
DOCKED: REMARK    3  A    between atoms: C_5  and  C_6
DOCKED: REMARK    4  A    between atoms: C_6  and  C_7
DOCKED: REMARK                            x       y       z     vdW  Elec       q    Type
DOCKED: REMARK                         _______ _______ _______ _____ _____    ______ ____
DOCKED: USER                              x       y       z     vdW  Elec       q    Type
DOCKED: USER                           _______ _______ _______ _____ _____    ______ ____
DOCKED: ROOT
DOCKED: ATOM      1  C   UNL     1      35.783  11.712 122.741 -0.55 -0.00    +0.000 C 
DOCKED: ENDROOT
DOCKED: BRANCH   1   2
DOCKED: ATOM      2  C   UNL     1      36.875  11.110 121.848 -0.57 -0.00    +0.000 C 
DOCKED: BRANCH   2   5
DOCKED: ATOM      3  O   UNL     1      37.072   7.686 123.448 -2.67 -0.00    +0.000 OA
DOCKED: ATOM      4  N   UNL     1      36.973   9.028 123.307 -0.62 -0.00    +0.000 N 
DOCKED: ATOM      5  C   UNL     1      36.965   9.620 122.005 -0.62 -0.00    +0.000 C 
DOCKED: ATOM      6  O   UNL     1      37.064   8.890 120.982 -2.71 -0.00    +0.000 OA
DOCKED: ATOM      7  H   UNL     1      36.908   9.601 124.104 -0.52 -0.00    +0.000 HD
DOCKED: ENDBRANCH   2   5
DOCKED: ENDBRANCH   1   2
DOCKED: BRANCH   1   8
DOCKED: ATOM      8  C   UNL     1      36.362  12.570 123.874 -0.63 -0.00    +0.000 C 
DOCKED: BRANCH   8   9
DOCKED: ATOM      9  C   UNL     1      36.172  14.033 123.579 -0.48 -0.00    +0.000 A 
DOCKED: ATOM     10  C   UNL     1      37.245  14.805 123.099 -0.39 -0.00    +0.000 A 
DOCKED: ATOM     11  C   UNL     1      37.075  16.171 122.855 -0.27 -0.00    +0.000 A 
DOCKED: ATOM     12  C   UNL     1      35.840  16.779 123.099 -0.30 -0.00    +0.000 A 
DOCKED: ATOM     13  C   UNL     1      34.773  16.021 123.589 -0.45 -0.00    +0.000 A 
DOCKED: ATOM     14  C   UNL     1      34.938  14.654 123.834 -0.45 -0.00    +0.000 A 
DOCKED: ATOM     15  CM  UNL     1      36.007  15.411 123.343 +0.00 -0.00    +0.000 AC
DOCKED: ENDBRANCH   8   9
DOCKED: ENDBRANCH   1   8
DOCKED: TORSDOF 4DOCKED: TER
DOCKED: ENDMDL
________________________________________________________________________________


	BEGINNING GENETIC ALGORITHM DOCKING 70 of 100
Run: 70 Seed: 659634325 134618770 [ Run 70 of 100 GA/GALS ]
Beginning LAMARCKIAN GENETIC ALGORITHM (LGA), with a maximum of 2500000 energy evaluations.

Final-Value: -11.289


	FINAL GENETIC ALGORITHM DOCKED STATE
	_______________________________________________


Detailed state:  trans 36.822 13.060 122.890 quatxyzw 0.416627 -0.218561 -0.871408 -0.138932 center 0.505 -0.158 0.114 ntor 4 -29.8564 177.6278 -101.6745 -71.0028
State:	 36.822  13.060 122.890   0.421 -0.221 -0.880 -164.028    -29.86  177.63 -101.67  -71.00

DOCKED: MODEL       70
DOCKED: USER    Run = 70
DOCKED: USER    DPF = ligand_dock.biased.dpf
DOCKED: USER  
DOCKED: USER    Estimated Free Energy of Binding    =   -9.73 kcal/mol  [=(1)+(2)+(3)-(4)]
DOCKED: USER    Estimated Inhibition Constant, Ki   =   74.29 nM (nanomolar)  [Temperature = 298.15 K]
DOCKED: USER    
DOCKED: USER    (1) Final Intermolecular Energy     =  -10.92 kcal/mol
DOCKED: USER        vdW + Hbond + desolv Energy     =  -10.92 kcal/mol
DOCKED: USER        Electrostatic Energy            =   +0.00 kcal/mol
DOCKED: USER    (2) Final Total Internal Energy     =   -0.37 kcal/mol
DOCKED: USER    (3) Torsional Free Energy           =   +1.19 kcal/mol
DOCKED: USER    (4) Unbound System's Energy  [=(2)] =   -0.37 kcal/mol
DOCKED: USER    
DOCKED: USER    
DOCKED: USER    NEWDPF move ligand.dum.pdbqt
DOCKED: USER    NEWDPF about 0.505000 -0.158000 0.114000
DOCKED: USER    NEWDPF tran0 36.821972 13.060073 122.890067
DOCKED: USER    NEWDPF quaternion0 0.416627 -0.218561 -0.871408 -0.138932
DOCKED: USER    NEWDPF axisangle0 0.420707 -0.220701 -0.879941 -164.027910
DOCKED: USER    NEWDPF quat0 0.420707 -0.220701 -0.879941 -164.027910
DOCKED: USER    NEWDPF dihe0 -29.86 177.63 -101.67 -71.00 
DOCKED: USER  keepresnum = 1 
DOCKED: USER  
DOCKED: REMARK  Name = 
DOCKED: REMARK  4 active torsions:
DOCKED: REMARK  status: ('A' for Active; 'I' for Inactive)
DOCKED: REMARK    1  A    between atoms: C_3  and  C_4
DOCKED: REMARK    2  A    between atoms: C_4  and  C_5
DOCKED: REMARK    3  A    between atoms: C_5  and  C_6
DOCKED: REMARK    4  A    between atoms: C_6  and  C_7
DOCKED: REMARK                            x       y       z     vdW  Elec       q    Type
DOCKED: REMARK                         _______ _______ _______ _____ _____    ______ ____
DOCKED: USER                              x       y       z     vdW  Elec       q    Type
DOCKED: USER                           _______ _______ _______ _____ _____    ______ ____
DOCKED: ROOT
DOCKED: ATOM      1  C   UNL     1      36.752  11.784 123.406 -0.69 -0.00    +0.000 C 
DOCKED: ENDROOT
DOCKED: BRANCH   1   2
DOCKED: ATOM      2  C   UNL     1      35.883  10.831 122.577 -0.67 -0.00    +0.000 C 
DOCKED: BRANCH   2   5
DOCKED: ATOM      3  O   UNL     1      37.392   7.426 123.252 -2.27 -0.00    +0.000 OA
DOCKED: ATOM      4  N   UNL     1      36.768   8.610 123.449 -0.64 -0.00    +0.000 N 
DOCKED: ATOM      5  C   UNL     1      36.560   9.509 122.356 -0.71 -0.00    +0.000 C 
DOCKED: ATOM      6  O   UNL     1      36.973   9.205 121.205 -2.71 -0.00    +0.000 OA
DOCKED: ATOM      7  H   UNL     1      36.454   8.855 124.349 -0.32 -0.00    +0.000 HD
DOCKED: ENDBRANCH   2   5
DOCKED: ENDBRANCH   1   2
DOCKED: BRANCH   1   8
DOCKED: ATOM      8  C   UNL     1      37.312  12.942 122.569 -0.56 -0.00    +0.000 C 
DOCKED: BRANCH   8   9
DOCKED: ATOM      9  C   UNL     1      36.691  14.247 122.990 -0.44 -0.00    +0.000 A 
DOCKED: ATOM     10  C   UNL     1      35.565  14.258 123.832 -0.49 -0.00    +0.000 A 
DOCKED: ATOM     11  C   UNL     1      34.971  15.469 124.196 -0.51 -0.00    +0.000 A 
DOCKED: ATOM     12  C   UNL     1      35.487  16.676 123.715 -0.35 -0.00    +0.000 A 
DOCKED: ATOM     13  C   UNL     1      36.597  16.673 122.867 -0.25 -0.00    +0.000 A 
DOCKED: ATOM     14  C   UNL     1      37.195  15.463 122.500 -0.30 -0.00    +0.000 A 
DOCKED: ATOM     15  CM  UNL     1      36.084  15.464 123.349 +0.00 -0.00    +0.000 AC
DOCKED: ENDBRANCH   8   9
DOCKED: ENDBRANCH   1   8
DOCKED: TORSDOF 4DOCKED: TER
DOCKED: ENDMDL
________________________________________________________________________________


	BEGINNING GENETIC ALGORITHM DOCKING 71 of 100
Run: 71 Seed: 45211682 1341886030 [ Run 71 of 100 GA/GALS ]
Beginning LAMARCKIAN GENETIC ALGORITHM (LGA), with a maximum of 2500000 energy evaluations.

Final-Value: -11.738


	FINAL GENETIC ALGORITHM DOCKED STATE
	_______________________________________________


Detailed state:  trans 36.819 13.058 123.183 quatxyzw -0.696007 0.196501 0.690599 -0.005865 center 0.505 -0.158 0.114 ntor 4 -89.9386 -172.5372 -71.1630 -72.7689
State:	 36.819  13.058 123.183  -0.696  0.197  0.691 -179.328    -89.94 -172.54  -71.16  -72.77

DOCKED: MODEL       71
DOCKED: USER    Run = 71
DOCKED: USER    DPF = ligand_dock.biased.dpf
DOCKED: USER  
DOCKED: USER    Estimated Free Energy of Binding    =  -10.17 kcal/mol  [=(1)+(2)+(3)-(4)]
DOCKED: USER    Estimated Inhibition Constant, Ki   =   35.02 nM (nanomolar)  [Temperature = 298.15 K]
DOCKED: USER    
DOCKED: USER    (1) Final Intermolecular Energy     =  -11.36 kcal/mol
DOCKED: USER        vdW + Hbond + desolv Energy     =  -11.36 kcal/mol
DOCKED: USER        Electrostatic Energy            =   +0.00 kcal/mol
DOCKED: USER    (2) Final Total Internal Energy     =   -0.37 kcal/mol
DOCKED: USER    (3) Torsional Free Energy           =   +1.19 kcal/mol
DOCKED: USER    (4) Unbound System's Energy  [=(2)] =   -0.37 kcal/mol
DOCKED: USER    
DOCKED: USER    
DOCKED: USER    NEWDPF move ligand.dum.pdbqt
DOCKED: USER    NEWDPF about 0.505000 -0.158000 0.114000
DOCKED: USER    NEWDPF tran0 36.819282 13.058341 123.183340
DOCKED: USER    NEWDPF quaternion0 -0.696007 0.196501 0.690599 -0.005865
DOCKED: USER    NEWDPF axisangle0 -0.696019 0.196505 0.690611 -179.327913
DOCKED: USER    NEWDPF quat0 -0.696019 0.196505 0.690611 -179.327913
DOCKED: USER    NEWDPF dihe0 -89.94 -172.54 -71.16 -72.77 
DOCKED: USER  keepresnum = 1 
DOCKED: USER  
DOCKED: REMARK  Name = 
DOCKED: REMARK  4 active torsions:
DOCKED: REMARK  status: ('A' for Active; 'I' for Inactive)
DOCKED: REMARK    1  A    between atoms: C_3  and  C_4
DOCKED: REMARK    2  A    between atoms: C_4  and  C_5
DOCKED: REMARK    3  A    between atoms: C_5  and  C_6
DOCKED: REMARK    4  A    between atoms: C_6  and  C_7
DOCKED: REMARK                            x       y       z     vdW  Elec       q    Type
DOCKED: REMARK                         _______ _______ _______ _____ _____    ______ ____
DOCKED: USER                              x       y       z     vdW  Elec       q    Type
DOCKED: USER                           _______ _______ _______ _____ _____    ______ ____
DOCKED: ROOT
DOCKED: ATOM      1  C   UNL     1      36.426  11.743 123.308 -0.70 -0.00    +0.000 C 
DOCKED: ENDROOT
DOCKED: BRANCH   1   2
DOCKED: ATOM      2  C   UNL     1      36.308  11.006 121.969 -0.60 -0.00    +0.000 C 
DOCKED: BRANCH   2   5
DOCKED: ATOM      3  O   UNL     1      37.439   7.715 123.458 -2.60 -0.00    +0.000 OA
DOCKED: ATOM      4  N   UNL     1      37.029   9.001 123.359 -0.61 -0.00    +0.000 N 
DOCKED: ATOM      5  C   UNL     1      36.744   9.574 122.080 -0.68 -0.00    +0.000 C 
DOCKED: ATOM      6  O   UNL     1      36.889   8.884 121.036 -2.66 -0.00    +0.000 OA
DOCKED: ATOM      7  H   UNL     1      36.926   9.545 124.172 -0.54 -0.00    +0.000 HD
DOCKED: ENDBRANCH   2   5
DOCKED: ENDBRANCH   1   2
DOCKED: BRANCH   1   8
DOCKED: ATOM      8  C   UNL     1      37.400  12.927 123.239 -0.58 -0.00    +0.000 C 
DOCKED: BRANCH   8   9
DOCKED: ATOM      9  C   UNL     1      36.654  14.231 123.330 -0.45 -0.00    +0.000 A 
DOCKED: ATOM     10  C   UNL     1      35.342  14.264 123.834 -0.46 -0.00    +0.000 A 
DOCKED: ATOM     11  C   UNL     1      34.639  15.471 123.889 -0.52 -0.00    +0.000 A 
DOCKED: ATOM     12  C   UNL     1      35.234  16.651 123.431 -0.37 -0.00    +0.000 A 
DOCKED: ATOM     13  C   UNL     1      36.533  16.624 122.916 -0.26 -0.00    +0.000 A 
DOCKED: ATOM     14  C   UNL     1      37.240  15.419 122.860 -0.33 -0.00    +0.000 A 
DOCKED: ATOM     15  CM  UNL     1      35.940  15.443 123.376 +0.00 -0.00    +0.000 AC
DOCKED: ENDBRANCH   8   9
DOCKED: ENDBRANCH   1   8
DOCKED: TORSDOF 4DOCKED: TER
DOCKED: ENDMDL
________________________________________________________________________________


	BEGINNING GENETIC ALGORITHM DOCKING 72 of 100
Run: 72 Seed: 1640728754 995031344 [ Run 72 of 100 GA/GALS ]
Beginning LAMARCKIAN GENETIC ALGORITHM (LGA), with a maximum of 2500000 energy evaluations.

Final-Value: -11.182


	FINAL GENETIC ALGORITHM DOCKED STATE
	_______________________________________________


Detailed state:  trans 36.120 12.725 123.106 quatxyzw -0.882354 0.188603 -0.063846 -0.426386 center 0.505 -0.158 0.114 ntor 4 178.7152 158.4288 22.2552 -71.0052
State:	 36.120  12.725 123.106  -0.975  0.209 -0.071 -129.523    178.72  158.43   22.26  -71.01

DOCKED: MODEL       72
DOCKED: USER    Run = 72
DOCKED: USER    DPF = ligand_dock.biased.dpf
DOCKED: USER  
DOCKED: USER    Estimated Free Energy of Binding    =   -9.58 kcal/mol  [=(1)+(2)+(3)-(4)]
DOCKED: USER    Estimated Inhibition Constant, Ki   =   95.50 nM (nanomolar)  [Temperature = 298.15 K]
DOCKED: USER    
DOCKED: USER    (1) Final Intermolecular Energy     =  -10.77 kcal/mol
DOCKED: USER        vdW + Hbond + desolv Energy     =  -10.77 kcal/mol
DOCKED: USER        Electrostatic Energy            =   +0.00 kcal/mol
DOCKED: USER    (2) Final Total Internal Energy     =   -0.41 kcal/mol
DOCKED: USER    (3) Torsional Free Energy           =   +1.19 kcal/mol
DOCKED: USER    (4) Unbound System's Energy  [=(2)] =   -0.41 kcal/mol
DOCKED: USER    
DOCKED: USER    
DOCKED: USER    NEWDPF move ligand.dum.pdbqt
DOCKED: USER    NEWDPF about 0.505000 -0.158000 0.114000
DOCKED: USER    NEWDPF tran0 36.120474 12.725007 123.105758
DOCKED: USER    NEWDPF quaternion0 -0.882354 0.188603 -0.063846 -0.426386
DOCKED: USER    NEWDPF axisangle0 -0.975471 0.208507 -0.070584 -129.523196
DOCKED: USER    NEWDPF quat0 -0.975471 0.208507 -0.070584 -129.523196
DOCKED: USER    NEWDPF dihe0 178.72 158.43 22.26 -71.01 
DOCKED: USER  keepresnum = 1 
DOCKED: USER  
DOCKED: REMARK  Name = 
DOCKED: REMARK  4 active torsions:
DOCKED: REMARK  status: ('A' for Active; 'I' for Inactive)
DOCKED: REMARK    1  A    between atoms: C_3  and  C_4
DOCKED: REMARK    2  A    between atoms: C_4  and  C_5
DOCKED: REMARK    3  A    between atoms: C_5  and  C_6
DOCKED: REMARK    4  A    between atoms: C_6  and  C_7
DOCKED: REMARK                            x       y       z     vdW  Elec       q    Type
DOCKED: REMARK                         _______ _______ _______ _____ _____    ______ ____
DOCKED: USER                              x       y       z     vdW  Elec       q    Type
DOCKED: USER                           _______ _______ _______ _____ _____    ______ ____
DOCKED: ROOT
DOCKED: ATOM      1  C   UNL     1      35.966  11.868 122.038 -0.40 -0.00    +0.000 C 
DOCKED: ENDROOT
DOCKED: BRANCH   1   2
DOCKED: ATOM      2  C   UNL     1      37.229  11.064 121.705 -0.34 -0.00    +0.000 C 
DOCKED: BRANCH   2   5
DOCKED: ATOM      3  O   UNL     1      37.020   7.715 123.457 -2.67 -0.00    +0.000 OA
DOCKED: ATOM      4  N   UNL     1      37.181   9.042 123.250 -0.58 -0.00    +0.000 N 
DOCKED: ATOM      5  C   UNL     1      37.032   9.594 121.939 -0.61 -0.00    +0.000 C 
DOCKED: ATOM      6  O   UNL     1      36.763   8.839 120.966 -2.63 -0.00    +0.000 OA
DOCKED: ATOM      7  H   UNL     1      37.403   9.632 124.006 -0.53 -0.00    +0.000 HD
DOCKED: ENDBRANCH   2   5
DOCKED: ENDBRANCH   1   2
DOCKED: BRANCH   1   8
DOCKED: ATOM      8  C   UNL     1      35.931  12.321 123.504 -0.65 -0.00    +0.000 C 
DOCKED: BRANCH   8   9
DOCKED: ATOM      9  C   UNL     1      36.074  13.816 123.598 -0.50 -0.00    +0.000 A 
DOCKED: ATOM     10  C   UNL     1      34.994  14.606 124.029 -0.41 -0.00    +0.000 A 
DOCKED: ATOM     11  C   UNL     1      35.119  15.998 124.085 -0.46 -0.00    +0.000 A 
DOCKED: ATOM     12  C   UNL     1      36.315  16.611 123.702 -0.30 -0.00    +0.000 A 
DOCKED: ATOM     13  C   UNL     1      37.388  15.834 123.259 -0.30 -0.00    +0.000 A 
DOCKED: ATOM     14  C   UNL     1      37.268  14.441 123.201 -0.41 -0.00    +0.000 A 
DOCKED: ATOM     15  CM  UNL     1      36.193  15.218 123.645 +0.00 -0.00    +0.000 AC
DOCKED: ENDBRANCH   8   9
DOCKED: ENDBRANCH   1   8
DOCKED: TORSDOF 4DOCKED: TER
DOCKED: ENDMDL
________________________________________________________________________________


	BEGINNING GENETIC ALGORITHM DOCKING 73 of 100
Run: 73 Seed: 978930049 1374257553 [ Run 73 of 100 GA/GALS ]
Beginning LAMARCKIAN GENETIC ALGORITHM (LGA), with a maximum of 2500000 energy evaluations.

Final-Value: -11.546


	FINAL GENETIC ALGORITHM DOCKED STATE
	_______________________________________________


Detailed state:  trans 36.955 13.266 123.045 quatxyzw -0.478297 0.136987 0.860546 0.109214 center 0.505 -0.158 0.114 ntor 4 -51.0100 -165.7185 72.9645 -77.3628
State:	 36.955  13.266 123.045  -0.481  0.138  0.866 167.460    -51.01 -165.72   72.96  -77.36

DOCKED: MODEL       73
DOCKED: USER    Run = 73
DOCKED: USER    DPF = ligand_dock.biased.dpf
DOCKED: USER  
DOCKED: USER    Estimated Free Energy of Binding    =   -9.98 kcal/mol  [=(1)+(2)+(3)-(4)]
DOCKED: USER    Estimated Inhibition Constant, Ki   =   48.10 nM (nanomolar)  [Temperature = 298.15 K]
DOCKED: USER    
DOCKED: USER    (1) Final Intermolecular Energy     =  -11.18 kcal/mol
DOCKED: USER        vdW + Hbond + desolv Energy     =  -11.18 kcal/mol
DOCKED: USER        Electrostatic Energy            =   +0.00 kcal/mol
DOCKED: USER    (2) Final Total Internal Energy     =   -0.37 kcal/mol
DOCKED: USER    (3) Torsional Free Energy           =   +1.19 kcal/mol
DOCKED: USER    (4) Unbound System's Energy  [=(2)] =   -0.37 kcal/mol
DOCKED: USER    
DOCKED: USER    
DOCKED: USER    NEWDPF move ligand.dum.pdbqt
DOCKED: USER    NEWDPF about 0.505000 -0.158000 0.114000
DOCKED: USER    NEWDPF tran0 36.955366 13.266118 123.044550
DOCKED: USER    NEWDPF quaternion0 -0.478297 0.136987 0.860546 0.109214
DOCKED: USER    NEWDPF axisangle0 -0.481175 0.137811 0.865724 167.460004
DOCKED: USER    NEWDPF quat0 -0.481175 0.137811 0.865724 167.460004
DOCKED: USER    NEWDPF dihe0 -51.01 -165.72 72.96 -77.36 
DOCKED: USER  keepresnum = 1 
DOCKED: USER  
DOCKED: REMARK  Name = 
DOCKED: REMARK  4 active torsions:
DOCKED: REMARK  status: ('A' for Active; 'I' for Inactive)
DOCKED: REMARK    1  A    between atoms: C_3  and  C_4
DOCKED: REMARK    2  A    between atoms: C_4  and  C_5
DOCKED: REMARK    3  A    between atoms: C_5  and  C_6
DOCKED: REMARK    4  A    between atoms: C_6  and  C_7
DOCKED: REMARK                            x       y       z     vdW  Elec       q    Type
DOCKED: REMARK                         _______ _______ _______ _____ _____    ______ ____
DOCKED: USER                              x       y       z     vdW  Elec       q    Type
DOCKED: USER                           _______ _______ _______ _____ _____    ______ ____
DOCKED: ROOT
DOCKED: ATOM      1  C   UNL     1      36.904  11.916 123.317 -0.68 -0.00    +0.000 C 
DOCKED: ENDROOT
DOCKED: BRANCH   1   2
DOCKED: ATOM      2  C   UNL     1      36.178  11.098 122.242 -0.64 -0.00    +0.000 C 
DOCKED: BRANCH   2   5
DOCKED: ATOM      3  O   UNL     1      37.403   7.663 123.257 -2.43 -0.00    +0.000 OA
DOCKED: ATOM      4  N   UNL     1      36.906   8.919 123.337 -0.62 -0.00    +0.000 N 
DOCKED: ATOM      5  C   UNL     1      36.712   9.697 122.153 -0.68 -0.00    +0.000 C 
DOCKED: ATOM      6  O   UNL     1      37.019   9.218 121.028 -2.72 -0.00    +0.000 OA
DOCKED: ATOM      7  H   UNL     1      36.677   9.300 124.215 -0.47 -0.00    +0.000 HD
DOCKED: ENDBRANCH   2   5
DOCKED: ENDBRANCH   1   2
DOCKED: BRANCH   1   8
DOCKED: ATOM      8  C   UNL     1      37.481  13.226 122.763 -0.55 -0.00    +0.000 C 
DOCKED: BRANCH   8   9
DOCKED: ATOM      9  C   UNL     1      36.654  14.400 123.213 -0.44 -0.00    +0.000 A 
DOCKED: ATOM     10  C   UNL     1      37.176  15.703 123.148 -0.32 -0.00    +0.000 A 
DOCKED: ATOM     11  C   UNL     1      36.418  16.789 123.595 -0.28 -0.00    +0.000 A 
DOCKED: ATOM     12  C   UNL     1      35.139  16.581 124.120 -0.40 -0.00    +0.000 A 
DOCKED: ATOM     13  C   UNL     1      34.617  15.288 124.201 -0.53 -0.00    +0.000 A 
DOCKED: ATOM     14  C   UNL     1      35.373  14.199 123.754 -0.43 -0.00    +0.000 A 
DOCKED: ATOM     15  CM  UNL     1      35.896  15.493 123.672 +0.00 -0.00    +0.000 AC
DOCKED: ENDBRANCH   8   9
DOCKED: ENDBRANCH   1   8
DOCKED: TORSDOF 4DOCKED: TER
DOCKED: ENDMDL
________________________________________________________________________________


	BEGINNING GENETIC ALGORITHM DOCKING 74 of 100
Run: 74 Seed: 1358759102 956321592 [ Run 74 of 100 GA/GALS ]
Beginning LAMARCKIAN GENETIC ALGORITHM (LGA), with a maximum of 2500000 energy evaluations.

Final-Value: -11.675


	FINAL GENETIC ALGORITHM DOCKED STATE
	_______________________________________________


Detailed state:  trans 36.604 12.979 123.346 quatxyzw 0.855277 -0.202151 -0.454521 0.145077 center 0.505 -0.158 0.114 ntor 4 -116.7194 -175.6011 140.6520 -72.1892
State:	 36.604  12.979 123.346   0.864 -0.204 -0.459 163.317   -116.72 -175.60  140.65  -72.19

DOCKED: MODEL       74
DOCKED: USER    Run = 74
DOCKED: USER    DPF = ligand_dock.biased.dpf
DOCKED: USER  
DOCKED: USER    Estimated Free Energy of Binding    =  -10.10 kcal/mol  [=(1)+(2)+(3)-(4)]
DOCKED: USER    Estimated Inhibition Constant, Ki   =   39.25 nM (nanomolar)  [Temperature = 298.15 K]
DOCKED: USER    
DOCKED: USER    (1) Final Intermolecular Energy     =  -11.30 kcal/mol
DOCKED: USER        vdW + Hbond + desolv Energy     =  -11.30 kcal/mol
DOCKED: USER        Electrostatic Energy            =   +0.00 kcal/mol
DOCKED: USER    (2) Final Total Internal Energy     =   -0.38 kcal/mol
DOCKED: USER    (3) Torsional Free Energy           =   +1.19 kcal/mol
DOCKED: USER    (4) Unbound System's Energy  [=(2)] =   -0.38 kcal/mol
DOCKED: USER    
DOCKED: USER    
DOCKED: USER    NEWDPF move ligand.dum.pdbqt
DOCKED: USER    NEWDPF about 0.505000 -0.158000 0.114000
DOCKED: USER    NEWDPF tran0 36.604107 12.979264 123.345864
DOCKED: USER    NEWDPF quaternion0 0.855277 -0.202151 -0.454521 0.145077
DOCKED: USER    NEWDPF axisangle0 0.864422 -0.204312 -0.459381 163.316563
DOCKED: USER    NEWDPF quat0 0.864422 -0.204312 -0.459381 163.316563
DOCKED: USER    NEWDPF dihe0 -116.72 -175.60 140.65 -72.19 
DOCKED: USER  keepresnum = 1 
DOCKED: USER  
DOCKED: REMARK  Name = 
DOCKED: REMARK  4 active torsions:
DOCKED: REMARK  status: ('A' for Active; 'I' for Inactive)
DOCKED: REMARK    1  A    between atoms: C_3  and  C_4
DOCKED: REMARK    2  A    between atoms: C_4  and  C_5
DOCKED: REMARK    3  A    between atoms: C_5  and  C_6
DOCKED: REMARK    4  A    between atoms: C_6  and  C_7
DOCKED: REMARK                            x       y       z     vdW  Elec       q    Type
DOCKED: REMARK                         _______ _______ _______ _____ _____    ______ ____
DOCKED: USER                              x       y       z     vdW  Elec       q    Type
DOCKED: USER                           _______ _______ _______ _____ _____    ______ ____
DOCKED: ROOT
DOCKED: ATOM      1  C   UNL     1      36.075  11.740 123.055 -0.67 -0.00    +0.000 C 
DOCKED: ENDROOT
DOCKED: BRANCH   1   2
DOCKED: ATOM      2  C   UNL     1      36.677  11.092 121.803 -0.58 -0.00    +0.000 C 
DOCKED: BRANCH   2   5
DOCKED: ATOM      3  O   UNL     1      37.109   7.714 123.456 -2.69 -0.00    +0.000 OA
DOCKED: ATOM      4  N   UNL     1      36.908   9.043 123.293 -0.62 -0.00    +0.000 N 
DOCKED: ATOM      5  C   UNL     1      36.882   9.616 121.983 -0.64 -0.00    +0.000 C 
DOCKED: ATOM      6  O   UNL     1      37.064   8.884 120.973 -2.71 -0.00    +0.000 OA
DOCKED: ATOM      7  H   UNL     1      36.777   9.618 124.080 -0.48 -0.00    +0.000 HD
DOCKED: ENDBRANCH   2   5
DOCKED: ENDBRANCH   1   2
DOCKED: BRANCH   1   8
DOCKED: ATOM      8  C   UNL     1      37.027  12.754 123.703 -0.55 -0.00    +0.000 C 
DOCKED: BRANCH   8   9
DOCKED: ATOM      9  C   UNL     1      36.502  14.155 123.535 -0.46 -0.00    +0.000 A 
DOCKED: ATOM     10  C   UNL     1      37.336  15.170 123.036 -0.36 -0.00    +0.000 A 
DOCKED: ATOM     11  C   UNL     1      36.856  16.477 122.911 -0.26 -0.00    +0.000 A 
DOCKED: ATOM     12  C   UNL     1      35.546  16.783 123.292 -0.33 -0.00    +0.000 A 
DOCKED: ATOM     13  C   UNL     1      34.715  15.782 123.802 -0.50 -0.00    +0.000 A 
DOCKED: ATOM     14  C   UNL     1      35.191  14.473 123.929 -0.47 -0.00    +0.000 A 
DOCKED: ATOM     15  CM  UNL     1      36.025  15.473 123.418 +0.00 -0.00    +0.000 AC
DOCKED: ENDBRANCH   8   9
DOCKED: ENDBRANCH   1   8
DOCKED: TORSDOF 4DOCKED: TER
DOCKED: ENDMDL
________________________________________________________________________________


	BEGINNING GENETIC ALGORITHM DOCKING 75 of 100
Run: 75 Seed: 1315125255 175357897 [ Run 75 of 100 GA/GALS ]
Beginning LAMARCKIAN GENETIC ALGORITHM (LGA), with a maximum of 2500000 energy evaluations.

Final-Value: -11.126


	FINAL GENETIC ALGORITHM DOCKED STATE
	_______________________________________________


Detailed state:  trans 35.758 12.608 123.867 quatxyzw 0.261405 0.245649 -0.872120 -0.332761 center 0.505 -0.158 0.114 ntor 4 -54.0425 -112.0239 105.2006 53.3225
State:	 35.758  12.608 123.867   0.277  0.260 -0.925 -141.127    -54.04 -112.02  105.20   53.32

DOCKED: MODEL       75
DOCKED: USER    Run = 75
DOCKED: USER    DPF = ligand_dock.biased.dpf
DOCKED: USER  
DOCKED: USER    Estimated Free Energy of Binding    =   -9.56 kcal/mol  [=(1)+(2)+(3)-(4)]
DOCKED: USER    Estimated Inhibition Constant, Ki   =   98.19 nM (nanomolar)  [Temperature = 298.15 K]
DOCKED: USER    
DOCKED: USER    (1) Final Intermolecular Energy     =  -10.75 kcal/mol
DOCKED: USER        vdW + Hbond + desolv Energy     =  -10.75 kcal/mol
DOCKED: USER        Electrostatic Energy            =   +0.00 kcal/mol
DOCKED: USER    (2) Final Total Internal Energy     =   -0.37 kcal/mol
DOCKED: USER    (3) Torsional Free Energy           =   +1.19 kcal/mol
DOCKED: USER    (4) Unbound System's Energy  [=(2)] =   -0.37 kcal/mol
DOCKED: USER    
DOCKED: USER    
DOCKED: USER    NEWDPF move ligand.dum.pdbqt
DOCKED: USER    NEWDPF about 0.505000 -0.158000 0.114000
DOCKED: USER    NEWDPF tran0 35.758009 12.608154 123.866713
DOCKED: USER    NEWDPF quaternion0 0.261405 0.245649 -0.872120 -0.332761
DOCKED: USER    NEWDPF axisangle0 0.277202 0.260494 -0.924825 -141.127085
DOCKED: USER    NEWDPF quat0 0.277202 0.260494 -0.924825 -141.127085
DOCKED: USER    NEWDPF dihe0 -54.04 -112.02 105.20 53.32 
DOCKED: USER  keepresnum = 1 
DOCKED: USER  
DOCKED: REMARK  Name = 
DOCKED: REMARK  4 active torsions:
DOCKED: REMARK  status: ('A' for Active; 'I' for Inactive)
DOCKED: REMARK    1  A    between atoms: C_3  and  C_4
DOCKED: REMARK    2  A    between atoms: C_4  and  C_5
DOCKED: REMARK    3  A    between atoms: C_5  and  C_6
DOCKED: REMARK    4  A    between atoms: C_6  and  C_7
DOCKED: REMARK                            x       y       z     vdW  Elec       q    Type
DOCKED: REMARK                         _______ _______ _______ _____ _____    ______ ____
DOCKED: USER                              x       y       z     vdW  Elec       q    Type
DOCKED: USER                           _______ _______ _______ _____ _____    ______ ____
DOCKED: ROOT
DOCKED: ATOM      1  C   UNL     1      36.564  11.604 123.375 -0.70 -0.00    +0.000 C 
DOCKED: ENDROOT
DOCKED: BRANCH   1   2
DOCKED: ATOM      2  C   UNL     1      35.873  10.712 122.337 -0.65 -0.00    +0.000 C 
DOCKED: BRANCH   2   5
DOCKED: ATOM      3  O   UNL     1      37.439   7.428 123.379 -2.34 -0.00    +0.000 OA
DOCKED: ATOM      4  N   UNL     1      36.852   8.644 123.451 -0.64 -0.00    +0.000 N 
DOCKED: ATOM      5  C   UNL     1      36.508   9.353 122.258 -0.71 -0.00    +0.000 C 
DOCKED: ATOM      6  O   UNL     1      36.766   8.851 121.131 -2.63 -0.00    +0.000 OA
DOCKED: ATOM      7  H   UNL     1      36.660   9.044 124.330 -0.37 -0.00    +0.000 HD
DOCKED: ENDBRANCH   2   5
DOCKED: ENDBRANCH   1   2
DOCKED: BRANCH   1   8
DOCKED: ATOM      8  C   UNL     1      35.936  13.002 123.454 -0.61 -0.00    +0.000 C 
DOCKED: BRANCH   8   9
DOCKED: ATOM      9  C   UNL     1      36.977  14.063 123.217 -0.46 -0.00    +0.000 A 
DOCKED: ATOM     10  C   UNL     1      36.710  15.405 123.541 -0.35 -0.00    +0.000 A 
DOCKED: ATOM     11  C   UNL     1      37.666  16.393 123.290 -0.25 -0.00    +0.000 A 
DOCKED: ATOM     12  C   UNL     1      38.890  16.053 122.706 -0.26 -0.00    +0.000 A 
DOCKED: ATOM     13  C   UNL     1      39.158  14.724 122.369 -0.37 -0.00    +0.000 A 
DOCKED: ATOM     14  C   UNL     1      38.204  13.732 122.618 -0.41 -0.00    +0.000 A 
DOCKED: ATOM     15  CM  UNL     1      37.934  15.061 122.956 +0.00 -0.00    +0.000 AC
DOCKED: ENDBRANCH   8   9
DOCKED: ENDBRANCH   1   8
DOCKED: TORSDOF 4DOCKED: TER
DOCKED: ENDMDL
________________________________________________________________________________


	BEGINNING GENETIC ALGORITHM DOCKING 76 of 100
Run: 76 Seed: 1566598247 619495691 [ Run 76 of 100 GA/GALS ]
Beginning LAMARCKIAN GENETIC ALGORITHM (LGA), with a maximum of 2500000 energy evaluations.

Final-Value: -11.218


	FINAL GENETIC ALGORITHM DOCKED STATE
	_______________________________________________


Detailed state:  trans 36.212 12.571 123.923 quatxyzw 0.810214 -0.198667 -0.504490 0.222654 center 0.505 -0.158 0.114 ntor 4 -98.9958 160.7840 -6.8897 -127.1504
State:	 36.212  12.571 123.923   0.831 -0.204 -0.517 154.270    -99.00  160.78   -6.89 -127.15

DOCKED: MODEL       76
DOCKED: USER    Run = 76
DOCKED: USER    DPF = ligand_dock.biased.dpf
DOCKED: USER  
DOCKED: USER    Estimated Free Energy of Binding    =   -9.50 kcal/mol  [=(1)+(2)+(3)-(4)]
DOCKED: USER    Estimated Inhibition Constant, Ki   =  107.86 nM (nanomolar)  [Temperature = 298.15 K]
DOCKED: USER    
DOCKED: USER    (1) Final Intermolecular Energy     =  -10.70 kcal/mol
DOCKED: USER        vdW + Hbond + desolv Energy     =  -10.70 kcal/mol
DOCKED: USER        Electrostatic Energy            =   +0.00 kcal/mol
DOCKED: USER    (2) Final Total Internal Energy     =   -0.52 kcal/mol
DOCKED: USER    (3) Torsional Free Energy           =   +1.19 kcal/mol
DOCKED: USER    (4) Unbound System's Energy  [=(2)] =   -0.52 kcal/mol
DOCKED: USER    
DOCKED: USER    
DOCKED: USER    NEWDPF move ligand.dum.pdbqt
DOCKED: USER    NEWDPF about 0.505000 -0.158000 0.114000
DOCKED: USER    NEWDPF tran0 36.212339 12.570528 123.922625
DOCKED: USER    NEWDPF quaternion0 0.810214 -0.198667 -0.504490 0.222654
DOCKED: USER    NEWDPF axisangle0 0.831076 -0.203783 -0.517480 154.270123
DOCKED: USER    NEWDPF quat0 0.831076 -0.203783 -0.517480 154.270123
DOCKED: USER    NEWDPF dihe0 -99.00 160.78 -6.89 -127.15 
DOCKED: USER  keepresnum = 1 
DOCKED: USER  
DOCKED: REMARK  Name = 
DOCKED: REMARK  4 active torsions:
DOCKED: REMARK  status: ('A' for Active; 'I' for Inactive)
DOCKED: REMARK    1  A    between atoms: C_3  and  C_4
DOCKED: REMARK    2  A    between atoms: C_4  and  C_5
DOCKED: REMARK    3  A    between atoms: C_5  and  C_6
DOCKED: REMARK    4  A    between atoms: C_6  and  C_7
DOCKED: REMARK                            x       y       z     vdW  Elec       q    Type
DOCKED: REMARK                         _______ _______ _______ _____ _____    ______ ____
DOCKED: USER                              x       y       z     vdW  Elec       q    Type
DOCKED: USER                           _______ _______ _______ _____ _____    ______ ____
DOCKED: ROOT
DOCKED: ATOM      1  C   UNL     1      35.567  11.434 123.485 -0.55 -0.00    +0.000 C 
DOCKED: ENDROOT
DOCKED: BRANCH   1   2
DOCKED: ATOM      2  C   UNL     1      36.006  10.975 122.090 -0.58 -0.00    +0.000 C 
DOCKED: BRANCH   2   5
DOCKED: ATOM      3  O   UNL     1      37.407   7.712 123.400 -2.57 -0.00    +0.000 OA
DOCKED: ATOM      4  N   UNL     1      36.809   8.925 123.366 -0.61 -0.00    +0.000 N 
DOCKED: ATOM      5  C   UNL     1      36.653   9.620 122.126 -0.69 -0.00    +0.000 C 
DOCKED: ATOM      6  O   UNL     1      37.088   9.108 121.059 -2.71 -0.00    +0.000 OA
DOCKED: ATOM      7  H   UNL     1      36.480   9.333 124.199 -0.41 -0.00    +0.000 HD
DOCKED: ENDBRANCH   2   5
DOCKED: ENDBRANCH   1   2
DOCKED: BRANCH   1   8
DOCKED: ATOM      8  C   UNL     1      36.647  12.263 124.194 -0.45 -0.00    +0.000 C 
DOCKED: BRANCH   8   9
DOCKED: ATOM      9  C   UNL     1      37.050  13.440 123.348 -0.50 -0.00    +0.000 A 
DOCKED: ATOM     10  C   UNL     1      36.283  14.618 123.361 -0.44 -0.00    +0.000 A 
DOCKED: ATOM     11  C   UNL     1      36.640  15.700 122.550 -0.29 -0.00    +0.000 A 
DOCKED: ATOM     12  C   UNL     1      37.757  15.610 121.714 -0.23 -0.00    +0.000 A 
DOCKED: ATOM     13  C   UNL     1      38.517  14.438 121.685 -0.35 -0.00    +0.000 A 
DOCKED: ATOM     14  C   UNL     1      38.163  13.353 122.495 -0.32 -0.00    +0.000 A 
DOCKED: ATOM     15  CM  UNL     1      37.401  14.526 122.525 +0.00 -0.00    +0.000 AC
DOCKED: ENDBRANCH   8   9
DOCKED: ENDBRANCH   1   8
DOCKED: TORSDOF 4DOCKED: TER
DOCKED: ENDMDL
________________________________________________________________________________


	BEGINNING GENETIC ALGORITHM DOCKING 77 of 100
Run: 77 Seed: 993688135 2146105244 [ Run 77 of 100 GA/GALS ]
Beginning LAMARCKIAN GENETIC ALGORITHM (LGA), with a maximum of 2500000 energy evaluations.

Final-Value: -11.729


	FINAL GENETIC ALGORITHM DOCKED STATE
	_______________________________________________


Detailed state:  trans 36.742 13.079 123.250 quatxyzw -0.698337 0.173295 0.694462 0.004249 center 0.505 -0.158 0.114 ntor 4 -90.9861 -169.1836 116.5969 -78.1615
State:	 36.742  13.079 123.250  -0.698  0.173  0.694 179.513    -90.99 -169.18  116.60  -78.16

DOCKED: MODEL       77
DOCKED: USER    Run = 77
DOCKED: USER    DPF = ligand_dock.biased.dpf
DOCKED: USER  
DOCKED: USER    Estimated Free Energy of Binding    =  -10.16 kcal/mol  [=(1)+(2)+(3)-(4)]
DOCKED: USER    Estimated Inhibition Constant, Ki   =   35.57 nM (nanomolar)  [Temperature = 298.15 K]
DOCKED: USER    
DOCKED: USER    (1) Final Intermolecular Energy     =  -11.36 kcal/mol
DOCKED: USER        vdW + Hbond + desolv Energy     =  -11.36 kcal/mol
DOCKED: USER        Electrostatic Energy            =   +0.00 kcal/mol
DOCKED: USER    (2) Final Total Internal Energy     =   -0.37 kcal/mol
DOCKED: USER    (3) Torsional Free Energy           =   +1.19 kcal/mol
DOCKED: USER    (4) Unbound System's Energy  [=(2)] =   -0.37 kcal/mol
DOCKED: USER    
DOCKED: USER    
DOCKED: USER    NEWDPF move ligand.dum.pdbqt
DOCKED: USER    NEWDPF about 0.505000 -0.158000 0.114000
DOCKED: USER    NEWDPF tran0 36.741827 13.079082 123.250388
DOCKED: USER    NEWDPF quaternion0 -0.698337 0.173295 0.694462 0.004249
DOCKED: USER    NEWDPF axisangle0 -0.698343 0.173296 0.694468 179.513073
DOCKED: USER    NEWDPF quat0 -0.698343 0.173296 0.694468 179.513073
DOCKED: USER    NEWDPF dihe0 -90.99 -169.18 116.60 -78.16 
DOCKED: USER  keepresnum = 1 
DOCKED: USER  
DOCKED: REMARK  Name = 
DOCKED: REMARK  4 active torsions:
DOCKED: REMARK  status: ('A' for Active; 'I' for Inactive)
DOCKED: REMARK    1  A    between atoms: C_3  and  C_4
DOCKED: REMARK    2  A    between atoms: C_4  and  C_5
DOCKED: REMARK    3  A    between atoms: C_5  and  C_6
DOCKED: REMARK    4  A    between atoms: C_6  and  C_7
DOCKED: REMARK                            x       y       z     vdW  Elec       q    Type
DOCKED: REMARK                         _______ _______ _______ _____ _____    ______ ____
DOCKED: USER                              x       y       z     vdW  Elec       q    Type
DOCKED: USER                           _______ _______ _______ _____ _____    ______ ____
DOCKED: ROOT
DOCKED: ATOM      1  C   UNL     1      36.412  11.745 123.352 -0.70 -0.00    +0.000 C 
DOCKED: ENDROOT
DOCKED: BRANCH   1   2
DOCKED: ATOM      2  C   UNL     1      36.320  11.029 121.999 -0.61 -0.00    +0.000 C 
DOCKED: BRANCH   2   5
DOCKED: ATOM      3  O   UNL     1      37.426   7.717 123.459 -2.61 -0.00    +0.000 OA
DOCKED: ATOM      4  N   UNL     1      37.024   9.006 123.371 -0.61 -0.00    +0.000 N 
DOCKED: ATOM      5  C   UNL     1      36.748   9.593 122.098 -0.68 -0.00    +0.000 C 
DOCKED: ATOM      6  O   UNL     1      36.894   8.913 121.046 -2.66 -0.00    +0.000 OA
DOCKED: ATOM      7  H   UNL     1      36.921   9.542 124.190 -0.54 -0.00    +0.000 HD
DOCKED: ENDBRANCH   2   5
DOCKED: ENDBRANCH   1   2
DOCKED: BRANCH   1   8
DOCKED: ATOM      8  C   UNL     1      37.328  12.975 123.300 -0.59 -0.00    +0.000 C 
DOCKED: BRANCH   8   9
DOCKED: ATOM      9  C   UNL     1      36.514  14.240 123.289 -0.45 -0.00    +0.000 A 
DOCKED: ATOM     10  C   UNL     1      37.034  15.413 122.715 -0.33 -0.00    +0.000 A 
DOCKED: ATOM     11  C   UNL     1      36.289  16.596 122.733 -0.26 -0.00    +0.000 A 
DOCKED: ATOM     12  C   UNL     1      35.027  16.620 123.333 -0.38 -0.00    +0.000 A 
DOCKED: ATOM     13  C   UNL     1      34.508  15.462 123.918 -0.53 -0.00    +0.000 A 
DOCKED: ATOM     14  C   UNL     1      35.250  14.277 123.902 -0.42 -0.00    +0.000 A 
DOCKED: ATOM     15  CM  UNL     1      35.771  15.435 123.315 +0.00 -0.00    +0.000 AC
DOCKED: ENDBRANCH   8   9
DOCKED: ENDBRANCH   1   8
DOCKED: TORSDOF 4DOCKED: TER
DOCKED: ENDMDL
________________________________________________________________________________


	BEGINNING GENETIC ALGORITHM DOCKING 78 of 100
Run: 78 Seed: 973325362 670101480 [ Run 78 of 100 GA/GALS ]
Beginning LAMARCKIAN GENETIC ALGORITHM (LGA), with a maximum of 2500000 energy evaluations.

Final-Value: -11.233


	FINAL GENETIC ALGORITHM DOCKED STATE
	_______________________________________________


Detailed state:  trans 37.229 13.405 122.593 quatxyzw 0.167971 -0.052979 -0.967510 -0.181393 center 0.505 -0.158 0.114 ntor 4 -33.6088 -146.6476 -123.4868 -92.5229
State:	 37.229  13.405 122.593   0.171 -0.054 -0.984 -159.098    -33.61 -146.65 -123.49  -92.52

DOCKED: MODEL       78
DOCKED: USER    Run = 78
DOCKED: USER    DPF = ligand_dock.biased.dpf
DOCKED: USER  
DOCKED: USER    Estimated Free Energy of Binding    =   -9.69 kcal/mol  [=(1)+(2)+(3)-(4)]
DOCKED: USER    Estimated Inhibition Constant, Ki   =   78.44 nM (nanomolar)  [Temperature = 298.15 K]
DOCKED: USER    
DOCKED: USER    (1) Final Intermolecular Energy     =  -10.89 kcal/mol
DOCKED: USER        vdW + Hbond + desolv Energy     =  -10.89 kcal/mol
DOCKED: USER        Electrostatic Energy            =   +0.00 kcal/mol
DOCKED: USER    (2) Final Total Internal Energy     =   -0.35 kcal/mol
DOCKED: USER    (3) Torsional Free Energy           =   +1.19 kcal/mol
DOCKED: USER    (4) Unbound System's Energy  [=(2)] =   -0.35 kcal/mol
DOCKED: USER    
DOCKED: USER    
DOCKED: USER    NEWDPF move ligand.dum.pdbqt
DOCKED: USER    NEWDPF about 0.505000 -0.158000 0.114000
DOCKED: USER    NEWDPF tran0 37.228515 13.404569 122.592556
DOCKED: USER    NEWDPF quaternion0 0.167971 -0.052979 -0.967510 -0.181393
DOCKED: USER    NEWDPF axisangle0 0.170805 -0.053873 -0.983831 -159.098201
DOCKED: USER    NEWDPF quat0 0.170805 -0.053873 -0.983831 -159.098201
DOCKED: USER    NEWDPF dihe0 -33.61 -146.65 -123.49 -92.52 
DOCKED: USER  keepresnum = 1 
DOCKED: USER  
DOCKED: REMARK  Name = 
DOCKED: REMARK  4 active torsions:
DOCKED: REMARK  status: ('A' for Active; 'I' for Inactive)
DOCKED: REMARK    1  A    between atoms: C_3  and  C_4
DOCKED: REMARK    2  A    between atoms: C_4  and  C_5
DOCKED: REMARK    3  A    between atoms: C_5  and  C_6
DOCKED: REMARK    4  A    between atoms: C_6  and  C_7
DOCKED: REMARK                            x       y       z     vdW  Elec       q    Type
DOCKED: REMARK                         _______ _______ _______ _____ _____    ______ ____
DOCKED: USER                              x       y       z     vdW  Elec       q    Type
DOCKED: USER                           _______ _______ _______ _____ _____    ______ ____
DOCKED: ROOT
DOCKED: ATOM      1  C   UNL     1      37.468  12.056 122.744 -0.43 -0.00    +0.000 C 
DOCKED: ENDROOT
DOCKED: BRANCH   1   2
DOCKED: ATOM      2  C   UNL     1      36.291  11.170 122.319 -0.66 -0.00    +0.000 C 
DOCKED: BRANCH   2   5
DOCKED: ATOM      3  O   UNL     1      37.422   7.721 123.393 -2.56 -0.00    +0.000 OA
DOCKED: ATOM      4  N   UNL     1      37.058   9.023 123.449 -0.59 -0.00    +0.000 N 
DOCKED: ATOM      5  C   UNL     1      36.677   9.720 122.260 -0.69 -0.00    +0.000 C 
DOCKED: ATOM      6  O   UNL     1      36.695   9.124 121.149 -2.62 -0.00    +0.000 OA
DOCKED: ATOM      7  H   UNL     1      37.054   9.493 124.313 -0.53 -0.00    +0.000 HD
DOCKED: ENDBRANCH   2   5
DOCKED: ENDBRANCH   1   2
DOCKED: BRANCH   1   8
DOCKED: ATOM      8  C   UNL     1      37.457  13.419 122.040 -0.49 -0.00    +0.000 C 
DOCKED: BRANCH   8   9
DOCKED: ATOM      9  C   UNL     1      36.680  14.425 122.848 -0.41 -0.00    +0.000 A 
DOCKED: ATOM     10  C   UNL     1      35.560  14.021 123.594 -0.45 -0.00    +0.000 A 
DOCKED: ATOM     11  C   UNL     1      34.821  14.962 124.318 -0.45 -0.00    +0.000 A 
DOCKED: ATOM     12  C   UNL     1      35.187  16.311 124.294 -0.42 -0.00    +0.000 A 
DOCKED: ATOM     13  C   UNL     1      36.291  16.722 123.543 -0.29 -0.00    +0.000 A 
DOCKED: ATOM     14  C   UNL     1      37.034  15.784 122.817 -0.30 -0.00    +0.000 A 
DOCKED: ATOM     15  CM  UNL     1      35.929  15.371 123.569 +0.00 -0.00    +0.000 AC
DOCKED: ENDBRANCH   8   9
DOCKED: ENDBRANCH   1   8
DOCKED: TORSDOF 4DOCKED: TER
DOCKED: ENDMDL
________________________________________________________________________________


	BEGINNING GENETIC ALGORITHM DOCKING 79 of 100
Run: 79 Seed: 382137685 32425635 [ Run 79 of 100 GA/GALS ]
Beginning LAMARCKIAN GENETIC ALGORITHM (LGA), with a maximum of 2500000 energy evaluations.

Final-Value: -11.647


	FINAL GENETIC ALGORITHM DOCKED STATE
	_______________________________________________


Detailed state:  trans 36.128 12.669 123.640 quatxyzw -0.879453 0.164792 0.382800 -0.229933 center 0.505 -0.158 0.114 ntor 4 -127.7449 172.3916 170.5570 -89.3996
State:	 36.128  12.669 123.640  -0.904  0.169  0.393 -153.414   -127.74  172.39  170.56  -89.40

DOCKED: MODEL       79
DOCKED: USER    Run = 79
DOCKED: USER    DPF = ligand_dock.biased.dpf
DOCKED: USER  
DOCKED: USER    Estimated Free Energy of Binding    =  -10.03 kcal/mol  [=(1)+(2)+(3)-(4)]
DOCKED: USER    Estimated Inhibition Constant, Ki   =   44.39 nM (nanomolar)  [Temperature = 298.15 K]
DOCKED: USER    
DOCKED: USER    (1) Final Intermolecular Energy     =  -11.22 kcal/mol
DOCKED: USER        vdW + Hbond + desolv Energy     =  -11.22 kcal/mol
DOCKED: USER        Electrostatic Energy            =   +0.00 kcal/mol
DOCKED: USER    (2) Final Total Internal Energy     =   -0.42 kcal/mol
DOCKED: USER    (3) Torsional Free Energy           =   +1.19 kcal/mol
DOCKED: USER    (4) Unbound System's Energy  [=(2)] =   -0.42 kcal/mol
DOCKED: USER    
DOCKED: USER    
DOCKED: USER    NEWDPF move ligand.dum.pdbqt
DOCKED: USER    NEWDPF about 0.505000 -0.158000 0.114000
DOCKED: USER    NEWDPF tran0 36.127544 12.668603 123.640239
DOCKED: USER    NEWDPF quaternion0 -0.879453 0.164792 0.382800 -0.229933
DOCKED: USER    NEWDPF axisangle0 -0.903666 0.169329 0.393339 -153.413723
DOCKED: USER    NEWDPF quat0 -0.903666 0.169329 0.393339 -153.413723
DOCKED: USER    NEWDPF dihe0 -127.74 172.39 170.56 -89.40 
DOCKED: USER  keepresnum = 1 
DOCKED: USER  
DOCKED: REMARK  Name = 
DOCKED: REMARK  4 active torsions:
DOCKED: REMARK  status: ('A' for Active; 'I' for Inactive)
DOCKED: REMARK    1  A    between atoms: C_3  and  C_4
DOCKED: REMARK    2  A    between atoms: C_4  and  C_5
DOCKED: REMARK    3  A    between atoms: C_5  and  C_6
DOCKED: REMARK    4  A    between atoms: C_6  and  C_7
DOCKED: REMARK                            x       y       z     vdW  Elec       q    Type
DOCKED: REMARK                         _______ _______ _______ _____ _____    ______ ____
DOCKED: USER                              x       y       z     vdW  Elec       q    Type
DOCKED: USER                           _______ _______ _______ _____ _____    ______ ____
DOCKED: ROOT
DOCKED: ATOM      1  C   UNL     1      35.650  11.503 123.080 -0.62 -0.00    +0.000 C 
DOCKED: ENDROOT
DOCKED: BRANCH   1   2
DOCKED: ATOM      2  C   UNL     1      36.473  11.014 121.882 -0.57 -0.00    +0.000 C 
DOCKED: BRANCH   2   5
DOCKED: ATOM      3  O   UNL     1      37.439   7.712 123.459 -2.60 -0.00    +0.000 OA
DOCKED: ATOM      4  N   UNL     1      37.064   9.005 123.327 -0.62 -0.00    +0.000 N 
DOCKED: ATOM      5  C   UNL     1      36.871   9.574 122.030 -0.65 -0.00    +0.000 C 
DOCKED: ATOM      6  O   UNL     1      37.064   8.872 121.000 -2.71 -0.00    +0.000 OA
DOCKED: ATOM      7  H   UNL     1      36.924   9.558 124.129 -0.53 -0.00    +0.000 HD
DOCKED: ENDBRANCH   2   5
DOCKED: ENDBRANCH   1   2
DOCKED: BRANCH   1   8
DOCKED: ATOM      8  C   UNL     1      36.473  12.380 124.034 -0.55 -0.00    +0.000 C 
DOCKED: BRANCH   8   9
DOCKED: ATOM      9  C   UNL     1      36.310  13.835 123.687 -0.49 -0.00    +0.000 A 
DOCKED: ATOM     10  C   UNL     1      37.298  14.501 122.940 -0.41 -0.00    +0.000 A 
DOCKED: ATOM     11  C   UNL     1      37.161  15.861 122.646 -0.28 -0.00    +0.000 A 
DOCKED: ATOM     12  C   UNL     1      36.044  16.568 123.102 -0.30 -0.00    +0.000 A 
DOCKED: ATOM     13  C   UNL     1      35.065  15.917 123.856 -0.46 -0.00    +0.000 A 
DOCKED: ATOM     14  C   UNL     1      35.198  14.556 124.153 -0.44 -0.00    +0.000 A 
DOCKED: ATOM     15  CM  UNL     1      36.180  15.206 123.398 +0.00 -0.00    +0.000 AC
DOCKED: ENDBRANCH   8   9
DOCKED: ENDBRANCH   1   8
DOCKED: TORSDOF 4DOCKED: TER
DOCKED: ENDMDL
________________________________________________________________________________


	BEGINNING GENETIC ALGORITHM DOCKING 80 of 100
Run: 80 Seed: 256192734 1209060366 [ Run 80 of 100 GA/GALS ]
Beginning LAMARCKIAN GENETIC ALGORITHM (LGA), with a maximum of 2500000 energy evaluations.

Final-Value: -11.482


	FINAL GENETIC ALGORITHM DOCKED STATE
	_______________________________________________


Detailed state:  trans 37.183 12.349 123.825 quatxyzw -0.238566 0.610178 -0.696141 -0.293523 center 0.505 -0.158 0.114 ntor 4 -22.7874 -46.9200 -132.3358 75.5043
State:	 37.183  12.349 123.825  -0.250  0.638 -0.728 -145.862    -22.79  -46.92 -132.34   75.50

DOCKED: MODEL       80
DOCKED: USER    Run = 80
DOCKED: USER    DPF = ligand_dock.biased.dpf
DOCKED: USER  
DOCKED: USER    Estimated Free Energy of Binding    =   -9.90 kcal/mol  [=(1)+(2)+(3)-(4)]
DOCKED: USER    Estimated Inhibition Constant, Ki   =   55.15 nM (nanomolar)  [Temperature = 298.15 K]
DOCKED: USER    
DOCKED: USER    (1) Final Intermolecular Energy     =  -11.10 kcal/mol
DOCKED: USER        vdW + Hbond + desolv Energy     =  -11.10 kcal/mol
DOCKED: USER        Electrostatic Energy            =   +0.00 kcal/mol
DOCKED: USER    (2) Final Total Internal Energy     =   -0.39 kcal/mol
DOCKED: USER    (3) Torsional Free Energy           =   +1.19 kcal/mol
DOCKED: USER    (4) Unbound System's Energy  [=(2)] =   -0.39 kcal/mol
DOCKED: USER    
DOCKED: USER    
DOCKED: USER    NEWDPF move ligand.dum.pdbqt
DOCKED: USER    NEWDPF about 0.505000 -0.158000 0.114000
DOCKED: USER    NEWDPF tran0 37.183382 12.348721 123.825371
DOCKED: USER    NEWDPF quaternion0 -0.238566 0.610178 -0.696141 -0.293523
DOCKED: USER    NEWDPF axisangle0 -0.249559 0.638294 -0.728218 -145.862002
DOCKED: USER    NEWDPF quat0 -0.249559 0.638294 -0.728218 -145.862002
DOCKED: USER    NEWDPF dihe0 -22.79 -46.92 -132.34 75.50 
DOCKED: USER  keepresnum = 1 
DOCKED: USER  
DOCKED: REMARK  Name = 
DOCKED: REMARK  4 active torsions:
DOCKED: REMARK  status: ('A' for Active; 'I' for Inactive)
DOCKED: REMARK    1  A    between atoms: C_3  and  C_4
DOCKED: REMARK    2  A    between atoms: C_4  and  C_5
DOCKED: REMARK    3  A    between atoms: C_5  and  C_6
DOCKED: REMARK    4  A    between atoms: C_6  and  C_7
DOCKED: REMARK                            x       y       z     vdW  Elec       q    Type
DOCKED: REMARK                         _______ _______ _______ _____ _____    ______ ____
DOCKED: USER                              x       y       z     vdW  Elec       q    Type
DOCKED: USER                           _______ _______ _______ _____ _____    ______ ____
DOCKED: ROOT
DOCKED: ATOM      1  C   UNL     1      37.174  12.065 122.477 -0.57 -0.00    +0.000 C 
DOCKED: ENDROOT
DOCKED: BRANCH   1   2
DOCKED: ATOM      2  C   UNL     1      36.131  11.014 122.076 -0.60 -0.00    +0.000 C 
DOCKED: BRANCH   2   5
DOCKED: ATOM      3  O   UNL     1      37.428   7.717 123.410 -2.57 -0.00    +0.000 OA
DOCKED: ATOM      4  N   UNL     1      36.904   8.964 123.371 -0.60 -0.00    +0.000 N 
DOCKED: ATOM      5  C   UNL     1      36.696   9.623 122.119 -0.69 -0.00    +0.000 C 
DOCKED: ATOM      6  O   UNL     1      37.017   9.048 121.045 -2.71 -0.00    +0.000 OA
DOCKED: ATOM      7  H   UNL     1      36.663   9.420 124.209 -0.47 -0.00    +0.000 HD
DOCKED: ENDBRANCH   2   5
DOCKED: ENDBRANCH   1   2
DOCKED: BRANCH   1   8
DOCKED: ATOM      8  C   UNL     1      36.795  12.800 123.770 -0.57 -0.00    +0.000 C 
DOCKED: BRANCH   8   9
DOCKED: ATOM      9  C   UNL     1      36.228  14.158 123.458 -0.48 -0.00    +0.000 A 
DOCKED: ATOM     10  C   UNL     1      36.826  14.970 122.479 -0.33 -0.00    +0.000 A 
DOCKED: ATOM     11  C   UNL     1      36.317  16.244 122.213 -0.24 -0.00    +0.000 A 
DOCKED: ATOM     12  C   UNL     1      35.215  16.722 122.928 -0.33 -0.00    +0.000 A 
DOCKED: ATOM     13  C   UNL     1      34.623  15.927 123.913 -0.50 -0.00    +0.000 A 
DOCKED: ATOM     14  C   UNL     1      35.129  14.652 124.182 -0.44 -0.00    +0.000 A 
DOCKED: ATOM     15  CM  UNL     1      35.723  15.446 123.196 +0.00 -0.00    +0.000 AC
DOCKED: ENDBRANCH   8   9
DOCKED: ENDBRANCH   1   8
DOCKED: TORSDOF 4DOCKED: TER
DOCKED: ENDMDL
________________________________________________________________________________


	BEGINNING GENETIC ALGORITHM DOCKING 81 of 100
Run: 81 Seed: 1984882193 1465570793 [ Run 81 of 100 GA/GALS ]
Beginning LAMARCKIAN GENETIC ALGORITHM (LGA), with a maximum of 2500000 energy evaluations.

Final-Value: -11.600


	FINAL GENETIC ALGORITHM DOCKED STATE
	_______________________________________________


Detailed state:  trans 36.099 12.949 123.438 quatxyzw 0.936579 -0.152688 -0.150647 0.277150 center 0.505 -0.158 0.114 ntor 4 -158.4827 -177.5656 -171.4539 -77.4939
State:	 36.099  12.949 123.438   0.975 -0.159 -0.157 147.820   -158.48 -177.57 -171.45  -77.49

DOCKED: MODEL       81
DOCKED: USER    Run = 81
DOCKED: USER    DPF = ligand_dock.biased.dpf
DOCKED: USER  
DOCKED: USER    Estimated Free Energy of Binding    =  -10.02 kcal/mol  [=(1)+(2)+(3)-(4)]
DOCKED: USER    Estimated Inhibition Constant, Ki   =   45.16 nM (nanomolar)  [Temperature = 298.15 K]
DOCKED: USER    
DOCKED: USER    (1) Final Intermolecular Energy     =  -11.21 kcal/mol
DOCKED: USER        vdW + Hbond + desolv Energy     =  -11.21 kcal/mol
DOCKED: USER        Electrostatic Energy            =   +0.00 kcal/mol
DOCKED: USER    (2) Final Total Internal Energy     =   -0.39 kcal/mol
DOCKED: USER    (3) Torsional Free Energy           =   +1.19 kcal/mol
DOCKED: USER    (4) Unbound System's Energy  [=(2)] =   -0.39 kcal/mol
DOCKED: USER    
DOCKED: USER    
DOCKED: USER    NEWDPF move ligand.dum.pdbqt
DOCKED: USER    NEWDPF about 0.505000 -0.158000 0.114000
DOCKED: USER    NEWDPF tran0 36.099359 12.949121 123.438360
DOCKED: USER    NEWDPF quaternion0 0.936579 -0.152688 -0.150647 0.277150
DOCKED: USER    NEWDPF axisangle0 0.974763 -0.158914 -0.156789 147.819671
DOCKED: USER    NEWDPF quat0 0.974763 -0.158914 -0.156789 147.819671
DOCKED: USER    NEWDPF dihe0 -158.48 -177.57 -171.45 -77.49 
DOCKED: USER  keepresnum = 1 
DOCKED: USER  
DOCKED: REMARK  Name = 
DOCKED: REMARK  4 active torsions:
DOCKED: REMARK  status: ('A' for Active; 'I' for Inactive)
DOCKED: REMARK    1  A    between atoms: C_3  and  C_4
DOCKED: REMARK    2  A    between atoms: C_4  and  C_5
DOCKED: REMARK    3  A    between atoms: C_5  and  C_6
DOCKED: REMARK    4  A    between atoms: C_6  and  C_7
DOCKED: REMARK                            x       y       z     vdW  Elec       q    Type
DOCKED: REMARK                         _______ _______ _______ _____ _____    ______ ____
DOCKED: USER                              x       y       z     vdW  Elec       q    Type
DOCKED: USER                           _______ _______ _______ _____ _____    ______ ____
DOCKED: ROOT
DOCKED: ATOM      1  C   UNL     1      35.816  11.817 122.705 -0.53 -0.00    +0.000 C 
DOCKED: ENDROOT
DOCKED: BRANCH   1   2
DOCKED: ATOM      2  C   UNL     1      37.042  11.209 122.012 -0.55 -0.00    +0.000 C 
DOCKED: BRANCH   2   5
DOCKED: ATOM      3  O   UNL     1      37.089   7.711 123.457 -2.69 -0.00    +0.000 OA
DOCKED: ATOM      4  N   UNL     1      37.068   9.062 123.376 -0.60 -0.00    +0.000 N 
DOCKED: ATOM      5  C   UNL     1      37.047   9.710 122.103 -0.59 -0.00    +0.000 C 
DOCKED: ATOM      6  O   UNL     1      37.063   9.023 121.046 -2.72 -0.00    +0.000 OA
DOCKED: ATOM      7  H   UNL     1      37.067   9.601 124.199 -0.58 -0.00    +0.000 HD
DOCKED: ENDBRANCH   2   5
DOCKED: ENDBRANCH   1   2
DOCKED: BRANCH   1   8
DOCKED: ATOM      8  C   UNL     1      36.194  12.642 123.943 -0.58 -0.00    +0.000 C 
DOCKED: BRANCH   8   9
DOCKED: ATOM      9  C   UNL     1      36.076  14.114 123.652 -0.48 -0.00    +0.000 A 
DOCKED: ATOM     10  C   UNL     1      37.117  14.793 122.995 -0.39 -0.00    +0.000 A 
DOCKED: ATOM     11  C   UNL     1      37.020  16.167 122.754 -0.26 -0.00    +0.000 A 
DOCKED: ATOM     12  C   UNL     1      35.890  16.874 123.177 -0.29 -0.00    +0.000 A 
DOCKED: ATOM     13  C   UNL     1      34.858  16.210 123.844 -0.46 -0.00    +0.000 A 
DOCKED: ATOM     14  C   UNL     1      34.951  14.835 124.086 -0.48 -0.00    +0.000 A 
DOCKED: ATOM     15  CM  UNL     1      35.985  15.499 123.419 +0.00 -0.00    +0.000 AC
DOCKED: ENDBRANCH   8   9
DOCKED: ENDBRANCH   1   8
DOCKED: TORSDOF 4DOCKED: TER
DOCKED: ENDMDL
________________________________________________________________________________


	BEGINNING GENETIC ALGORITHM DOCKING 82 of 100
Run: 82 Seed: 129517934 2137643644 [ Run 82 of 100 GA/GALS ]
Beginning LAMARCKIAN GENETIC ALGORITHM (LGA), with a maximum of 2500000 energy evaluations.

Final-Value: -11.640


	FINAL GENETIC ALGORITHM DOCKED STATE
	_______________________________________________


Detailed state:  trans 36.030 12.696 123.690 quatxyzw 0.895148 -0.168421 -0.326098 0.252991 center 0.505 -0.158 0.114 ntor 4 -144.6738 176.0230 173.7739 -91.3055
State:	 36.030  12.696 123.690   0.925 -0.174 -0.337 150.691   -144.67  176.02  173.77  -91.31

DOCKED: MODEL       82
DOCKED: USER    Run = 82
DOCKED: USER    DPF = ligand_dock.biased.dpf
DOCKED: USER  
DOCKED: USER    Estimated Free Energy of Binding    =  -10.03 kcal/mol  [=(1)+(2)+(3)-(4)]
DOCKED: USER    Estimated Inhibition Constant, Ki   =   44.80 nM (nanomolar)  [Temperature = 298.15 K]
DOCKED: USER    
DOCKED: USER    (1) Final Intermolecular Energy     =  -11.22 kcal/mol
DOCKED: USER        vdW + Hbond + desolv Energy     =  -11.22 kcal/mol
DOCKED: USER        Electrostatic Energy            =   +0.00 kcal/mol
DOCKED: USER    (2) Final Total Internal Energy     =   -0.42 kcal/mol
DOCKED: USER    (3) Torsional Free Energy           =   +1.19 kcal/mol
DOCKED: USER    (4) Unbound System's Energy  [=(2)] =   -0.42 kcal/mol
DOCKED: USER    
DOCKED: USER    
DOCKED: USER    NEWDPF move ligand.dum.pdbqt
DOCKED: USER    NEWDPF about 0.505000 -0.158000 0.114000
DOCKED: USER    NEWDPF tran0 36.030315 12.695530 123.690156
DOCKED: USER    NEWDPF quaternion0 0.895148 -0.168421 -0.326098 0.252991
DOCKED: USER    NEWDPF axisangle0 0.925248 -0.174084 -0.337063 150.690864
DOCKED: USER    NEWDPF quat0 0.925248 -0.174084 -0.337063 150.690864
DOCKED: USER    NEWDPF dihe0 -144.67 176.02 173.77 -91.31 
DOCKED: USER  keepresnum = 1 
DOCKED: USER  
DOCKED: REMARK  Name = 
DOCKED: REMARK  4 active torsions:
DOCKED: REMARK  status: ('A' for Active; 'I' for Inactive)
DOCKED: REMARK    1  A    between atoms: C_3  and  C_4
DOCKED: REMARK    2  A    between atoms: C_4  and  C_5
DOCKED: REMARK    3  A    between atoms: C_5  and  C_6
DOCKED: REMARK    4  A    between atoms: C_6  and  C_7
DOCKED: REMARK                            x       y       z     vdW  Elec       q    Type
DOCKED: REMARK                         _______ _______ _______ _____ _____    ______ ____
DOCKED: USER                              x       y       z     vdW  Elec       q    Type
DOCKED: USER                           _______ _______ _______ _____ _____    ______ ____
DOCKED: ROOT
DOCKED: ATOM      1  C   UNL     1      35.571  11.559 123.061 -0.59 -0.00    +0.000 C 
DOCKED: ENDROOT
DOCKED: BRANCH   1   2
DOCKED: ATOM      2  C   UNL     1      36.507  11.043 121.960 -0.61 -0.00    +0.000 C 
DOCKED: BRANCH   2   5
DOCKED: ATOM      3  O   UNL     1      37.304   7.659 123.456 -2.60 -0.00    +0.000 OA
DOCKED: ATOM      4  N   UNL     1      37.068   8.987 123.350 -0.62 -0.00    +0.000 N 
DOCKED: ATOM      5  C   UNL     1      36.751   9.567 122.082 -0.68 -0.00    +0.000 C 
DOCKED: ATOM      6  O   UNL     1      36.705   8.841 121.052 -2.62 -0.00    +0.000 OA
DOCKED: ATOM      7  H   UNL     1      37.114   9.558 124.150 -0.58 -0.00    +0.000 HD
DOCKED: ENDBRANCH   2   5
DOCKED: ENDBRANCH   1   2
DOCKED: BRANCH   1   8
DOCKED: ATOM      8  C   UNL     1      36.314  12.388 124.117 -0.55 -0.00    +0.000 C 
DOCKED: BRANCH   8   9
DOCKED: ATOM      9  C   UNL     1      36.298  13.847 123.750 -0.48 -0.00    +0.000 A 
DOCKED: ATOM     10  C   UNL     1      37.393  14.424 123.084 -0.43 -0.00    +0.000 A 
DOCKED: ATOM     11  C   UNL     1      37.390  15.786 122.772 -0.29 -0.00    +0.000 A 
DOCKED: ATOM     12  C   UNL     1      36.301  16.585 123.131 -0.28 -0.00    +0.000 A 
DOCKED: ATOM     13  C   UNL     1      35.214  16.023 123.806 -0.44 -0.00    +0.000 A 
DOCKED: ATOM     14  C   UNL     1      35.213  14.660 124.120 -0.47 -0.00    +0.000 A 
DOCKED: ATOM     15  CM  UNL     1      36.301  15.221 123.445 +0.00 -0.00    +0.000 AC
DOCKED: ENDBRANCH   8   9
DOCKED: ENDBRANCH   1   8
DOCKED: TORSDOF 4DOCKED: TER
DOCKED: ENDMDL
________________________________________________________________________________


	BEGINNING GENETIC ALGORITHM DOCKING 83 of 100
Run: 83 Seed: 495278825 802920784 [ Run 83 of 100 GA/GALS ]
Beginning LAMARCKIAN GENETIC ALGORITHM (LGA), with a maximum of 2500000 energy evaluations.

Final-Value: -10.530


	FINAL GENETIC ALGORITHM DOCKED STATE
	_______________________________________________


Detailed state:  trans 37.302 13.216 121.915 quatxyzw -0.521310 0.274389 -0.803458 -0.086037 center 0.505 -0.158 0.114 ntor 4 50.6962 -100.0384 -1.9178 -45.8879
State:	 37.302  13.216 121.915  -0.523  0.275 -0.806 -170.129     50.70 -100.04   -1.92  -45.89

DOCKED: MODEL       83
DOCKED: USER    Run = 83
DOCKED: USER    DPF = ligand_dock.biased.dpf
DOCKED: USER  
DOCKED: USER    Estimated Free Energy of Binding    =   -9.00 kcal/mol  [=(1)+(2)+(3)-(4)]
DOCKED: USER    Estimated Inhibition Constant, Ki   =  253.50 nM (nanomolar)  [Temperature = 298.15 K]
DOCKED: USER    
DOCKED: USER    (1) Final Intermolecular Energy     =  -10.19 kcal/mol
DOCKED: USER        vdW + Hbond + desolv Energy     =  -10.19 kcal/mol
DOCKED: USER        Electrostatic Energy            =   +0.00 kcal/mol
DOCKED: USER    (2) Final Total Internal Energy     =   -0.34 kcal/mol
DOCKED: USER    (3) Torsional Free Energy           =   +1.19 kcal/mol
DOCKED: USER    (4) Unbound System's Energy  [=(2)] =   -0.34 kcal/mol
DOCKED: USER    
DOCKED: USER    
DOCKED: USER    NEWDPF move ligand.dum.pdbqt
DOCKED: USER    NEWDPF about 0.505000 -0.158000 0.114000
DOCKED: USER    NEWDPF tran0 37.302282 13.216316 121.915299
DOCKED: USER    NEWDPF quaternion0 -0.521310 0.274389 -0.803458 -0.086037
DOCKED: USER    NEWDPF axisangle0 -0.523250 0.275411 -0.806448 -170.128659
DOCKED: USER    NEWDPF quat0 -0.523250 0.275411 -0.806448 -170.128659
DOCKED: USER    NEWDPF dihe0 50.70 -100.04 -1.92 -45.89 
DOCKED: USER  keepresnum = 1 
DOCKED: USER  
DOCKED: REMARK  Name = 
DOCKED: REMARK  4 active torsions:
DOCKED: REMARK  status: ('A' for Active; 'I' for Inactive)
DOCKED: REMARK    1  A    between atoms: C_3  and  C_4
DOCKED: REMARK    2  A    between atoms: C_4  and  C_5
DOCKED: REMARK    3  A    between atoms: C_5  and  C_6
DOCKED: REMARK    4  A    between atoms: C_6  and  C_7
DOCKED: REMARK                            x       y       z     vdW  Elec       q    Type
DOCKED: REMARK                         _______ _______ _______ _____ _____    ______ ____
DOCKED: USER                              x       y       z     vdW  Elec       q    Type
DOCKED: USER                           _______ _______ _______ _____ _____    ______ ____
DOCKED: ROOT
DOCKED: ATOM      1  C   UNL     1      36.999  11.980 121.387 -0.55 -0.00    +0.000 C 
DOCKED: ENDROOT
DOCKED: BRANCH   1   2
DOCKED: ATOM      2  C   UNL     1      36.260  11.057 122.364 -0.67 -0.00    +0.000 C 
DOCKED: BRANCH   2   5
DOCKED: ATOM      3  O   UNL     1      37.067   7.450 123.180 -2.41 -0.00    +0.000 OA
DOCKED: ATOM      4  N   UNL     1      36.673   8.737 123.323 -0.64 -0.00    +0.000 N 
DOCKED: ATOM      5  C   UNL     1      36.678   9.624 122.202 -0.70 -0.00    +0.000 C 
DOCKED: ATOM      6  O   UNL     1      37.066   9.212 121.075 -2.74 -0.00    +0.000 OA
DOCKED: ATOM      7  H   UNL     1      36.382   9.065 124.204 -0.37 -0.00    +0.000 HD
DOCKED: ENDBRANCH   2   5
DOCKED: ENDBRANCH   1   2
DOCKED: BRANCH   1   8
DOCKED: ATOM      8  C   UNL     1      36.795  13.465 121.719 -0.36 -0.00    +0.000 C 
DOCKED: BRANCH   8   9
DOCKED: ATOM      9  C   UNL     1      38.094  14.215 121.599 -0.36 -0.00    +0.000 A 
DOCKED: ATOM     10  C   UNL     1      38.491  14.753 120.362 -0.25 -0.00    +0.000 A 
DOCKED: ATOM     11  C   UNL     1      39.713  15.423 120.246 -0.16 -0.00    +0.000 A 
DOCKED: ATOM     12  C   UNL     1      40.551  15.551 121.357 -0.26 -0.00    +0.000 A 
DOCKED: ATOM     13  C   UNL     1      40.170  15.007 122.587 -0.37 -0.00    +0.000 A 
DOCKED: ATOM     14  C   UNL     1      38.949  14.337 122.708 -0.35 -0.00    +0.000 A 
DOCKED: ATOM     15  CM  UNL     1      39.328  14.881 121.477 +0.00 -0.00    +0.000 AC
DOCKED: ENDBRANCH   8   9
DOCKED: ENDBRANCH   1   8
DOCKED: TORSDOF 4DOCKED: TER
DOCKED: ENDMDL
________________________________________________________________________________


	BEGINNING GENETIC ALGORITHM DOCKING 84 of 100
Run: 84 Seed: 1273417162 768646665 [ Run 84 of 100 GA/GALS ]
Beginning LAMARCKIAN GENETIC ALGORITHM (LGA), with a maximum of 2500000 energy evaluations.

Final-Value: -11.704


	FINAL GENETIC ALGORITHM DOCKED STATE
	_______________________________________________


Detailed state:  trans 37.059 13.269 123.213 quatxyzw -0.600292 0.127655 0.787489 0.056697 center 0.505 -0.158 0.114 ntor 4 -71.3514 -155.7068 -67.0063 -87.1817
State:	 37.059  13.269 123.213  -0.601  0.128  0.789 173.499    -71.35 -155.71  -67.01  -87.18

DOCKED: MODEL       84
DOCKED: USER    Run = 84
DOCKED: USER    DPF = ligand_dock.biased.dpf
DOCKED: USER  
DOCKED: USER    Estimated Free Energy of Binding    =  -10.12 kcal/mol  [=(1)+(2)+(3)-(4)]
DOCKED: USER    Estimated Inhibition Constant, Ki   =   38.04 nM (nanomolar)  [Temperature = 298.15 K]
DOCKED: USER    
DOCKED: USER    (1) Final Intermolecular Energy     =  -11.32 kcal/mol
DOCKED: USER        vdW + Hbond + desolv Energy     =  -11.32 kcal/mol
DOCKED: USER        Electrostatic Energy            =   +0.00 kcal/mol
DOCKED: USER    (2) Final Total Internal Energy     =   -0.39 kcal/mol
DOCKED: USER    (3) Torsional Free Energy           =   +1.19 kcal/mol
DOCKED: USER    (4) Unbound System's Energy  [=(2)] =   -0.39 kcal/mol
DOCKED: USER    
DOCKED: USER    
DOCKED: USER    NEWDPF move ligand.dum.pdbqt
DOCKED: USER    NEWDPF about 0.505000 -0.158000 0.114000
DOCKED: USER    NEWDPF tran0 37.059377 13.268860 123.213375
DOCKED: USER    NEWDPF quaternion0 -0.600292 0.127655 0.787489 0.056697
DOCKED: USER    NEWDPF axisangle0 -0.601259 0.127861 0.788758 173.499459
DOCKED: USER    NEWDPF quat0 -0.601259 0.127861 0.788758 173.499459
DOCKED: USER    NEWDPF dihe0 -71.35 -155.71 -67.01 -87.18 
DOCKED: USER  keepresnum = 1 
DOCKED: USER  
DOCKED: REMARK  Name = 
DOCKED: REMARK  4 active torsions:
DOCKED: REMARK  status: ('A' for Active; 'I' for Inactive)
DOCKED: REMARK    1  A    between atoms: C_3  and  C_4
DOCKED: REMARK    2  A    between atoms: C_4  and  C_5
DOCKED: REMARK    3  A    between atoms: C_5  and  C_6
DOCKED: REMARK    4  A    between atoms: C_6  and  C_7
DOCKED: REMARK                            x       y       z     vdW  Elec       q    Type
DOCKED: REMARK                         _______ _______ _______ _____ _____    ______ ____
DOCKED: USER                              x       y       z     vdW  Elec       q    Type
DOCKED: USER                           _______ _______ _______ _____ _____    ______ ____
DOCKED: ROOT
DOCKED: ATOM      1  C   UNL     1      36.903  11.907 123.355 -0.68 -0.00    +0.000 C 
DOCKED: ENDROOT
DOCKED: BRANCH   1   2
DOCKED: ATOM      2  C   UNL     1      36.503  11.194 122.058 -0.62 -0.00    +0.000 C 
DOCKED: BRANCH   2   5
DOCKED: ATOM      3  O   UNL     1      37.099   7.716 123.426 -2.68 -0.00    +0.000 OA
DOCKED: ATOM      4  N   UNL     1      36.819   9.039 123.372 -0.59 -0.00    +0.000 N 
DOCKED: ATOM      5  C   UNL     1      36.795   9.723 122.117 -0.66 -0.00    +0.000 C 
DOCKED: ATOM      6  O   UNL     1      37.051   9.095 121.054 -2.72 -0.00    +0.000 OA
DOCKED: ATOM      7  H   UNL     1      36.631   9.534 124.202 -0.46 -0.00    +0.000 HD
DOCKED: ENDBRANCH   2   5
DOCKED: ENDBRANCH   1   2
DOCKED: BRANCH   1   8
DOCKED: ATOM      8  C   UNL     1      37.643  13.225 123.093 -0.54 -0.00    +0.000 C 
DOCKED: BRANCH   8   9
DOCKED: ATOM      9  C   UNL     1      36.687  14.387 123.141 -0.44 -0.00    +0.000 A 
DOCKED: ATOM     10  C   UNL     1      35.470  14.276 123.835 -0.48 -0.00    +0.000 A 
DOCKED: ATOM     11  C   UNL     1      34.569  15.344 123.852 -0.52 -0.00    +0.000 A 
DOCKED: ATOM     12  C   UNL     1      34.870  16.526 123.167 -0.38 -0.00    +0.000 A 
DOCKED: ATOM     13  C   UNL     1      36.071  16.639 122.463 -0.25 -0.00    +0.000 A 
DOCKED: ATOM     14  C   UNL     1      36.976  15.572 122.444 -0.29 -0.00    +0.000 A 
DOCKED: ATOM     15  CM  UNL     1      35.774  15.457 123.150 +0.00 -0.00    +0.000 AC
DOCKED: ENDBRANCH   8   9
DOCKED: ENDBRANCH   1   8
DOCKED: TORSDOF 4DOCKED: TER
DOCKED: ENDMDL
________________________________________________________________________________


	BEGINNING GENETIC ALGORITHM DOCKING 85 of 100
Run: 85 Seed: 774223092 1145519147 [ Run 85 of 100 GA/GALS ]
Beginning LAMARCKIAN GENETIC ALGORITHM (LGA), with a maximum of 2500000 energy evaluations.

Final-Value: -11.303


	FINAL GENETIC ALGORITHM DOCKED STATE
	_______________________________________________


Detailed state:  trans 35.790 13.239 122.981 quatxyzw 0.915035 -0.054120 -0.387511 -0.098065 center 0.505 -0.158 0.114 ntor 4 -153.8766 -127.6143 164.5795 -174.6557
State:	 35.790  13.239 122.981   0.919 -0.054 -0.389 -168.745   -153.88 -127.61  164.58 -174.66

DOCKED: MODEL       85
DOCKED: USER    Run = 85
DOCKED: USER    DPF = ligand_dock.biased.dpf
DOCKED: USER  
DOCKED: USER    Estimated Free Energy of Binding    =   -9.69 kcal/mol  [=(1)+(2)+(3)-(4)]
DOCKED: USER    Estimated Inhibition Constant, Ki   =   78.65 nM (nanomolar)  [Temperature = 298.15 K]
DOCKED: USER    
DOCKED: USER    (1) Final Intermolecular Energy     =  -10.89 kcal/mol
DOCKED: USER        vdW + Hbond + desolv Energy     =  -10.89 kcal/mol
DOCKED: USER        Electrostatic Energy            =   +0.00 kcal/mol
DOCKED: USER    (2) Final Total Internal Energy     =   -0.42 kcal/mol
DOCKED: USER    (3) Torsional Free Energy           =   +1.19 kcal/mol
DOCKED: USER    (4) Unbound System's Energy  [=(2)] =   -0.42 kcal/mol
DOCKED: USER    
DOCKED: USER    
DOCKED: USER    NEWDPF move ligand.dum.pdbqt
DOCKED: USER    NEWDPF about 0.505000 -0.158000 0.114000
DOCKED: USER    NEWDPF tran0 35.790157 13.239063 122.981187
DOCKED: USER    NEWDPF quaternion0 0.915035 -0.054120 -0.387511 -0.098065
DOCKED: USER    NEWDPF axisangle0 0.919467 -0.054382 -0.389388 -168.744518
DOCKED: USER    NEWDPF quat0 0.919467 -0.054382 -0.389388 -168.744518
DOCKED: USER    NEWDPF dihe0 -153.88 -127.61 164.58 -174.66 
DOCKED: USER  keepresnum = 1 
DOCKED: USER  
DOCKED: REMARK  Name = 
DOCKED: REMARK  4 active torsions:
DOCKED: REMARK  status: ('A' for Active; 'I' for Inactive)
DOCKED: REMARK    1  A    between atoms: C_3  and  C_4
DOCKED: REMARK    2  A    between atoms: C_4  and  C_5
DOCKED: REMARK    3  A    between atoms: C_5  and  C_6
DOCKED: REMARK    4  A    between atoms: C_6  and  C_7
DOCKED: REMARK                            x       y       z     vdW  Elec       q    Type
DOCKED: REMARK                         _______ _______ _______ _____ _____    ______ ____
DOCKED: USER                              x       y       z     vdW  Elec       q    Type
DOCKED: USER                           _______ _______ _______ _____ _____    ______ ____
DOCKED: ROOT
DOCKED: ATOM      1  C   UNL     1      35.923  11.873 123.111 -0.66 -0.00    +0.000 C 
DOCKED: ENDROOT
DOCKED: BRANCH   1   2
DOCKED: ATOM      2  C   UNL     1      36.971  11.265 122.171 -0.58 -0.00    +0.000 C 
DOCKED: BRANCH   2   5
DOCKED: ATOM      3  O   UNL     1      37.068   7.704 123.451 -2.69 -0.00    +0.000 OA
DOCKED: ATOM      4  N   UNL     1      37.081   9.057 123.431 -0.58 -0.00    +0.000 N 
DOCKED: ATOM      5  C   UNL     1      36.938   9.764 122.196 -0.62 -0.00    +0.000 C 
DOCKED: ATOM      6  O   UNL     1      36.815   9.125 121.117 -2.65 -0.00    +0.000 OA
DOCKED: ATOM      7  H   UNL     1      37.188   9.558 124.271 -0.59 -0.00    +0.000 HD
DOCKED: ENDBRANCH   2   5
DOCKED: ENDBRANCH   1   2
DOCKED: BRANCH   1   8
DOCKED: ATOM      8  C   UNL     1      36.194  13.355 123.406 -0.59 -0.00    +0.000 C 
DOCKED: BRANCH   8   9
DOCKED: ATOM      9  C   UNL     1      37.307  13.872 122.536 -0.44 -0.00    +0.000 A 
DOCKED: ATOM     10  C   UNL     1      38.581  14.112 123.080 -0.35 -0.00    +0.000 A 
DOCKED: ATOM     11  C   UNL     1      39.605  14.623 122.277 -0.35 -0.00    +0.000 A 
DOCKED: ATOM     12  C   UNL     1      39.363  14.908 120.929 -0.26 -0.00    +0.000 A 
DOCKED: ATOM     13  C   UNL     1      38.096  14.686 120.384 -0.26 -0.00    +0.000 A 
DOCKED: ATOM     14  C   UNL     1      37.069  14.175 121.184 -0.28 -0.00    +0.000 A 
DOCKED: ATOM     15  CM  UNL     1      38.336  14.396 121.732 +0.00 -0.00    +0.000 AC
DOCKED: ENDBRANCH   8   9
DOCKED: ENDBRANCH   1   8
DOCKED: TORSDOF 4DOCKED: TER
DOCKED: ENDMDL
________________________________________________________________________________


	BEGINNING GENETIC ALGORITHM DOCKING 86 of 100
Run: 86 Seed: 279130434 505361593 [ Run 86 of 100 GA/GALS ]
Beginning LAMARCKIAN GENETIC ALGORITHM (LGA), with a maximum of 2500000 energy evaluations.

Final-Value: -11.597


	FINAL GENETIC ALGORITHM DOCKED STATE
	_______________________________________________


Detailed state:  trans 35.822 12.099 124.015 quatxyzw -0.322055 -0.431396 0.668468 0.513155 center 0.505 -0.158 0.114 ntor 4 -96.7805 -47.6736 -81.8409 82.6398
State:	 35.822  12.099 124.015  -0.375 -0.503  0.779 118.252    -96.78  -47.67  -81.84   82.64

DOCKED: MODEL       86
DOCKED: USER    Run = 86
DOCKED: USER    DPF = ligand_dock.biased.dpf
DOCKED: USER  
DOCKED: USER    Estimated Free Energy of Binding    =  -10.02 kcal/mol  [=(1)+(2)+(3)-(4)]
DOCKED: USER    Estimated Inhibition Constant, Ki   =   45.03 nM (nanomolar)  [Temperature = 298.15 K]
DOCKED: USER    
DOCKED: USER    (1) Final Intermolecular Energy     =  -11.22 kcal/mol
DOCKED: USER        vdW + Hbond + desolv Energy     =  -11.22 kcal/mol
DOCKED: USER        Electrostatic Energy            =   +0.00 kcal/mol
DOCKED: USER    (2) Final Total Internal Energy     =   -0.38 kcal/mol
DOCKED: USER    (3) Torsional Free Energy           =   +1.19 kcal/mol
DOCKED: USER    (4) Unbound System's Energy  [=(2)] =   -0.38 kcal/mol
DOCKED: USER    
DOCKED: USER    
DOCKED: USER    NEWDPF move ligand.dum.pdbqt
DOCKED: USER    NEWDPF about 0.505000 -0.158000 0.114000
DOCKED: USER    NEWDPF tran0 35.822208 12.099126 124.015143
DOCKED: USER    NEWDPF quaternion0 -0.322055 -0.431396 0.668468 0.513155
DOCKED: USER    NEWDPF axisangle0 -0.375226 -0.502619 0.778832 118.251639
DOCKED: USER    NEWDPF quat0 -0.375226 -0.502619 0.778832 118.251639
DOCKED: USER    NEWDPF dihe0 -96.78 -47.67 -81.84 82.64 
DOCKED: USER  keepresnum = 1 
DOCKED: USER  
DOCKED: REMARK  Name = 
DOCKED: REMARK  4 active torsions:
DOCKED: REMARK  status: ('A' for Active; 'I' for Inactive)
DOCKED: REMARK    1  A    between atoms: C_3  and  C_4
DOCKED: REMARK    2  A    between atoms: C_4  and  C_5
DOCKED: REMARK    3  A    between atoms: C_5  and  C_6
DOCKED: REMARK    4  A    between atoms: C_6  and  C_7
DOCKED: REMARK                            x       y       z     vdW  Elec       q    Type
DOCKED: REMARK                         _______ _______ _______ _____ _____    ______ ____
DOCKED: USER                              x       y       z     vdW  Elec       q    Type
DOCKED: USER                           _______ _______ _______ _____ _____    ______ ____
DOCKED: ROOT
DOCKED: ATOM      1  C   UNL     1      37.066  11.860 123.472 -0.67 -0.00    +0.000 C 
DOCKED: ENDROOT
DOCKED: BRANCH   1   2
DOCKED: ATOM      2  C   UNL     1      37.018  11.243 122.069 -0.56 -0.00    +0.000 C 
DOCKED: BRANCH   2   5
DOCKED: ATOM      3  O   UNL     1      37.092   7.708 123.418 -2.67 -0.00    +0.000 OA
DOCKED: ATOM      4  N   UNL     1      37.059   9.060 123.374 -0.60 -0.00    +0.000 N 
DOCKED: ATOM      5  C   UNL     1      37.036   9.743 122.119 -0.59 -0.00    +0.000 C 
DOCKED: ATOM      6  O   UNL     1      37.062   9.084 121.044 -2.72 -0.00    +0.000 OA
DOCKED: ATOM      7  H   UNL     1      37.050   9.576 124.212 -0.58 -0.00    +0.000 HD
DOCKED: ENDBRANCH   2   5
DOCKED: ENDBRANCH   1   2
DOCKED: BRANCH   1   8
DOCKED: ATOM      8  C   UNL     1      35.798  12.658 123.804 -0.51 -0.00    +0.000 C 
DOCKED: BRANCH   8   9
DOCKED: ATOM      9  C   UNL     1      35.993  14.116 123.487 -0.48 -0.00    +0.000 A 
DOCKED: ATOM     10  C   UNL     1      37.151  14.548 122.816 -0.40 -0.00    +0.000 A 
DOCKED: ATOM     11  C   UNL     1      37.346  15.906 122.551 -0.27 -0.00    +0.000 A 
DOCKED: ATOM     12  C   UNL     1      36.394  16.844 122.963 -0.25 -0.00    +0.000 A 
DOCKED: ATOM     13  C   UNL     1      35.248  16.425 123.643 -0.39 -0.00    +0.000 A 
DOCKED: ATOM     14  C   UNL     1      35.049  15.067 123.909 -0.51 -0.00    +0.000 A 
DOCKED: ATOM     15  CM  UNL     1      36.197  15.484 123.229 +0.00 -0.00    +0.000 AC
DOCKED: ENDBRANCH   8   9
DOCKED: ENDBRANCH   1   8
DOCKED: TORSDOF 4DOCKED: TER
DOCKED: ENDMDL
________________________________________________________________________________


	BEGINNING GENETIC ALGORITHM DOCKING 87 of 100
Run: 87 Seed: 1359006055 1185206130 [ Run 87 of 100 GA/GALS ]
Beginning LAMARCKIAN GENETIC ALGORITHM (LGA), with a maximum of 2500000 energy evaluations.

Final-Value: -11.274


	FINAL GENETIC ALGORITHM DOCKED STATE
	_______________________________________________


Detailed state:  trans 36.789 13.229 122.981 quatxyzw 0.419729 -0.123413 -0.887077 -0.147279 center 0.505 -0.158 0.114 ntor 4 -30.6631 -162.9583 59.1413 -73.4080
State:	 36.789  13.229 122.981   0.424 -0.125 -0.897 -163.061    -30.66 -162.96   59.14  -73.41

DOCKED: MODEL       87
DOCKED: USER    Run = 87
DOCKED: USER    DPF = ligand_dock.biased.dpf
DOCKED: USER  
DOCKED: USER    Estimated Free Energy of Binding    =   -9.72 kcal/mol  [=(1)+(2)+(3)-(4)]
DOCKED: USER    Estimated Inhibition Constant, Ki   =   74.81 nM (nanomolar)  [Temperature = 298.15 K]
DOCKED: USER    
DOCKED: USER    (1) Final Intermolecular Energy     =  -10.91 kcal/mol
DOCKED: USER        vdW + Hbond + desolv Energy     =  -10.91 kcal/mol
DOCKED: USER        Electrostatic Energy            =   +0.00 kcal/mol
DOCKED: USER    (2) Final Total Internal Energy     =   -0.36 kcal/mol
DOCKED: USER    (3) Torsional Free Energy           =   +1.19 kcal/mol
DOCKED: USER    (4) Unbound System's Energy  [=(2)] =   -0.36 kcal/mol
DOCKED: USER    
DOCKED: USER    
DOCKED: USER    NEWDPF move ligand.dum.pdbqt
DOCKED: USER    NEWDPF about 0.505000 -0.158000 0.114000
DOCKED: USER    NEWDPF tran0 36.788518 13.229365 122.980516
DOCKED: USER    NEWDPF quaternion0 0.419729 -0.123413 -0.887077 -0.147279
DOCKED: USER    NEWDPF axisangle0 0.424356 -0.124774 -0.896857 -163.061433
DOCKED: USER    NEWDPF quat0 0.424356 -0.124774 -0.896857 -163.061433
DOCKED: USER    NEWDPF dihe0 -30.66 -162.96 59.14 -73.41 
DOCKED: USER  keepresnum = 1 
DOCKED: USER  
DOCKED: REMARK  Name = 
DOCKED: REMARK  4 active torsions:
DOCKED: REMARK  status: ('A' for Active; 'I' for Inactive)
DOCKED: REMARK    1  A    between atoms: C_3  and  C_4
DOCKED: REMARK    2  A    between atoms: C_4  and  C_5
DOCKED: REMARK    3  A    between atoms: C_5  and  C_6
DOCKED: REMARK    4  A    between atoms: C_6  and  C_7
DOCKED: REMARK                            x       y       z     vdW  Elec       q    Type
DOCKED: REMARK                         _______ _______ _______ _____ _____    ______ ____
DOCKED: USER                              x       y       z     vdW  Elec       q    Type
DOCKED: USER                           _______ _______ _______ _____ _____    ______ ____
DOCKED: ROOT
DOCKED: ATOM      1  C   UNL     1      36.854  11.885 123.277 -0.68 -0.00    +0.000 C 
DOCKED: ENDROOT
DOCKED: BRANCH   1   2
DOCKED: ATOM      2  C   UNL     1      36.035  11.004 122.326 -0.65 -0.00    +0.000 C 
DOCKED: BRANCH   2   5
DOCKED: ATOM      3  O   UNL     1      37.056   7.488 123.285 -2.47 -0.00    +0.000 OA
DOCKED: ATOM      4  N   UNL     1      36.538   8.735 123.363 -0.62 -0.00    +0.000 N 
DOCKED: ATOM      5  C   UNL     1      36.593   9.613 122.235 -0.69 -0.00    +0.000 C 
DOCKED: ATOM      6  O   UNL     1      37.140   9.230 121.166 -2.65 -0.00    +0.000 OA
DOCKED: ATOM      7  H   UNL     1      36.120   9.041 124.200 -0.27 -0.00    +0.000 HD
DOCKED: ENDBRANCH   2   5
DOCKED: ENDBRANCH   1   2
DOCKED: BRANCH   1   8
DOCKED: ATOM      8  C   UNL     1      37.272  13.212 122.629 -0.55 -0.00    +0.000 C 
DOCKED: BRANCH   8   9
DOCKED: ATOM      9  C   UNL     1      36.516  14.360 123.241 -0.44 -0.00    +0.000 A 
DOCKED: ATOM     10  C   UNL     1      37.111  15.630 123.339 -0.33 -0.00    +0.000 A 
DOCKED: ATOM     11  C   UNL     1      36.419  16.688 123.936 -0.27 -0.00    +0.000 A 
DOCKED: ATOM     12  C   UNL     1      35.135  16.484 124.450 -0.40 -0.00    +0.000 A 
DOCKED: ATOM     13  C   UNL     1      34.542  15.221 124.370 -0.50 -0.00    +0.000 A 
DOCKED: ATOM     14  C   UNL     1      35.230  14.160 123.773 -0.39 -0.00    +0.000 A 
DOCKED: ATOM     15  CM  UNL     1      35.825  15.424 123.852 +0.00 -0.00    +0.000 AC
DOCKED: ENDBRANCH   8   9
DOCKED: ENDBRANCH   1   8
DOCKED: TORSDOF 4DOCKED: TER
DOCKED: ENDMDL
________________________________________________________________________________


	BEGINNING GENETIC ALGORITHM DOCKING 88 of 100
Run: 88 Seed: 1176985282 1585818247 [ Run 88 of 100 GA/GALS ]
Beginning LAMARCKIAN GENETIC ALGORITHM (LGA), with a maximum of 2500000 energy evaluations.

Final-Value: -11.395


	FINAL GENETIC ALGORITHM DOCKED STATE
	_______________________________________________


Detailed state:  trans 36.705 12.308 123.207 quatxyzw -0.698154 0.481581 0.509939 -0.143607 center 0.505 -0.158 0.114 ntor 4 -42.9156 116.3738 -159.6465 -105.0485
State:	 36.705  12.308 123.207  -0.705  0.487  0.515 -163.487    -42.92  116.37 -159.65 -105.05

DOCKED: MODEL       88
DOCKED: USER    Run = 88
DOCKED: USER    DPF = ligand_dock.biased.dpf
DOCKED: USER  
DOCKED: USER    Estimated Free Energy of Binding    =   -9.63 kcal/mol  [=(1)+(2)+(3)-(4)]
DOCKED: USER    Estimated Inhibition Constant, Ki   =   86.99 nM (nanomolar)  [Temperature = 298.15 K]
DOCKED: USER    
DOCKED: USER    (1) Final Intermolecular Energy     =  -10.83 kcal/mol
DOCKED: USER        vdW + Hbond + desolv Energy     =  -10.83 kcal/mol
DOCKED: USER        Electrostatic Energy            =   +0.00 kcal/mol
DOCKED: USER    (2) Final Total Internal Energy     =   -0.57 kcal/mol
DOCKED: USER    (3) Torsional Free Energy           =   +1.19 kcal/mol
DOCKED: USER    (4) Unbound System's Energy  [=(2)] =   -0.57 kcal/mol
DOCKED: USER    
DOCKED: USER    
DOCKED: USER    NEWDPF move ligand.dum.pdbqt
DOCKED: USER    NEWDPF about 0.505000 -0.158000 0.114000
DOCKED: USER    NEWDPF tran0 36.705479 12.307992 123.206548
DOCKED: USER    NEWDPF quaternion0 -0.698154 0.481581 0.509939 -0.143607
DOCKED: USER    NEWDPF axisangle0 -0.705467 0.486625 0.515280 -163.486700
DOCKED: USER    NEWDPF quat0 -0.705467 0.486625 0.515280 -163.486700
DOCKED: USER    NEWDPF dihe0 -42.92 116.37 -159.65 -105.05 
DOCKED: USER  keepresnum = 1 
DOCKED: USER  
DOCKED: REMARK  Name = 
DOCKED: REMARK  4 active torsions:
DOCKED: REMARK  status: ('A' for Active; 'I' for Inactive)
DOCKED: REMARK    1  A    between atoms: C_3  and  C_4
DOCKED: REMARK    2  A    between atoms: C_4  and  C_5
DOCKED: REMARK    3  A    between atoms: C_5  and  C_6
DOCKED: REMARK    4  A    between atoms: C_6  and  C_7
DOCKED: REMARK                            x       y       z     vdW  Elec       q    Type
DOCKED: REMARK                         _______ _______ _______ _____ _____    ______ ____
DOCKED: USER                              x       y       z     vdW  Elec       q    Type
DOCKED: USER                           _______ _______ _______ _____ _____    ______ ____
DOCKED: ROOT
DOCKED: ATOM      1  C   UNL     1      35.596  11.512 123.394 -0.58 -0.00    +0.000 C 
DOCKED: ENDROOT
DOCKED: BRANCH   1   2
DOCKED: ATOM      2  C   UNL     1      35.342  10.529 122.246 -0.55 -0.00    +0.000 C 
DOCKED: BRANCH   2   5
DOCKED: ATOM      3  O   UNL     1      37.440   7.598 123.402 -2.48 -0.00    +0.000 OA
DOCKED: ATOM      4  N   UNL     1      36.527   8.597 123.402 -0.63 -0.00    +0.000 N 
DOCKED: ATOM      5  C   UNL     1      36.342   9.408 122.240 -0.69 -0.00    +0.000 C 
DOCKED: ATOM      6  O   UNL     1      37.043   9.205 121.212 -2.72 -0.00    +0.000 OA
DOCKED: ATOM      7  H   UNL     1      35.987   8.765 124.207 -0.22 -0.00    +0.000 HD
DOCKED: ENDBRANCH   2   5
DOCKED: ENDBRANCH   1   2
DOCKED: BRANCH   1   8
DOCKED: ATOM      8  C   UNL     1      37.070  11.929 123.491 -0.67 -0.00    +0.000 C 
DOCKED: BRANCH   8   9
DOCKED: ATOM      9  C   UNL     1      37.399  12.955 122.441 -0.48 -0.00    +0.000 A 
DOCKED: ATOM     10  C   UNL     1      37.449  12.591 121.084 -0.47 -0.00    +0.000 A 
DOCKED: ATOM     11  C   UNL     1      37.786  13.538 120.113 -0.37 -0.00    +0.000 A 
DOCKED: ATOM     12  C   UNL     1      38.085  14.851 120.488 -0.25 -0.00    +0.000 A 
DOCKED: ATOM     13  C   UNL     1      38.051  15.218 121.836 -0.28 -0.00    +0.000 A 
DOCKED: ATOM     14  C   UNL     1      37.714  14.274 122.811 -0.42 -0.00    +0.000 A 
DOCKED: ATOM     15  CM  UNL     1      37.748  13.905 121.462 +0.00 -0.00    +0.000 AC
DOCKED: ENDBRANCH   8   9
DOCKED: ENDBRANCH   1   8
DOCKED: TORSDOF 4DOCKED: TER
DOCKED: ENDMDL
________________________________________________________________________________


	BEGINNING GENETIC ALGORITHM DOCKING 89 of 100
Run: 89 Seed: 770662695 1383626407 [ Run 89 of 100 GA/GALS ]
Beginning LAMARCKIAN GENETIC ALGORITHM (LGA), with a maximum of 2500000 energy evaluations.

Final-Value: -11.647


	FINAL GENETIC ALGORITHM DOCKED STATE
	_______________________________________________


Detailed state:  trans 36.269 12.872 123.450 quatxyzw -0.885444 0.164476 0.398639 -0.173272 center 0.505 -0.158 0.114 ntor 4 -128.1169 -177.7534 167.8031 -86.4491
State:	 36.269  12.872 123.450  -0.899  0.167  0.405 -160.044   -128.12 -177.75  167.80  -86.45

DOCKED: MODEL       89
DOCKED: USER    Run = 89
DOCKED: USER    DPF = ligand_dock.biased.dpf
DOCKED: USER  
DOCKED: USER    Estimated Free Energy of Binding    =  -10.05 kcal/mol  [=(1)+(2)+(3)-(4)]
DOCKED: USER    Estimated Inhibition Constant, Ki   =   42.87 nM (nanomolar)  [Temperature = 298.15 K]
DOCKED: USER    
DOCKED: USER    (1) Final Intermolecular Energy     =  -11.24 kcal/mol
DOCKED: USER        vdW + Hbond + desolv Energy     =  -11.24 kcal/mol
DOCKED: USER        Electrostatic Energy            =   +0.00 kcal/mol
DOCKED: USER    (2) Final Total Internal Energy     =   -0.40 kcal/mol
DOCKED: USER    (3) Torsional Free Energy           =   +1.19 kcal/mol
DOCKED: USER    (4) Unbound System's Energy  [=(2)] =   -0.40 kcal/mol
DOCKED: USER    
DOCKED: USER    
DOCKED: USER    NEWDPF move ligand.dum.pdbqt
DOCKED: USER    NEWDPF about 0.505000 -0.158000 0.114000
DOCKED: USER    NEWDPF tran0 36.268627 12.871831 123.450233
DOCKED: USER    NEWDPF quaternion0 -0.885444 0.164476 0.398639 -0.173272
DOCKED: USER    NEWDPF axisangle0 -0.899043 0.167002 0.404762 -160.043792
DOCKED: USER    NEWDPF quat0 -0.899043 0.167002 0.404762 -160.043792
DOCKED: USER    NEWDPF dihe0 -128.12 -177.75 167.80 -86.45 
DOCKED: USER  keepresnum = 1 
DOCKED: USER  
DOCKED: REMARK  Name = 
DOCKED: REMARK  4 active torsions:
DOCKED: REMARK  status: ('A' for Active; 'I' for Inactive)
DOCKED: REMARK    1  A    between atoms: C_3  and  C_4
DOCKED: REMARK    2  A    between atoms: C_4  and  C_5
DOCKED: REMARK    3  A    between atoms: C_5  and  C_6
DOCKED: REMARK    4  A    between atoms: C_6  and  C_7
DOCKED: REMARK                            x       y       z     vdW  Elec       q    Type
DOCKED: REMARK                         _______ _______ _______ _____ _____    ______ ____
DOCKED: USER                              x       y       z     vdW  Elec       q    Type
DOCKED: USER                           _______ _______ _______ _____ _____    ______ ____
DOCKED: ROOT
DOCKED: ATOM      1  C   UNL     1      35.835  11.635 123.025 -0.64 -0.00    +0.000 C 
DOCKED: ENDROOT
DOCKED: BRANCH   1   2
DOCKED: ATOM      2  C   UNL     1      36.636  11.073 121.845 -0.58 -0.00    +0.000 C 
DOCKED: BRANCH   2   5
DOCKED: ATOM      3  O   UNL     1      37.315   7.716 123.455 -2.64 -0.00    +0.000 OA
DOCKED: ATOM      4  N   UNL     1      37.047   9.034 123.310 -0.62 -0.00    +0.000 N 
DOCKED: ATOM      5  C   UNL     1      36.914   9.606 122.007 -0.63 -0.00    +0.000 C 
DOCKED: ATOM      6  O   UNL     1      37.061   8.883 120.984 -2.71 -0.00    +0.000 OA
DOCKED: ATOM      7  H   UNL     1      36.944   9.603 124.106 -0.53 -0.00    +0.000 HD
DOCKED: ENDBRANCH   2   5
DOCKED: ENDBRANCH   1   2
DOCKED: BRANCH   1   8
DOCKED: ATOM      8  C   UNL     1      36.644  12.641 123.854 -0.59 -0.00    +0.000 C 
DOCKED: BRANCH   8   9
DOCKED: ATOM      9  C   UNL     1      36.334  14.050 123.424 -0.48 -0.00    +0.000 A 
DOCKED: ATOM     10  C   UNL     1      37.235  14.758 122.609 -0.37 -0.00    +0.000 A 
DOCKED: ATOM     11  C   UNL     1      36.960  16.077 122.237 -0.24 -0.00    +0.000 A 
DOCKED: ATOM     12  C   UNL     1      35.792  16.702 122.683 -0.28 -0.00    +0.000 A 
DOCKED: ATOM     13  C   UNL     1      34.898  16.010 123.505 -0.44 -0.00    +0.000 A 
DOCKED: ATOM     14  C   UNL     1      35.169  14.690 123.880 -0.49 -0.00    +0.000 A 
DOCKED: ATOM     15  CM  UNL     1      36.065  15.381 123.057 +0.00 -0.00    +0.000 AC
DOCKED: ENDBRANCH   8   9
DOCKED: ENDBRANCH   1   8
DOCKED: TORSDOF 4DOCKED: TER
DOCKED: ENDMDL
________________________________________________________________________________


	BEGINNING GENETIC ALGORITHM DOCKING 90 of 100
Run: 90 Seed: 1035893756 1638192037 [ Run 90 of 100 GA/GALS ]
Beginning LAMARCKIAN GENETIC ALGORITHM (LGA), with a maximum of 2500000 energy evaluations.

Final-Value: -11.754


	FINAL GENETIC ALGORITHM DOCKED STATE
	_______________________________________________


Detailed state:  trans 36.859 13.146 123.198 quatxyzw -0.698158 0.167275 0.696082 0.008085 center 0.505 -0.158 0.114 ntor 4 -98.3304 -160.8101 -82.3288 -68.8517
State:	 36.859  13.146 123.198  -0.698  0.167  0.696 179.074    -98.33 -160.81  -82.33  -68.85

DOCKED: MODEL       90
DOCKED: USER    Run = 90
DOCKED: USER    DPF = ligand_dock.biased.dpf
DOCKED: USER  
DOCKED: USER    Estimated Free Energy of Binding    =  -10.20 kcal/mol  [=(1)+(2)+(3)-(4)]
DOCKED: USER    Estimated Inhibition Constant, Ki   =   33.47 nM (nanomolar)  [Temperature = 298.15 K]
DOCKED: USER    
DOCKED: USER    (1) Final Intermolecular Energy     =  -11.39 kcal/mol
DOCKED: USER        vdW + Hbond + desolv Energy     =  -11.39 kcal/mol
DOCKED: USER        Electrostatic Energy            =   +0.00 kcal/mol
DOCKED: USER    (2) Final Total Internal Energy     =   -0.36 kcal/mol
DOCKED: USER    (3) Torsional Free Energy           =   +1.19 kcal/mol
DOCKED: USER    (4) Unbound System's Energy  [=(2)] =   -0.36 kcal/mol
DOCKED: USER    
DOCKED: USER    
DOCKED: USER    NEWDPF move ligand.dum.pdbqt
DOCKED: USER    NEWDPF about 0.505000 -0.158000 0.114000
DOCKED: USER    NEWDPF tran0 36.858947 13.146114 123.197797
DOCKED: USER    NEWDPF quaternion0 -0.698158 0.167275 0.696082 0.008085
DOCKED: USER    NEWDPF axisangle0 -0.698180 0.167281 0.696104 179.073562
DOCKED: USER    NEWDPF quat0 -0.698180 0.167281 0.696104 179.073562
DOCKED: USER    NEWDPF dihe0 -98.33 -160.81 -82.33 -68.85 
DOCKED: USER  keepresnum = 1 
DOCKED: USER  
DOCKED: REMARK  Name = 
DOCKED: REMARK  4 active torsions:
DOCKED: REMARK  status: ('A' for Active; 'I' for Inactive)
DOCKED: REMARK    1  A    between atoms: C_3  and  C_4
DOCKED: REMARK    2  A    between atoms: C_4  and  C_5
DOCKED: REMARK    3  A    between atoms: C_5  and  C_6
DOCKED: REMARK    4  A    between atoms: C_6  and  C_7
DOCKED: REMARK                            x       y       z     vdW  Elec       q    Type
DOCKED: REMARK                         _______ _______ _______ _____ _____    ______ ____
DOCKED: USER                              x       y       z     vdW  Elec       q    Type
DOCKED: USER                           _______ _______ _______ _____ _____    ______ ____
DOCKED: ROOT
DOCKED: ATOM      1  C   UNL     1      36.547  11.807 123.295 -0.69 -0.00    +0.000 C 
DOCKED: ENDROOT
DOCKED: BRANCH   1   2
DOCKED: ATOM      2  C   UNL     1      36.460  11.095 121.940 -0.60 -0.00    +0.000 C 
DOCKED: BRANCH   2   5
DOCKED: ATOM      3  O   UNL     1      37.237   7.715 123.458 -2.66 -0.00    +0.000 OA
DOCKED: ATOM      4  N   UNL     1      36.993   9.041 123.345 -0.61 -0.00    +0.000 N 
DOCKED: ATOM      5  C   UNL     1      36.713   9.620 122.068 -0.68 -0.00    +0.000 C 
DOCKED: ATOM      6  O   UNL     1      36.708   8.895 121.037 -2.62 -0.00    +0.000 OA
DOCKED: ATOM      7  H   UNL     1      37.008   9.612 124.147 -0.55 -0.00    +0.000 HD
DOCKED: ENDBRANCH   2   5
DOCKED: ENDBRANCH   1   2
DOCKED: BRANCH   1   8
DOCKED: ATOM      8  C   UNL     1      37.447  13.050 123.245 -0.57 -0.00    +0.000 C 
DOCKED: BRANCH   8   9
DOCKED: ATOM      9  C   UNL     1      36.637  14.298 123.469 -0.45 -0.00    +0.000 A 
DOCKED: ATOM     10  C   UNL     1      35.282  14.209 123.832 -0.43 -0.00    +0.000 A 
DOCKED: ATOM     11  C   UNL     1      34.522  15.369 124.009 -0.53 -0.00    +0.000 A 
DOCKED: ATOM     12  C   UNL     1      35.105  16.625 123.814 -0.40 -0.00    +0.000 A 
DOCKED: ATOM     13  C   UNL     1      36.448  16.722 123.439 -0.28 -0.00    +0.000 A 
DOCKED: ATOM     14  C   UNL     1      37.211  15.563 123.262 -0.33 -0.00    +0.000 A 
DOCKED: ATOM     15  CM  UNL     1      35.867  15.464 123.637 +0.00 -0.00    +0.000 AC
DOCKED: ENDBRANCH   8   9
DOCKED: ENDBRANCH   1   8
DOCKED: TORSDOF 4DOCKED: TER
DOCKED: ENDMDL
________________________________________________________________________________


	BEGINNING GENETIC ALGORITHM DOCKING 91 of 100
Run: 91 Seed: 479144597 302428732 [ Run 91 of 100 GA/GALS ]
Beginning LAMARCKIAN GENETIC ALGORITHM (LGA), with a maximum of 2500000 energy evaluations.

Final-Value: -10.772


	FINAL GENETIC ALGORITHM DOCKED STATE
	_______________________________________________


Detailed state:  trans 37.263 12.008 120.602 quatxyzw -0.698186 0.492992 -0.094070 0.510534 center 0.505 -0.158 0.114 ntor 4 93.8170 -28.5807 76.6651 94.8934
State:	 37.263  12.008 120.602  -0.812  0.573 -0.109 118.601     93.82  -28.58   76.67   94.89

DOCKED: MODEL       91
DOCKED: USER    Run = 91
DOCKED: USER    DPF = ligand_dock.biased.dpf
DOCKED: USER  
DOCKED: USER    Estimated Free Energy of Binding    =   -9.18 kcal/mol  [=(1)+(2)+(3)-(4)]
DOCKED: USER    Estimated Inhibition Constant, Ki   =  186.77 nM (nanomolar)  [Temperature = 298.15 K]
DOCKED: USER    
DOCKED: USER    (1) Final Intermolecular Energy     =  -10.37 kcal/mol
DOCKED: USER        vdW + Hbond + desolv Energy     =  -10.37 kcal/mol
DOCKED: USER        Electrostatic Energy            =   +0.00 kcal/mol
DOCKED: USER    (2) Final Total Internal Energy     =   -0.40 kcal/mol
DOCKED: USER    (3) Torsional Free Energy           =   +1.19 kcal/mol
DOCKED: USER    (4) Unbound System's Energy  [=(2)] =   -0.40 kcal/mol
DOCKED: USER    
DOCKED: USER    
DOCKED: USER    NEWDPF move ligand.dum.pdbqt
DOCKED: USER    NEWDPF about 0.505000 -0.158000 0.114000
DOCKED: USER    NEWDPF tran0 37.262503 12.008083 120.601504
DOCKED: USER    NEWDPF quaternion0 -0.698186 0.492992 -0.094070 0.510534
DOCKED: USER    NEWDPF axisangle0 -0.811979 0.573342 -0.109402 118.601198
DOCKED: USER    NEWDPF quat0 -0.811979 0.573342 -0.109402 118.601198
DOCKED: USER    NEWDPF dihe0 93.82 -28.58 76.67 94.89 
DOCKED: USER  keepresnum = 1 
DOCKED: USER  
DOCKED: REMARK  Name = 
DOCKED: REMARK  4 active torsions:
DOCKED: REMARK  status: ('A' for Active; 'I' for Inactive)
DOCKED: REMARK    1  A    between atoms: C_3  and  C_4
DOCKED: REMARK    2  A    between atoms: C_4  and  C_5
DOCKED: REMARK    3  A    between atoms: C_5  and  C_6
DOCKED: REMARK    4  A    between atoms: C_6  and  C_7
DOCKED: REMARK                            x       y       z     vdW  Elec       q    Type
DOCKED: REMARK                         _______ _______ _______ _____ _____    ______ ____
DOCKED: USER                              x       y       z     vdW  Elec       q    Type
DOCKED: USER                           _______ _______ _______ _____ _____    ______ ____
DOCKED: ROOT
DOCKED: ATOM      1  C   UNL     1      36.316  11.872 121.594 -0.50 -0.00    +0.000 C 
DOCKED: ENDROOT
DOCKED: BRANCH   1   2
DOCKED: ATOM      2  C   UNL     1      36.784  11.017 122.778 -0.66 -0.00    +0.000 C 
DOCKED: BRANCH   2   5
DOCKED: ATOM      3  O   UNL     1      37.094   7.260 123.116 -2.23 -0.00    +0.000 OA
DOCKED: ATOM      4  N   UNL     1      37.014   8.571 123.440 -0.66 -0.00    +0.000 N 
DOCKED: ATOM      5  C   UNL     1      36.854   9.560 122.420 -0.67 -0.00    +0.000 C 
DOCKED: ATOM      6  O   UNL     1      36.801   9.213 121.210 -2.66 -0.00    +0.000 OA
DOCKED: ATOM      7  H   UNL     1      37.067   8.846 124.384 -0.54 -0.00    +0.000 HD
DOCKED: ENDBRANCH   2   5
DOCKED: ENDBRANCH   1   2
DOCKED: BRANCH   1   8
DOCKED: ATOM      8  C   UNL     1      37.488  12.510 120.835 -0.52 -0.00    +0.000 C 
DOCKED: BRANCH   8   9
DOCKED: ATOM      9  C   UNL     1      37.945  13.765 121.529 -0.39 -0.00    +0.000 A 
DOCKED: ATOM     10  C   UNL     1      39.175  14.355 121.188 -0.30 -0.00    +0.000 A 
DOCKED: ATOM     11  C   UNL     1      39.613  15.503 121.855 -0.29 -0.00    +0.000 A 
DOCKED: ATOM     12  C   UNL     1      38.834  16.063 122.873 -0.25 -0.00    +0.000 A 
DOCKED: ATOM     13  C   UNL     1      37.618  15.474 123.226 -0.31 -0.00    +0.000 A 
DOCKED: ATOM     14  C   UNL     1      37.175  14.326 122.561 -0.40 -0.00    +0.000 A 
DOCKED: ATOM     15  CM  UNL     1      38.394  14.914 122.206 +0.00 -0.00    +0.000 AC
DOCKED: ENDBRANCH   8   9
DOCKED: ENDBRANCH   1   8
DOCKED: TORSDOF 4DOCKED: TER
DOCKED: ENDMDL
________________________________________________________________________________


	BEGINNING GENETIC ALGORITHM DOCKING 92 of 100
Run: 92 Seed: 11855270 369928586 [ Run 92 of 100 GA/GALS ]
Beginning LAMARCKIAN GENETIC ALGORITHM (LGA), with a maximum of 2500000 energy evaluations.

Final-Value: -11.437


	FINAL GENETIC ALGORITHM DOCKED STATE
	_______________________________________________


Detailed state:  trans 37.074 13.346 122.544 quatxyzw 0.307641 -0.084063 -0.930442 -0.180466 center 0.505 -0.158 0.114 ntor 4 -41.1416 -147.0354 -119.9481 -78.7852
State:	 37.074  13.346 122.544   0.313 -0.085 -0.946 -159.206    -41.14 -147.04 -119.95  -78.79

DOCKED: MODEL       92
DOCKED: USER    Run = 92
DOCKED: USER    DPF = ligand_dock.biased.dpf
DOCKED: USER  
DOCKED: USER    Estimated Free Energy of Binding    =   -9.88 kcal/mol  [=(1)+(2)+(3)-(4)]
DOCKED: USER    Estimated Inhibition Constant, Ki   =   57.31 nM (nanomolar)  [Temperature = 298.15 K]
DOCKED: USER    
DOCKED: USER    (1) Final Intermolecular Energy     =  -11.07 kcal/mol
DOCKED: USER        vdW + Hbond + desolv Energy     =  -11.07 kcal/mol
DOCKED: USER        Electrostatic Energy            =   +0.00 kcal/mol
DOCKED: USER    (2) Final Total Internal Energy     =   -0.36 kcal/mol
DOCKED: USER    (3) Torsional Free Energy           =   +1.19 kcal/mol
DOCKED: USER    (4) Unbound System's Energy  [=(2)] =   -0.36 kcal/mol
DOCKED: USER    
DOCKED: USER    
DOCKED: USER    NEWDPF move ligand.dum.pdbqt
DOCKED: USER    NEWDPF about 0.505000 -0.158000 0.114000
DOCKED: USER    NEWDPF tran0 37.074185 13.346010 122.544009
DOCKED: USER    NEWDPF quaternion0 0.307641 -0.084063 -0.930442 -0.180466
DOCKED: USER    NEWDPF axisangle0 0.312776 -0.085467 -0.945974 -159.206225
DOCKED: USER    NEWDPF quat0 0.312776 -0.085467 -0.945974 -159.206225
DOCKED: USER    NEWDPF dihe0 -41.14 -147.04 -119.95 -78.79 
DOCKED: USER  keepresnum = 1 
DOCKED: USER  
DOCKED: REMARK  Name = 
DOCKED: REMARK  4 active torsions:
DOCKED: REMARK  status: ('A' for Active; 'I' for Inactive)
DOCKED: REMARK    1  A    between atoms: C_3  and  C_4
DOCKED: REMARK    2  A    between atoms: C_4  and  C_5
DOCKED: REMARK    3  A    between atoms: C_5  and  C_6
DOCKED: REMARK    4  A    between atoms: C_6  and  C_7
DOCKED: REMARK                            x       y       z     vdW  Elec       q    Type
DOCKED: REMARK                         _______ _______ _______ _____ _____    ______ ____
DOCKED: USER                              x       y       z     vdW  Elec       q    Type
DOCKED: USER                           _______ _______ _______ _____ _____    ______ ____
DOCKED: ROOT
DOCKED: ATOM      1  C   UNL     1      37.278  12.003 122.779 -0.54 -0.00    +0.000 C 
DOCKED: ENDROOT
DOCKED: BRANCH   1   2
DOCKED: ATOM      2  C   UNL     1      36.288  11.092 122.044 -0.62 -0.00    +0.000 C 
DOCKED: BRANCH   2   5
DOCKED: ATOM      3  O   UNL     1      37.277   7.717 123.442 -2.64 -0.00    +0.000 OA
DOCKED: ATOM      4  N   UNL     1      36.890   9.012 123.379 -0.59 -0.00    +0.000 N 
DOCKED: ATOM      5  C   UNL     1      36.700   9.650 122.114 -0.68 -0.00    +0.000 C 
DOCKED: ATOM      6  O   UNL     1      36.908   9.009 121.049 -2.67 -0.00    +0.000 OA
DOCKED: ATOM      7  H   UNL     1      36.738   9.518 124.209 -0.50 -0.00    +0.000 HD
DOCKED: ENDBRANCH   2   5
DOCKED: ENDBRANCH   1   2
DOCKED: BRANCH   1   8
DOCKED: ATOM      8  C   UNL     1      37.453  13.359 122.082 -0.50 -0.00    +0.000 C 
DOCKED: BRANCH   8   9
DOCKED: ATOM      9  C   UNL     1      36.711  14.436 122.826 -0.41 -0.00    +0.000 A 
DOCKED: ATOM     10  C   UNL     1      35.539  14.128 123.539 -0.43 -0.00    +0.000 A 
DOCKED: ATOM     11  C   UNL     1      34.833  15.135 124.203 -0.52 -0.00    +0.000 A 
DOCKED: ATOM     12  C   UNL     1      35.285  16.457 124.153 -0.40 -0.00    +0.000 A 
DOCKED: ATOM     13  C   UNL     1      36.441  16.774 123.435 -0.27 -0.00    +0.000 A 
DOCKED: ATOM     14  C   UNL     1      37.150  15.770 122.769 -0.29 -0.00    +0.000 A 
DOCKED: ATOM     15  CM  UNL     1      35.993  15.450 123.487 +0.00 -0.00    +0.000 AC
DOCKED: ENDBRANCH   8   9
DOCKED: ENDBRANCH   1   8
DOCKED: TORSDOF 4DOCKED: TER
DOCKED: ENDMDL
________________________________________________________________________________


	BEGINNING GENETIC ALGORITHM DOCKING 93 of 100
Run: 93 Seed: 1444751274 1421283036 [ Run 93 of 100 GA/GALS ]
Beginning LAMARCKIAN GENETIC ALGORITHM (LGA), with a maximum of 2500000 energy evaluations.

Final-Value: -11.101


	FINAL GENETIC ALGORITHM DOCKED STATE
	_______________________________________________


Detailed state:  trans 36.967 12.563 123.390 quatxyzw 0.736123 -0.388839 -0.511853 0.211976 center 0.505 -0.158 0.114 ntor 4 -88.6247 142.7053 -165.8920 -105.4114
State:	 36.967  12.563 123.390   0.753 -0.398 -0.524 155.524    -88.62  142.71 -165.89 -105.41

DOCKED: MODEL       93
DOCKED: USER    Run = 93
DOCKED: USER    DPF = ligand_dock.biased.dpf
DOCKED: USER  
DOCKED: USER    Estimated Free Energy of Binding    =   -9.43 kcal/mol  [=(1)+(2)+(3)-(4)]
DOCKED: USER    Estimated Inhibition Constant, Ki   =  123.40 nM (nanomolar)  [Temperature = 298.15 K]
DOCKED: USER    
DOCKED: USER    (1) Final Intermolecular Energy     =  -10.62 kcal/mol
DOCKED: USER        vdW + Hbond + desolv Energy     =  -10.62 kcal/mol
DOCKED: USER        Electrostatic Energy            =   +0.00 kcal/mol
DOCKED: USER    (2) Final Total Internal Energy     =   -0.48 kcal/mol
DOCKED: USER    (3) Torsional Free Energy           =   +1.19 kcal/mol
DOCKED: USER    (4) Unbound System's Energy  [=(2)] =   -0.48 kcal/mol
DOCKED: USER    
DOCKED: USER    
DOCKED: USER    NEWDPF move ligand.dum.pdbqt
DOCKED: USER    NEWDPF about 0.505000 -0.158000 0.114000
DOCKED: USER    NEWDPF tran0 36.966686 12.562735 123.390231
DOCKED: USER    NEWDPF quaternion0 0.736123 -0.388839 -0.511853 0.211976
DOCKED: USER    NEWDPF axisangle0 0.753241 -0.397881 -0.523755 155.523619
DOCKED: USER    NEWDPF quat0 0.753241 -0.397881 -0.523755 155.523619
DOCKED: USER    NEWDPF dihe0 -88.62 142.71 -165.89 -105.41 
DOCKED: USER  keepresnum = 1 
DOCKED: USER  
DOCKED: REMARK  Name = 
DOCKED: REMARK  4 active torsions:
DOCKED: REMARK  status: ('A' for Active; 'I' for Inactive)
DOCKED: REMARK    1  A    between atoms: C_3  and  C_4
DOCKED: REMARK    2  A    between atoms: C_4  and  C_5
DOCKED: REMARK    3  A    between atoms: C_5  and  C_6
DOCKED: REMARK    4  A    between atoms: C_6  and  C_7
DOCKED: REMARK                            x       y       z     vdW  Elec       q    Type
DOCKED: REMARK                         _______ _______ _______ _____ _____    ______ ____
DOCKED: USER                              x       y       z     vdW  Elec       q    Type
DOCKED: USER                           _______ _______ _______ _____ _____    ______ ____
DOCKED: ROOT
DOCKED: ATOM      1  C   UNL     1      35.935  11.655 123.284 -0.68 -0.00    +0.000 C 
DOCKED: ENDROOT
DOCKED: BRANCH   1   2
DOCKED: ATOM      2  C   UNL     1      35.927  10.884 121.959 -0.52 -0.00    +0.000 C 
DOCKED: BRANCH   2   5
DOCKED: ATOM      3  O   UNL     1      37.440   7.787 123.522 -2.54 -0.00    +0.000 OA
DOCKED: ATOM      4  N   UNL     1      36.866   9.006 123.395 -0.59 -0.00    +0.000 N 
DOCKED: ATOM      5  C   UNL     1      36.546   9.524 122.101 -0.68 -0.00    +0.000 C 
DOCKED: ATOM      6  O   UNL     1      36.813   8.850 121.070 -2.64 -0.00    +0.000 OA
DOCKED: ATOM      7  H   UNL     1      36.668   9.539 124.198 -0.48 -0.00    +0.000 HD
DOCKED: ENDBRANCH   2   5
DOCKED: ENDBRANCH   1   2
DOCKED: BRANCH   1   8
DOCKED: ATOM      8  C   UNL     1      37.333  12.170 123.652 -0.55 -0.00    +0.000 C 
DOCKED: BRANCH   8   9
DOCKED: ATOM      9  C   UNL     1      37.676  13.392 122.844 -0.47 -0.00    +0.000 A 
DOCKED: ATOM     10  C   UNL     1      38.056  13.268 121.496 -0.37 -0.00    +0.000 A 
DOCKED: ATOM     11  C   UNL     1      38.405  14.402 120.756 -0.30 -0.00    +0.000 A 
DOCKED: ATOM     12  C   UNL     1      38.387  15.664 121.357 -0.22 -0.00    +0.000 A 
DOCKED: ATOM     13  C   UNL     1      38.023  15.794 122.700 -0.28 -0.00    +0.000 A 
DOCKED: ATOM     14  C   UNL     1      37.674  14.663 123.444 -0.30 -0.00    +0.000 A 
DOCKED: ATOM     15  CM  UNL     1      38.037  14.531 122.100 +0.00 -0.00    +0.000 AC
DOCKED: ENDBRANCH   8   9
DOCKED: ENDBRANCH   1   8
DOCKED: TORSDOF 4DOCKED: TER
DOCKED: ENDMDL
________________________________________________________________________________


	BEGINNING GENETIC ALGORITHM DOCKING 94 of 100
Run: 94 Seed: 1186058560 790365310 [ Run 94 of 100 GA/GALS ]
Beginning LAMARCKIAN GENETIC ALGORITHM (LGA), with a maximum of 2500000 energy evaluations.

Final-Value: -11.658


	FINAL GENETIC ALGORITHM DOCKED STATE
	_______________________________________________


Detailed state:  trans 36.023 12.675 123.602 quatxyzw -0.914445 0.147718 0.268620 -0.264222 center 0.505 -0.158 0.114 ntor 4 -144.3635 177.5353 -4.2402 -93.6066
State:	 36.023  12.675 123.602  -0.948  0.153  0.279 -149.359   -144.36  177.54   -4.24  -93.61

DOCKED: MODEL       94
DOCKED: USER    Run = 94
DOCKED: USER    DPF = ligand_dock.biased.dpf
DOCKED: USER  
DOCKED: USER    Estimated Free Energy of Binding    =  -10.04 kcal/mol  [=(1)+(2)+(3)-(4)]
DOCKED: USER    Estimated Inhibition Constant, Ki   =   44.05 nM (nanomolar)  [Temperature = 298.15 K]
DOCKED: USER    
DOCKED: USER    (1) Final Intermolecular Energy     =  -11.23 kcal/mol
DOCKED: USER        vdW + Hbond + desolv Energy     =  -11.23 kcal/mol
DOCKED: USER        Electrostatic Energy            =   +0.00 kcal/mol
DOCKED: USER    (2) Final Total Internal Energy     =   -0.43 kcal/mol
DOCKED: USER    (3) Torsional Free Energy           =   +1.19 kcal/mol
DOCKED: USER    (4) Unbound System's Energy  [=(2)] =   -0.43 kcal/mol
DOCKED: USER    
DOCKED: USER    
DOCKED: USER    NEWDPF move ligand.dum.pdbqt
DOCKED: USER    NEWDPF about 0.505000 -0.158000 0.114000
DOCKED: USER    NEWDPF tran0 36.022917 12.674552 123.602354
DOCKED: USER    NEWDPF quaternion0 -0.914445 0.147718 0.268620 -0.264222
DOCKED: USER    NEWDPF axisangle0 -0.948140 0.153161 0.278519 -149.358533
DOCKED: USER    NEWDPF quat0 -0.948140 0.153161 0.278519 -149.358533
DOCKED: USER    NEWDPF dihe0 -144.36 177.54 -4.24 -93.61 
DOCKED: USER  keepresnum = 1 
DOCKED: USER  
DOCKED: REMARK  Name = 
DOCKED: REMARK  4 active torsions:
DOCKED: REMARK  status: ('A' for Active; 'I' for Inactive)
DOCKED: REMARK    1  A    between atoms: C_3  and  C_4
DOCKED: REMARK    2  A    between atoms: C_4  and  C_5
DOCKED: REMARK    3  A    between atoms: C_5  and  C_6
DOCKED: REMARK    4  A    between atoms: C_6  and  C_7
DOCKED: REMARK                            x       y       z     vdW  Elec       q    Type
DOCKED: REMARK                         _______ _______ _______ _____ _____    ______ ____
DOCKED: USER                              x       y       z     vdW  Elec       q    Type
DOCKED: USER                           _______ _______ _______ _____ _____    ______ ____
DOCKED: ROOT
DOCKED: ATOM      1  C   UNL     1      35.658  11.538 122.914 -0.59 -0.00    +0.000 C 
DOCKED: ENDROOT
DOCKED: BRANCH   1   2
DOCKED: ATOM      2  C   UNL     1      36.732  11.034 121.942 -0.61 -0.00    +0.000 C 
DOCKED: BRANCH   2   5
DOCKED: ATOM      3  O   UNL     1      37.276   7.608 123.457 -2.57 -0.00    +0.000 OA
DOCKED: ATOM      4  N   UNL     1      37.069   8.941 123.349 -0.62 -0.00    +0.000 N 
DOCKED: ATOM      5  C   UNL     1      36.943   9.552 122.063 -0.64 -0.00    +0.000 C 
DOCKED: ATOM      6  O   UNL     1      37.039   8.850 121.021 -2.70 -0.00    +0.000 OA
DOCKED: ATOM      7  H   UNL     1      37.005   9.494 124.161 -0.56 -0.00    +0.000 HD
DOCKED: ENDBRANCH   2   5
DOCKED: ENDBRANCH   1   2
DOCKED: BRANCH   1   8
DOCKED: ATOM      8  C   UNL     1      36.251  12.367 124.061 -0.57 -0.00    +0.000 C 
DOCKED: BRANCH   8   9
DOCKED: ATOM      9  C   UNL     1      36.323  13.821 123.680 -0.49 -0.00    +0.000 A 
DOCKED: ATOM     10  C   UNL     1      35.208  14.658 123.858 -0.49 -0.00    +0.000 A 
DOCKED: ATOM     11  C   UNL     1      35.267  16.000 123.473 -0.42 -0.00    +0.000 A 
DOCKED: ATOM     12  C   UNL     1      36.433  16.515 122.899 -0.27 -0.00    +0.000 A 
DOCKED: ATOM     13  C   UNL     1      37.541  15.686 122.705 -0.29 -0.00    +0.000 A 
DOCKED: ATOM     14  C   UNL     1      37.487  14.342 123.089 -0.43 -0.00    +0.000 A 
DOCKED: ATOM     15  CM  UNL     1      36.377  15.170 123.284 +0.00 -0.00    +0.000 AC
DOCKED: ENDBRANCH   8   9
DOCKED: ENDBRANCH   1   8
DOCKED: TORSDOF 4DOCKED: TER
DOCKED: ENDMDL
________________________________________________________________________________


	BEGINNING GENETIC ALGORITHM DOCKING 95 of 100
Run: 95 Seed: 1449832729 1254670494 [ Run 95 of 100 GA/GALS ]
Beginning LAMARCKIAN GENETIC ALGORITHM (LGA), with a maximum of 2500000 energy evaluations.

Final-Value: -11.598


	FINAL GENETIC ALGORITHM DOCKED STATE
	_______________________________________________


Detailed state:  trans 36.716 13.080 123.082 quatxyzw 0.904432 -0.217981 -0.329591 0.160798 center 0.505 -0.158 0.114 ntor 4 -139.2509 -170.8228 -22.4090 -56.6302
State:	 36.716  13.080 123.082   0.916 -0.221 -0.334 161.494   -139.25 -170.82  -22.41  -56.63

DOCKED: MODEL       95
DOCKED: USER    Run = 95
DOCKED: USER    DPF = ligand_dock.biased.dpf
DOCKED: USER  
DOCKED: USER    Estimated Free Energy of Binding    =  -10.04 kcal/mol  [=(1)+(2)+(3)-(4)]
DOCKED: USER    Estimated Inhibition Constant, Ki   =   44.06 nM (nanomolar)  [Temperature = 298.15 K]
DOCKED: USER    
DOCKED: USER    (1) Final Intermolecular Energy     =  -11.23 kcal/mol
DOCKED: USER        vdW + Hbond + desolv Energy     =  -11.23 kcal/mol
DOCKED: USER        Electrostatic Energy            =   +0.00 kcal/mol
DOCKED: USER    (2) Final Total Internal Energy     =   -0.37 kcal/mol
DOCKED: USER    (3) Torsional Free Energy           =   +1.19 kcal/mol
DOCKED: USER    (4) Unbound System's Energy  [=(2)] =   -0.37 kcal/mol
DOCKED: USER    
DOCKED: USER    
DOCKED: USER    NEWDPF move ligand.dum.pdbqt
DOCKED: USER    NEWDPF about 0.505000 -0.158000 0.114000
DOCKED: USER    NEWDPF tran0 36.716478 13.080309 123.082163
DOCKED: USER    NEWDPF quaternion0 0.904432 -0.217981 -0.329591 0.160798
DOCKED: USER    NEWDPF axisangle0 0.916357 -0.220855 -0.333936 161.493588
DOCKED: USER    NEWDPF quat0 0.916357 -0.220855 -0.333936 161.493588
DOCKED: USER    NEWDPF dihe0 -139.25 -170.82 -22.41 -56.63 
DOCKED: USER  keepresnum = 1 
DOCKED: USER  
DOCKED: REMARK  Name = 
DOCKED: REMARK  4 active torsions:
DOCKED: REMARK  status: ('A' for Active; 'I' for Inactive)
DOCKED: REMARK    1  A    between atoms: C_3  and  C_4
DOCKED: REMARK    2  A    between atoms: C_4  and  C_5
DOCKED: REMARK    3  A    between atoms: C_5  and  C_6
DOCKED: REMARK    4  A    between atoms: C_6  and  C_7
DOCKED: REMARK                            x       y       z     vdW  Elec       q    Type
DOCKED: REMARK                         _______ _______ _______ _____ _____    ______ ____
DOCKED: USER                              x       y       z     vdW  Elec       q    Type
DOCKED: USER                           _______ _______ _______ _____ _____    ______ ____
DOCKED: ROOT
DOCKED: ATOM      1  C   UNL     1      36.201  11.855 122.719 -0.64 -0.00    +0.000 C 
DOCKED: ENDROOT
DOCKED: BRANCH   1   2
DOCKED: ATOM      2  C   UNL     1      37.062  11.104 121.696 -0.53 -0.00    +0.000 C 
DOCKED: BRANCH   2   5
DOCKED: ATOM      3  O   UNL     1      37.058   7.747 123.446 -2.68 -0.00    +0.000 OA
DOCKED: ATOM      4  N   UNL     1      37.074   9.085 123.245 -0.63 -0.00    +0.000 N 
DOCKED: ATOM      5  C   UNL     1      37.026   9.619 121.920 -0.60 -0.00    +0.000 C 
DOCKED: ATOM      6  O   UNL     1      36.985   8.841 120.929 -2.69 -0.00    +0.000 OA
DOCKED: ATOM      7  H   UNL     1      37.118   9.695 124.016 -0.52 -0.00    +0.000 HD
DOCKED: ENDBRANCH   2   5
DOCKED: ENDBRANCH   1   2
DOCKED: BRANCH   1   8
DOCKED: ATOM      8  C   UNL     1      37.019  12.856 123.547 -0.59 -0.00    +0.000 C 
DOCKED: BRANCH   8   9
DOCKED: ATOM      9  C   UNL     1      36.401  14.227 123.477 -0.46 -0.00    +0.000 A 
DOCKED: ATOM     10  C   UNL     1      35.147  14.470 124.062 -0.42 -0.00    +0.000 A 
DOCKED: ATOM     11  C   UNL     1      34.561  15.736 123.970 -0.52 -0.00    +0.000 A 
DOCKED: ATOM     12  C   UNL     1      35.216  16.764 123.284 -0.35 -0.00    +0.000 A 
DOCKED: ATOM     13  C   UNL     1      36.457  16.526 122.688 -0.26 -0.00    +0.000 A 
DOCKED: ATOM     14  C   UNL     1      37.047  15.261 122.779 -0.34 -0.00    +0.000 A 
DOCKED: ATOM     15  CM  UNL     1      35.805  15.497 123.376 +0.00 -0.00    +0.000 AC
DOCKED: ENDBRANCH   8   9
DOCKED: ENDBRANCH   1   8
DOCKED: TORSDOF 4DOCKED: TER
DOCKED: ENDMDL
________________________________________________________________________________


	BEGINNING GENETIC ALGORITHM DOCKING 96 of 100
Run: 96 Seed: 1811743394 476508624 [ Run 96 of 100 GA/GALS ]
Beginning LAMARCKIAN GENETIC ALGORITHM (LGA), with a maximum of 2500000 energy evaluations.

Final-Value: -11.516


	FINAL GENETIC ALGORITHM DOCKED STATE
	_______________________________________________


Detailed state:  trans 37.128 13.395 122.850 quatxyzw -0.372389 0.094076 0.912431 0.141226 center 0.505 -0.158 0.114 ntor 4 -42.5410 -153.3564 77.2271 -84.7669
State:	 37.128  13.395 122.850  -0.376  0.095  0.922 163.762    -42.54 -153.36   77.23  -84.77

DOCKED: MODEL       96
DOCKED: USER    Run = 96
DOCKED: USER    DPF = ligand_dock.biased.dpf
DOCKED: USER  
DOCKED: USER    Estimated Free Energy of Binding    =   -9.95 kcal/mol  [=(1)+(2)+(3)-(4)]
DOCKED: USER    Estimated Inhibition Constant, Ki   =   50.62 nM (nanomolar)  [Temperature = 298.15 K]
DOCKED: USER    
DOCKED: USER    (1) Final Intermolecular Energy     =  -11.15 kcal/mol
DOCKED: USER        vdW + Hbond + desolv Energy     =  -11.15 kcal/mol
DOCKED: USER        Electrostatic Energy            =   +0.00 kcal/mol
DOCKED: USER    (2) Final Total Internal Energy     =   -0.37 kcal/mol
DOCKED: USER    (3) Torsional Free Energy           =   +1.19 kcal/mol
DOCKED: USER    (4) Unbound System's Energy  [=(2)] =   -0.37 kcal/mol
DOCKED: USER    
DOCKED: USER    
DOCKED: USER    NEWDPF move ligand.dum.pdbqt
DOCKED: USER    NEWDPF about 0.505000 -0.158000 0.114000
DOCKED: USER    NEWDPF tran0 37.127642 13.394709 122.850454
DOCKED: USER    NEWDPF quaternion0 -0.372389 0.094076 0.912431 0.141226
DOCKED: USER    NEWDPF axisangle0 -0.376160 0.095028 0.921669 163.762365
DOCKED: USER    NEWDPF quat0 -0.376160 0.095028 0.921669 163.762365
DOCKED: USER    NEWDPF dihe0 -42.54 -153.36 77.23 -84.77 
DOCKED: USER  keepresnum = 1 
DOCKED: USER  
DOCKED: REMARK  Name = 
DOCKED: REMARK  4 active torsions:
DOCKED: REMARK  status: ('A' for Active; 'I' for Inactive)
DOCKED: REMARK    1  A    between atoms: C_3  and  C_4
DOCKED: REMARK    2  A    between atoms: C_4  and  C_5
DOCKED: REMARK    3  A    between atoms: C_5  and  C_6
DOCKED: REMARK    4  A    between atoms: C_6  and  C_7
DOCKED: REMARK                            x       y       z     vdW  Elec       q    Type
DOCKED: REMARK                         _______ _______ _______ _____ _____    ______ ____
DOCKED: USER                              x       y       z     vdW  Elec       q    Type
DOCKED: USER                           _______ _______ _______ _____ _____    ______ ____
DOCKED: ROOT
DOCKED: ATOM      1  C   UNL     1      37.215  12.037 123.072 -0.60 -0.00    +0.000 C 
DOCKED: ENDROOT
DOCKED: BRANCH   1   2
DOCKED: ATOM      2  C   UNL     1      36.287  11.206 122.177 -0.63 -0.00    +0.000 C 
DOCKED: BRANCH   2   5
DOCKED: ATOM      3  O   UNL     1      37.194   7.715 123.324 -2.59 -0.00    +0.000 OA
DOCKED: ATOM      4  N   UNL     1      36.812   9.013 123.355 -0.60 -0.00    +0.000 N 
DOCKED: ATOM      5  C   UNL     1      36.693   9.761 122.142 -0.68 -0.00    +0.000 C 
DOCKED: ATOM      6  O   UNL     1      36.960   9.215 121.037 -2.70 -0.00    +0.000 OA
DOCKED: ATOM      7  H   UNL     1      36.615   9.445 124.217 -0.45 -0.00    +0.000 HD
DOCKED: ENDBRANCH   2   5
DOCKED: ENDBRANCH   1   2
DOCKED: BRANCH   1   8
DOCKED: ATOM      8  C   UNL     1      37.569  13.394 122.447 -0.52 -0.00    +0.000 C 
DOCKED: BRANCH   8   9
DOCKED: ATOM      9  C   UNL     1      36.690  14.479 123.009 -0.42 -0.00    +0.000 A 
DOCKED: ATOM     10  C   UNL     1      37.011  15.831 122.798 -0.29 -0.00    +0.000 A 
DOCKED: ATOM     11  C   UNL     1      36.212  16.838 123.348 -0.28 -0.00    +0.000 A 
DOCKED: ATOM     12  C   UNL     1      35.095  16.504 124.119 -0.41 -0.00    +0.000 A 
DOCKED: ATOM     13  C   UNL     1      34.778  15.162 124.345 -0.49 -0.00    +0.000 A 
DOCKED: ATOM     14  C   UNL     1      35.574  14.152 123.797 -0.49 -0.00    +0.000 A 
DOCKED: ATOM     15  CM  UNL     1      35.894  15.494 123.570 +0.00 -0.00    +0.000 AC
DOCKED: ENDBRANCH   8   9
DOCKED: ENDBRANCH   1   8
DOCKED: TORSDOF 4DOCKED: TER
DOCKED: ENDMDL
________________________________________________________________________________


	BEGINNING GENETIC ALGORITHM DOCKING 97 of 100
Run: 97 Seed: 827463414 1983896751 [ Run 97 of 100 GA/GALS ]
Beginning LAMARCKIAN GENETIC ALGORITHM (LGA), with a maximum of 2500000 energy evaluations.

Final-Value: -11.655


	FINAL GENETIC ALGORITHM DOCKED STATE
	_______________________________________________


Detailed state:  trans 36.443 12.916 123.286 quatxyzw -0.919053 0.205477 0.209402 -0.263195 center 0.505 -0.158 0.114 ntor 4 -149.1193 178.2317 169.0095 -67.6093
State:	 36.443  12.916 123.286  -0.953  0.213  0.217 -149.481   -149.12  178.23  169.01  -67.61

DOCKED: MODEL       97
DOCKED: USER    Run = 97
DOCKED: USER    DPF = ligand_dock.biased.dpf
DOCKED: USER  
DOCKED: USER    Estimated Free Energy of Binding    =  -10.08 kcal/mol  [=(1)+(2)+(3)-(4)]
DOCKED: USER    Estimated Inhibition Constant, Ki   =   40.84 nM (nanomolar)  [Temperature = 298.15 K]
DOCKED: USER    
DOCKED: USER    (1) Final Intermolecular Energy     =  -11.27 kcal/mol
DOCKED: USER        vdW + Hbond + desolv Energy     =  -11.27 kcal/mol
DOCKED: USER        Electrostatic Energy            =   +0.00 kcal/mol
DOCKED: USER    (2) Final Total Internal Energy     =   -0.38 kcal/mol
DOCKED: USER    (3) Torsional Free Energy           =   +1.19 kcal/mol
DOCKED: USER    (4) Unbound System's Energy  [=(2)] =   -0.38 kcal/mol
DOCKED: USER    
DOCKED: USER    
DOCKED: USER    NEWDPF move ligand.dum.pdbqt
DOCKED: USER    NEWDPF about 0.505000 -0.158000 0.114000
DOCKED: USER    NEWDPF tran0 36.442601 12.916238 123.286208
DOCKED: USER    NEWDPF quaternion0 -0.919053 0.205477 0.209402 -0.263195
DOCKED: USER    NEWDPF axisangle0 -0.952641 0.212987 0.217054 -149.480558
DOCKED: USER    NEWDPF quat0 -0.952641 0.212987 0.217054 -149.480558
DOCKED: USER    NEWDPF dihe0 -149.12 178.23 169.01 -67.61 
DOCKED: USER  keepresnum = 1 
DOCKED: USER  
DOCKED: REMARK  Name = 
DOCKED: REMARK  4 active torsions:
DOCKED: REMARK  status: ('A' for Active; 'I' for Inactive)
DOCKED: REMARK    1  A    between atoms: C_3  and  C_4
DOCKED: REMARK    2  A    between atoms: C_4  and  C_5
DOCKED: REMARK    3  A    between atoms: C_5  and  C_6
DOCKED: REMARK    4  A    between atoms: C_6  and  C_7
DOCKED: REMARK                            x       y       z     vdW  Elec       q    Type
DOCKED: REMARK                         _______ _______ _______ _____ _____    ______ ____
DOCKED: USER                              x       y       z     vdW  Elec       q    Type
DOCKED: USER                           _______ _______ _______ _____ _____    ______ ____
DOCKED: ROOT
DOCKED: ATOM      1  C   UNL     1      35.979  11.800 122.625 -0.60 -0.00    +0.000 C 
DOCKED: ENDROOT
DOCKED: BRANCH   1   2
DOCKED: ATOM      2  C   UNL     1      37.045  11.103 121.770 -0.54 -0.00    +0.000 C 
DOCKED: BRANCH   2   5
DOCKED: ATOM      3  O   UNL     1      37.069   7.714 123.456 -2.70 -0.00    +0.000 OA
DOCKED: ATOM      4  N   UNL     1      37.065   9.056 123.281 -0.62 -0.00    +0.000 N 
DOCKED: ATOM      5  C   UNL     1      37.030   9.614 121.966 -0.61 -0.00    +0.000 C 
DOCKED: ATOM      6  O   UNL     1      37.018   8.854 120.960 -2.70 -0.00    +0.000 OA
DOCKED: ATOM      7  H   UNL     1      37.087   9.651 124.064 -0.54 -0.00    +0.000 HD
DOCKED: ENDBRANCH   2   5
DOCKED: ENDBRANCH   1   2
DOCKED: BRANCH   1   8
DOCKED: ATOM      8  C   UNL     1      36.591  12.608 123.777 -0.63 -0.00    +0.000 C 
DOCKED: BRANCH   8   9
DOCKED: ATOM      9  C   UNL     1      36.316  14.077 123.596 -0.47 -0.00    +0.000 A 
DOCKED: ATOM     10  C   UNL     1      37.317  14.930 123.099 -0.38 -0.00    +0.000 A 
DOCKED: ATOM     11  C   UNL     1      37.070  16.299 122.961 -0.26 -0.00    +0.000 A 
DOCKED: ATOM     12  C   UNL     1      35.829  16.828 123.327 -0.30 -0.00    +0.000 A 
DOCKED: ATOM     13  C   UNL     1      34.834  15.989 123.834 -0.48 -0.00    +0.000 A 
DOCKED: ATOM     14  C   UNL     1      35.076  14.619 123.974 -0.45 -0.00    +0.000 A 
DOCKED: ATOM     15  CM  UNL     1      36.074  15.457 123.466 +0.00 -0.00    +0.000 AC
DOCKED: ENDBRANCH   8   9
DOCKED: ENDBRANCH   1   8
DOCKED: TORSDOF 4DOCKED: TER
DOCKED: ENDMDL
________________________________________________________________________________


	BEGINNING GENETIC ALGORITHM DOCKING 98 of 100
Run: 98 Seed: 1938554031 1815667439 [ Run 98 of 100 GA/GALS ]
Beginning LAMARCKIAN GENETIC ALGORITHM (LGA), with a maximum of 2500000 energy evaluations.

Final-Value: -11.480


	FINAL GENETIC ALGORITHM DOCKED STATE
	_______________________________________________


Detailed state:  trans 36.659 13.167 122.999 quatxyzw 0.573459 -0.226596 -0.783144 -0.080527 center 0.505 -0.158 0.114 ntor 4 -50.9269 176.9808 111.5081 -72.4791
State:	 36.659  13.167 122.999   0.575 -0.227 -0.786 -170.762    -50.93  176.98  111.51  -72.48

DOCKED: MODEL       98
DOCKED: USER    Run = 98
DOCKED: USER    DPF = ligand_dock.biased.dpf
DOCKED: USER  
DOCKED: USER    Estimated Free Energy of Binding    =   -9.91 kcal/mol  [=(1)+(2)+(3)-(4)]
DOCKED: USER    Estimated Inhibition Constant, Ki   =   54.62 nM (nanomolar)  [Temperature = 298.15 K]
DOCKED: USER    
DOCKED: USER    (1) Final Intermolecular Energy     =  -11.10 kcal/mol
DOCKED: USER        vdW + Hbond + desolv Energy     =  -11.10 kcal/mol
DOCKED: USER        Electrostatic Energy            =   +0.00 kcal/mol
DOCKED: USER    (2) Final Total Internal Energy     =   -0.38 kcal/mol
DOCKED: USER    (3) Torsional Free Energy           =   +1.19 kcal/mol
DOCKED: USER    (4) Unbound System's Energy  [=(2)] =   -0.38 kcal/mol
DOCKED: USER    
DOCKED: USER    
DOCKED: USER    NEWDPF move ligand.dum.pdbqt
DOCKED: USER    NEWDPF about 0.505000 -0.158000 0.114000
DOCKED: USER    NEWDPF tran0 36.658826 13.167106 122.999174
DOCKED: USER    NEWDPF quaternion0 0.573459 -0.226596 -0.783144 -0.080527
DOCKED: USER    NEWDPF axisangle0 0.575328 -0.227334 -0.785695 -170.762248
DOCKED: USER    NEWDPF quat0 0.575328 -0.227334 -0.785695 -170.762248
DOCKED: USER    NEWDPF dihe0 -50.93 176.98 111.51 -72.48 
DOCKED: USER  keepresnum = 1 
DOCKED: USER  
DOCKED: REMARK  Name = 
DOCKED: REMARK  4 active torsions:
DOCKED: REMARK  status: ('A' for Active; 'I' for Inactive)
DOCKED: REMARK    1  A    between atoms: C_3  and  C_4
DOCKED: REMARK    2  A    between atoms: C_4  and  C_5
DOCKED: REMARK    3  A    between atoms: C_5  and  C_6
DOCKED: REMARK    4  A    between atoms: C_6  and  C_7
DOCKED: REMARK                            x       y       z     vdW  Elec       q    Type
DOCKED: REMARK                         _______ _______ _______ _____ _____    ______ ____
DOCKED: USER                              x       y       z     vdW  Elec       q    Type
DOCKED: USER                           _______ _______ _______ _____ _____    ______ ____
DOCKED: ROOT
DOCKED: ATOM      1  C   UNL     1      36.394  11.875 123.399 -0.70 -0.00    +0.000 C 
DOCKED: ENDROOT
DOCKED: BRANCH   1   2
DOCKED: ATOM      2  C   UNL     1      35.884  10.973 122.270 -0.62 -0.00    +0.000 C 
DOCKED: BRANCH   2   5
DOCKED: ATOM      3  O   UNL     1      37.424   7.718 123.437 -2.59 -0.00    +0.000 OA
DOCKED: ATOM      4  N   UNL     1      36.768   8.901 123.454 -0.58 -0.00    +0.000 N 
DOCKED: ATOM      5  C   UNL     1      36.595   9.650 122.248 -0.69 -0.00    +0.000 C 
DOCKED: ATOM      6  O   UNL     1      37.068   9.214 121.164 -2.74 -0.00    +0.000 OA
DOCKED: ATOM      7  H   UNL     1      36.408   9.250 124.301 -0.30 -0.00    +0.000 HD
DOCKED: ENDBRANCH   2   5
DOCKED: ENDBRANCH   1   2
DOCKED: BRANCH   1   8
DOCKED: ATOM      8  C   UNL     1      37.232  13.050 122.876 -0.58 -0.00    +0.000 C 
DOCKED: BRANCH   8   9
DOCKED: ATOM      9  C   UNL     1      36.494  14.348 123.060 -0.43 -0.00    +0.000 A 
DOCKED: ATOM     10  C   UNL     1      36.835  15.474 122.290 -0.28 -0.00    +0.000 A 
DOCKED: ATOM     11  C   UNL     1      36.170  16.688 122.485 -0.25 -0.00    +0.000 A 
DOCKED: ATOM     12  C   UNL     1      35.169  16.791 123.456 -0.37 -0.00    +0.000 A 
DOCKED: ATOM     13  C   UNL     1      34.835  15.681 124.236 -0.51 -0.00    +0.000 A 
DOCKED: ATOM     14  C   UNL     1      35.497  14.464 124.044 -0.47 -0.00    +0.000 A 
DOCKED: ATOM     15  CM  UNL     1      35.833  15.574 123.262 +0.00 -0.00    +0.000 AC
DOCKED: ENDBRANCH   8   9
DOCKED: ENDBRANCH   1   8
DOCKED: TORSDOF 4DOCKED: TER
DOCKED: ENDMDL
________________________________________________________________________________


	BEGINNING GENETIC ALGORITHM DOCKING 99 of 100
Run: 99 Seed: 493750591 1481064218 [ Run 99 of 100 GA/GALS ]
Beginning LAMARCKIAN GENETIC ALGORITHM (LGA), with a maximum of 2500000 energy evaluations.

Final-Value: -11.653


	FINAL GENETIC ALGORITHM DOCKED STATE
	_______________________________________________


Detailed state:  trans 36.042 12.627 123.584 quatxyzw -0.899530 0.168675 0.273760 -0.295720 center 0.505 -0.158 0.114 ntor 4 -141.3336 168.9230 1.6132 -92.3204
State:	 36.042  12.627 123.584  -0.942  0.177  0.287 -145.599   -141.33  168.92    1.61  -92.32

DOCKED: MODEL       99
DOCKED: USER    Run = 99
DOCKED: USER    DPF = ligand_dock.biased.dpf
DOCKED: USER  
DOCKED: USER    Estimated Free Energy of Binding    =  -10.02 kcal/mol  [=(1)+(2)+(3)-(4)]
DOCKED: USER    Estimated Inhibition Constant, Ki   =   45.38 nM (nanomolar)  [Temperature = 298.15 K]
DOCKED: USER    
DOCKED: USER    (1) Final Intermolecular Energy     =  -11.21 kcal/mol
DOCKED: USER        vdW + Hbond + desolv Energy     =  -11.21 kcal/mol
DOCKED: USER        Electrostatic Energy            =   +0.00 kcal/mol
DOCKED: USER    (2) Final Total Internal Energy     =   -0.44 kcal/mol
DOCKED: USER    (3) Torsional Free Energy           =   +1.19 kcal/mol
DOCKED: USER    (4) Unbound System's Energy  [=(2)] =   -0.44 kcal/mol
DOCKED: USER    
DOCKED: USER    
DOCKED: USER    NEWDPF move ligand.dum.pdbqt
DOCKED: USER    NEWDPF about 0.505000 -0.158000 0.114000
DOCKED: USER    NEWDPF tran0 36.042203 12.627297 123.584405
DOCKED: USER    NEWDPF quaternion0 -0.899530 0.168675 0.273760 -0.295720
DOCKED: USER    NEWDPF axisangle0 -0.941645 0.176572 0.286577 -145.598511
DOCKED: USER    NEWDPF quat0 -0.941645 0.176572 0.286577 -145.598511
DOCKED: USER    NEWDPF dihe0 -141.33 168.92 1.61 -92.32 
DOCKED: USER  keepresnum = 1 
DOCKED: USER  
DOCKED: REMARK  Name = 
DOCKED: REMARK  4 active torsions:
DOCKED: REMARK  status: ('A' for Active; 'I' for Inactive)
DOCKED: REMARK    1  A    between atoms: C_3  and  C_4
DOCKED: REMARK    2  A    between atoms: C_4  and  C_5
DOCKED: REMARK    3  A    between atoms: C_5  and  C_6
DOCKED: REMARK    4  A    between atoms: C_6  and  C_7
DOCKED: REMARK                            x       y       z     vdW  Elec       q    Type
DOCKED: REMARK                         _______ _______ _______ _____ _____    ______ ____
DOCKED: USER                              x       y       z     vdW  Elec       q    Type
DOCKED: USER                           _______ _______ _______ _____ _____    ______ ____
DOCKED: ROOT
DOCKED: ATOM      1  C   UNL     1      35.600  11.553 122.842 -0.55 -0.00    +0.000 C 
DOCKED: ENDROOT
DOCKED: BRANCH   1   2
DOCKED: ATOM      2  C   UNL     1      36.626  11.046 121.822 -0.57 -0.00    +0.000 C 
DOCKED: BRANCH   2   5
DOCKED: ATOM      3  O   UNL     1      37.353   7.710 123.457 -2.62 -0.00    +0.000 OA
DOCKED: ATOM      4  N   UNL     1      37.083   9.027 123.302 -0.62 -0.00    +0.000 N 
DOCKED: ATOM      5  C   UNL     1      36.907   9.581 121.996 -0.64 -0.00    +0.000 C 
DOCKED: ATOM      6  O   UNL     1      37.019   8.843 120.979 -2.69 -0.00    +0.000 OA
DOCKED: ATOM      7  H   UNL     1      37.006   9.607 124.093 -0.54 -0.00    +0.000 HD
DOCKED: ENDBRANCH   2   5
DOCKED: ENDBRANCH   1   2
DOCKED: BRANCH   1   8
DOCKED: ATOM      8  C   UNL     1      36.260  12.282 124.021 -0.60 -0.00    +0.000 C 
DOCKED: BRANCH   8   9
DOCKED: ATOM      9  C   UNL     1      36.381  13.754 123.731 -0.48 -0.00    +0.000 A 
DOCKED: ATOM     10  C   UNL     1      35.356  14.638 124.111 -0.47 -0.00    +0.000 A 
DOCKED: ATOM     11  C   UNL     1      35.455  16.000 123.812 -0.42 -0.00    +0.000 A 
DOCKED: ATOM     12  C   UNL     1      36.571  16.488 123.125 -0.28 -0.00    +0.000 A 
DOCKED: ATOM     13  C   UNL     1      37.587  15.613 122.732 -0.30 -0.00    +0.000 A 
DOCKED: ATOM     14  C   UNL     1      37.492  14.250 123.029 -0.44 -0.00    +0.000 A 
DOCKED: ATOM     15  CM  UNL     1      36.474  15.124 123.423 +0.00 -0.00    +0.000 AC
DOCKED: ENDBRANCH   8   9
DOCKED: ENDBRANCH   1   8
DOCKED: TORSDOF 4DOCKED: TER
DOCKED: ENDMDL
________________________________________________________________________________


	BEGINNING GENETIC ALGORITHM DOCKING 100 of 100
Run: 100 Seed: 1929748730 966840298 [ Run 100 of 100 GA/GALS ]
Beginning LAMARCKIAN GENETIC ALGORITHM (LGA), with a maximum of 2500000 energy evaluations.

Final-Value: -11.642


	FINAL GENETIC ALGORITHM DOCKED STATE
	_______________________________________________


Detailed state:  trans 36.053 12.203 124.088 quatxyzw 0.169257 0.472147 -0.736023 -0.454643 center 0.505 -0.158 0.114 ntor 4 -72.9965 -58.5567 -97.6220 73.2378
State:	 36.053  12.203 124.088   0.190  0.530 -0.826 -125.916    -73.00  -58.56  -97.62   73.24

DOCKED: MODEL      100
DOCKED: USER    Run = 100
DOCKED: USER    DPF = ligand_dock.biased.dpf
DOCKED: USER  
DOCKED: USER    Estimated Free Energy of Binding    =  -10.07 kcal/mol  [=(1)+(2)+(3)-(4)]
DOCKED: USER    Estimated Inhibition Constant, Ki   =   41.63 nM (nanomolar)  [Temperature = 298.15 K]
DOCKED: USER    
DOCKED: USER    (1) Final Intermolecular Energy     =  -11.26 kcal/mol
DOCKED: USER        vdW + Hbond + desolv Energy     =  -11.26 kcal/mol
DOCKED: USER        Electrostatic Energy            =   +0.00 kcal/mol
DOCKED: USER    (2) Final Total Internal Energy     =   -0.38 kcal/mol
DOCKED: USER    (3) Torsional Free Energy           =   +1.19 kcal/mol
DOCKED: USER    (4) Unbound System's Energy  [=(2)] =   -0.38 kcal/mol
DOCKED: USER    
DOCKED: USER    
DOCKED: USER    NEWDPF move ligand.dum.pdbqt
DOCKED: USER    NEWDPF about 0.505000 -0.158000 0.114000
DOCKED: USER    NEWDPF tran0 36.053133 12.203431 124.088382
DOCKED: USER    NEWDPF quaternion0 0.169257 0.472147 -0.736023 -0.454643
DOCKED: USER    NEWDPF axisangle0 0.190032 0.530101 -0.826366 -125.916126
DOCKED: USER    NEWDPF quat0 0.190032 0.530101 -0.826366 -125.916126
DOCKED: USER    NEWDPF dihe0 -73.00 -58.56 -97.62 73.24 
DOCKED: USER  keepresnum = 1 
DOCKED: USER  
DOCKED: REMARK  Name = 
DOCKED: REMARK  4 active torsions:
DOCKED: REMARK  status: ('A' for Active; 'I' for Inactive)
DOCKED: REMARK    1  A    between atoms: C_3  and  C_4
DOCKED: REMARK    2  A    between atoms: C_4  and  C_5
DOCKED: REMARK    3  A    between atoms: C_5  and  C_6
DOCKED: REMARK    4  A    between atoms: C_6  and  C_7
DOCKED: REMARK                            x       y       z     vdW  Elec       q    Type
DOCKED: REMARK                         _______ _______ _______ _____ _____    ______ ____
DOCKED: USER                              x       y       z     vdW  Elec       q    Type
DOCKED: USER                           _______ _______ _______ _____ _____    ______ ____
DOCKED: ROOT
DOCKED: ATOM      1  C   UNL     1      37.051  11.886 123.193 -0.66 -0.00    +0.000 C 
DOCKED: ENDROOT
DOCKED: BRANCH   1   2
DOCKED: ATOM      2  C   UNL     1      36.556  11.103 121.971 -0.62 -0.00    +0.000 C 
DOCKED: BRANCH   2   5
DOCKED: ATOM      3  O   UNL     1      37.356   7.715 123.458 -2.62 -0.00    +0.000 OA
DOCKED: ATOM      4  N   UNL     1      37.051   9.030 123.361 -0.61 -0.00    +0.000 N 
DOCKED: ATOM      5  C   UNL     1      36.877   9.640 122.080 -0.64 -0.00    +0.000 C 
DOCKED: ATOM      6  O   UNL     1      37.022   8.954 121.032 -2.70 -0.00    +0.000 OA
DOCKED: ATOM      7  H   UNL     1      36.948   9.570 124.177 -0.55 -0.00    +0.000 HD
DOCKED: ENDBRANCH   2   5
DOCKED: ENDBRANCH   1   2
DOCKED: BRANCH   1   8
DOCKED: ATOM      8  C   UNL     1      35.942  12.732 123.833 -0.61 -0.00    +0.000 C 
DOCKED: BRANCH   8   9
DOCKED: ATOM      9  C   UNL     1      36.113  14.184 123.477 -0.48 -0.00    +0.000 A 
DOCKED: ATOM     10  C   UNL     1      37.271  14.619 122.807 -0.39 -0.00    +0.000 A 
DOCKED: ATOM     11  C   UNL     1      37.443  15.973 122.505 -0.26 -0.00    +0.000 A 
DOCKED: ATOM     12  C   UNL     1      36.468  16.904 122.879 -0.24 -0.00    +0.000 A 
DOCKED: ATOM     13  C   UNL     1      35.322  16.482 123.557 -0.38 -0.00    +0.000 A 
DOCKED: ATOM     14  C   UNL     1      35.146  15.128 123.860 -0.51 -0.00    +0.000 A 
DOCKED: ATOM     15  CM  UNL     1      36.294  15.548 123.181 +0.00 -0.00    +0.000 AC
DOCKED: ENDBRANCH   8   9
DOCKED: ENDBRANCH   1   8
DOCKED: TORSDOF 4DOCKED: TER
DOCKED: ENDMDL
________________________________________________________________________________

DPF> analysis                             # perform a ranked cluster analysis


		CLUSTER ANALYSIS OF CONFORMATIONS
		_________________________________

Number of conformations = 100

RMSD cluster analysis will be performed using the ligand atoms only (15 / 15 total atoms).

Outputting structurally similar clusters, ranked in order of increasing energy.


________________________________________________________________________________

Number of distinct conformational clusters found = 3,  out of 100 runs,
Using an rmsd-tolerance of 2.0 A


	CLUSTERING HISTOGRAM
	____________________

________________________________________________________________________________
     |           |     |           |     |                                    
Clus | Lowest    | Run | Mean      | Num | Histogram                          
-ter | Binding   |     | Binding   | in  |                                    
Rank | Energy    |     | Energy    | Clus|    5    10   15   20   25   30   35
_____|___________|_____|___________|_____|____:____|____:____|____:____|____:___
   1 |    -10.20 |  90 |     -9.90 |  93 |#############################################################################################
   2 |     -9.27 |  43 |     -9.12 |   6 |######
   3 |     -8.99 |  33 |     -8.99 |   1 |#
_____|___________|_____|___________|_____|______________________________________


Number of multi-member conformational clusters found = 2, out of 100 runs.

	RMSD TABLE
	__________

_____________________________________________________________________
     |      |      |           |         |                 |
Rank | Sub- | Run  | Binding   | Cluster | Reference       | Grep
     | Rank |      | Energy    | RMSD    | RMSD            | Pattern
_____|______|______|___________|_________|_________________|___________
   1      1     90      -10.20      0.00    128.17           RANKING
   1      2     11      -10.19      0.13    128.19           RANKING
   1      3      3      -10.18      0.38    127.99           RANKING
   1      4     71      -10.17      0.25    128.06           RANKING
   1      5     22      -10.17      0.41    128.01           RANKING
   1      6     23      -10.17      0.36    128.02           RANKING
   1      7     77      -10.16      0.31    128.02           RANKING
   1      8     51      -10.16      0.19    128.10           RANKING
   1      9     54      -10.16      0.45    128.06           RANKING
   1     10     16      -10.15      0.26    128.12           RANKING
   1     11     56      -10.15      0.29    128.18           RANKING
   1     12     17      -10.14      0.17    128.19           RANKING
   1     13     31      -10.14      0.28    128.14           RANKING
   1     14     41      -10.13      0.41    128.01           RANKING
   1     15     21      -10.13      0.52    128.11           RANKING
   1     16     40      -10.12      0.25    128.17           RANKING
   1     17     84      -10.12      0.47    127.95           RANKING
   1     18     24      -10.12      0.28    128.16           RANKING
   1     19      8      -10.10      0.34    128.18           RANKING
   1     20     74      -10.10      0.43    128.07           RANKING
   1     21     28      -10.09      0.50    128.02           RANKING
   1     22      1      -10.09      0.43    128.02           RANKING
   1     23     36      -10.09      0.55    128.05           RANKING
   1     24     67      -10.09      0.48    128.05           RANKING
   1     25     64      -10.08      0.60    128.00           RANKING
   1     26     97      -10.08      0.56    128.07           RANKING
   1     27      9      -10.08      0.65    127.98           RANKING
   1     28     60      -10.07      0.48    127.98           RANKING
   1     29    100      -10.07      0.60    128.06           RANKING
   1     30      5      -10.06      0.53    128.13           RANKING
   1     31     89      -10.05      0.66    127.92           RANKING
   1     32     46      -10.05      0.53    128.04           RANKING
   1     33     61      -10.05      0.49    128.07           RANKING
   1     34     35      -10.05      0.56    127.99           RANKING
   1     35     30      -10.05      0.58    128.02           RANKING
   1     36     69      -10.04      0.59    128.01           RANKING
   1     37     55      -10.04      0.58    128.12           RANKING
   1     38     94      -10.04      0.61    128.06           RANKING
   1     39     95      -10.04      0.46    127.99           RANKING
   1     40     38      -10.03      0.52    128.16           RANKING
   1     41     15      -10.03      0.63    128.02           RANKING
   1     42     79      -10.03      0.57    128.09           RANKING
   1     43     47      -10.03      0.50    128.16           RANKING
   1     44     82      -10.03      0.56    128.13           RANKING
   1     45     86      -10.02      0.60    128.09           RANKING
   1     46     13      -10.02      0.51    128.07           RANKING
   1     47     81      -10.02      0.61    128.09           RANKING
   1     48     99      -10.02      0.60    128.11           RANKING
   1     49     32      -10.01      0.68    127.97           RANKING
   1     50     48      -10.00      0.49    128.07           RANKING
   1     51     73       -9.98      0.31    128.18           RANKING
   1     52     26       -9.98      0.60    128.06           RANKING
   1     53     96       -9.95      0.44    128.10           RANKING
   1     54     42       -9.93      0.69    127.96           RANKING
   1     55     50       -9.92      0.51    127.98           RANKING
   1     56     18       -9.91      0.62    128.10           RANKING
   1     57     98       -9.91      0.55    128.02           RANKING
   1     58     80       -9.90      0.69    127.94           RANKING
   1     59     92       -9.88      0.50    128.04           RANKING
   1     60     10       -9.88      0.45    128.08           RANKING
   1     61     57       -9.87      0.50    128.20           RANKING
   1     62     29       -9.87      0.61    128.10           RANKING
   1     63     49       -9.86      0.52    128.12           RANKING
   1     64     25       -9.86      0.56    127.92           RANKING
   1     65     14       -9.85      0.90    128.25           RANKING
   1     66     62       -9.84      0.90    128.10           RANKING
   1     67      4       -9.79      0.89    127.82           RANKING
   1     68     44       -9.75      1.97    127.50           RANKING
   1     69     58       -9.74      0.69    127.82           RANKING
   1     70      2       -9.73      0.72    127.86           RANKING
   1     71     70       -9.73      0.56    128.08           RANKING
   1     72     87       -9.72      0.50    128.22           RANKING
   1     73     39       -9.70      1.10    127.84           RANKING
   1     74     78       -9.69      0.56    128.11           RANKING
   1     75     85       -9.69      1.87    127.63           RANKING
   1     76     68       -9.68      0.61    128.17           RANKING
   1     77     52       -9.67      1.86    127.62           RANKING
   1     78     34       -9.66      0.68    127.91           RANKING
   1     79     66       -9.66      1.02    128.20           RANKING
   1     80     88       -9.63      1.93    127.36           RANKING
   1     81     53       -9.60      0.81    127.84           RANKING
   1     82     72       -9.58      0.56    128.08           RANKING
   1     83     45       -9.57      1.47    127.44           RANKING
   1     84     75       -9.56      1.21    128.15           RANKING
   1     85     12       -9.55      1.06    127.63           RANKING
   1     86      6       -9.54      0.72    128.29           RANKING
   1     87     76       -9.50      1.21    127.87           RANKING
   1     88     93       -9.43      1.53    127.74           RANKING
   1     89      7       -9.26      1.56    127.56           RANKING
   1     90     27       -9.23      1.79    127.99           RANKING
   1     91     65       -9.19      1.94    127.59           RANKING
   1     92     91       -9.18      1.70    127.68           RANKING
   1     93     59       -9.02      1.27    127.94           RANKING
   2      1     43       -9.27      0.00    127.36           RANKING
   2      2     37       -9.26      0.51    127.56           RANKING
   2      3     19       -9.20      1.27    127.33           RANKING
   2      4     20       -9.07      1.82    125.84           RANKING
   2      5     83       -9.00      0.96    127.45           RANKING
   2      6     63       -8.95      0.94    127.53           RANKING
   3      1     33       -8.99      0.00    125.68           RANKING
_______________________________________________________________________



	INFORMATION ENTROPY ANALYSIS FOR THIS CLUSTERING
	________________________________________________


Information entropy for this clustering = 0.06  (rmstol = 2.00 Angstrom)

_______________________________________________________________________


	STATISTICAL MECHANICAL ANALYSIS
	_______________________________


Partition function, Q =   101.68            at Temperature, T = 298.15 K
Free energy,        A ~ -2738.32 kcal/mol   at Temperature, T = 298.15 K
Internal energy,    U =    -9.85 kcal/mol   at Temperature, T = 298.15 K
Entropy,            S =     9.15 kcal/mol/K at Temperature, T = 298.15 K

_______________________________________________________________________


	LOWEST ENERGY DOCKED CONFORMATION from EACH CLUSTER
	___________________________________________________



Keeping original residue number (specified in the input PDBQ file) for outputting.

MODEL       90
USER    Run = 90
USER    Cluster Rank = 1
USER    Number of conformations in this cluster = 93
USER  
USER    RMSD from reference structure       = 128.168 A
USER  
USER    Estimated Free Energy of Binding    =  -10.20 kcal/mol  [=(1)+(2)+(3)-(4)]
USER    Estimated Inhibition Constant, Ki   =   33.47 nM (nanomolar)  [Temperature = 298.15 K]
USER    
USER    (1) Final Intermolecular Energy     =  -11.39 kcal/mol
USER        vdW + Hbond + desolv Energy     =  -11.39 kcal/mol
USER        Electrostatic Energy            =   +0.00 kcal/mol
USER    (2) Final Total Internal Energy     =   -0.36 kcal/mol
USER    (3) Torsional Free Energy           =   +1.19 kcal/mol
USER    (4) Unbound System's Energy  [=(2)] =   -0.36 kcal/mol
USER    
USER    
USER  
USER    DPF = ligand_dock.biased.dpf
USER    NEWDPF move	ligand.dum.pdbqt
USER    NEWDPF about	0.505000 -0.158000 0.114000
USER    NEWDPF tran0	36.858947 13.146114 123.197797
USER    NEWDPF axisangle0	-0.698180 0.167281 0.696104 179.073562
USER    NEWDPF quaternion0	-0.698158 0.167275 0.696082 0.008085
USER    NEWDPF dihe0	-98.33 -160.81 -82.33 -68.85 
USER  
USER                              x       y       z    vdW   Elec        q     RMS 
ATOM      1  C   UNL     1      36.547  11.807 123.295 -0.69 -0.00    +0.000    128.168
ATOM      2  C   UNL     1      36.460  11.095 121.940 -0.60 -0.00    +0.000    128.168
ATOM      3  O   UNL     1      37.237   7.715 123.458 -2.66 -0.00    +0.000    128.168
ATOM      4  N   UNL     1      36.993   9.041 123.345 -0.61 -0.00    +0.000    128.168
ATOM      5  C   UNL     1      36.713   9.620 122.068 -0.68 -0.00    +0.000    128.168
ATOM      6  O   UNL     1      36.708   8.895 121.037 -2.62 -0.00    +0.000    128.168
ATOM      7  H   UNL     1      37.008   9.612 124.147 -0.55 -0.00    +0.000    128.168
ATOM      8  C   UNL     1      37.447  13.050 123.245 -0.57 -0.00    +0.000    128.168
ATOM      9  C   UNL     1      36.637  14.298 123.469 -0.45 -0.00    +0.000    128.168
ATOM     10  C   UNL     1      35.282  14.209 123.832 -0.43 -0.00    +0.000    128.168
ATOM     11  C   UNL     1      34.522  15.369 124.009 -0.53 -0.00    +0.000    128.168
ATOM     12  C   UNL     1      35.105  16.625 123.814 -0.40 -0.00    +0.000    128.168
ATOM     13  C   UNL     1      36.448  16.722 123.439 -0.28 -0.00    +0.000    128.168
ATOM     14  C   UNL     1      37.211  15.563 123.262 -0.33 -0.00    +0.000    128.168
ATOM     15  CM  UNL     1      35.867  15.464 123.637 +0.00 -0.00    +0.000    128.168
TER
ENDMDL
MODEL       43
USER    Run = 43
USER    Cluster Rank = 2
USER    Number of conformations in this cluster = 6
USER  
USER    RMSD from reference structure       = 127.363 A
USER  
USER    Estimated Free Energy of Binding    =   -9.27 kcal/mol  [=(1)+(2)+(3)-(4)]
USER    Estimated Inhibition Constant, Ki   =  161.14 nM (nanomolar)  [Temperature = 298.15 K]
USER    
USER    (1) Final Intermolecular Energy     =  -10.46 kcal/mol
USER        vdW + Hbond + desolv Energy     =  -10.46 kcal/mol
USER        Electrostatic Energy            =   +0.00 kcal/mol
USER    (2) Final Total Internal Energy     =   -0.43 kcal/mol
USER    (3) Torsional Free Energy           =   +1.19 kcal/mol
USER    (4) Unbound System's Energy  [=(2)] =   -0.43 kcal/mol
USER    
USER    
USER  
USER    DPF = ligand_dock.biased.dpf
USER    NEWDPF move	ligand.dum.pdbqt
USER    NEWDPF about	0.505000 -0.158000 0.114000
USER    NEWDPF tran0	36.573560 12.975243 123.758426
USER    NEWDPF axisangle0	0.205394 0.168222 -0.964113 -152.491575
USER    NEWDPF quaternion0	0.199504 0.163398 -0.936467 -0.237757
USER    NEWDPF dihe0	-20.97 -128.89 155.64 81.92 
USER  
USER                              x       y       z    vdW   Elec        q     RMS 
ATOM      1  C   UNL     1      37.071  11.751 123.367 -0.67 -0.00    +0.000    127.363
ATOM      2  C   UNL     1      36.061  10.896 122.591 -0.67 -0.00    +0.000    127.363
ATOM      3  O   UNL     1      37.063   7.290 123.158 -2.29 -0.00    +0.000    127.363
ATOM      4  N   UNL     1      36.578   8.534 123.382 -0.65 -0.00    +0.000    127.363
ATOM      5  C   UNL     1      36.582   9.511 122.338 -0.71 -0.00    +0.000    127.363
ATOM      6  O   UNL     1      37.053   9.219 121.205 -2.73 -0.00    +0.000    127.363
ATOM      7  H   UNL     1      36.221   8.767 124.268 -0.27 -0.00    +0.000    127.363
ATOM      8  C   UNL     1      36.766  13.252 123.264 -0.60 -0.00    +0.000    127.363
ATOM      9  C   UNL     1      37.569  13.880 122.158 -0.42 -0.00    +0.000    127.363
ATOM     10  C   UNL     1      38.550  14.843 122.452 -0.36 -0.00    +0.000    127.363
ATOM     11  C   UNL     1      39.273  15.448 121.420 -0.26 -0.00    +0.000    127.363
ATOM     12  C   UNL     1      39.017  15.106 120.089 -0.19 -0.00    +0.000    127.363
ATOM     13  C   UNL     1      38.033  14.160 119.788 -0.28 -0.00    +0.000    127.363
ATOM     14  C   UNL     1      37.308  13.552 120.817 -0.37 -0.00    +0.000    127.363
ATOM     15  CM  UNL     1      38.291  14.498 121.120 +0.00 -0.00    +0.000    127.363
TER
ENDMDL
MODEL       33
USER    Run = 33
USER    Cluster Rank = 3
USER    Number of conformations in this cluster = 1
USER  
USER    RMSD from reference structure       = 125.678 A
USER  
USER    Estimated Free Energy of Binding    =   -8.99 kcal/mol  [=(1)+(2)+(3)-(4)]
USER    Estimated Inhibition Constant, Ki   =  258.80 nM (nanomolar)  [Temperature = 298.15 K]
USER    
USER    (1) Final Intermolecular Energy     =  -10.18 kcal/mol
USER        vdW + Hbond + desolv Energy     =  -10.18 kcal/mol
USER        Electrostatic Energy            =   +0.00 kcal/mol
USER    (2) Final Total Internal Energy     =   -0.33 kcal/mol
USER    (3) Torsional Free Energy           =   +1.19 kcal/mol
USER    (4) Unbound System's Energy  [=(2)] =   -0.33 kcal/mol
USER    
USER    
USER  
USER    DPF = ligand_dock.biased.dpf
USER    NEWDPF move	ligand.dum.pdbqt
USER    NEWDPF about	0.505000 -0.158000 0.114000
USER    NEWDPF tran0	37.921308 12.334812 120.213619
USER    NEWDPF axisangle0	-0.797117 0.489991 -0.352866 129.136542
USER    NEWDPF quaternion0	-0.719874 0.442510 -0.318672 0.429435
USER    NEWDPF dihe0	91.68 -56.38 19.14 17.96 
USER  
USER                              x       y       z    vdW   Elec        q     RMS 
ATOM      1  C   UNL     1      36.783  11.919 120.870 -0.42 -0.00    +0.000    125.678
ATOM      2  C   UNL     1      37.056  11.319 122.255 -0.57 -0.00    +0.000    125.678
ATOM      3  O   UNL     1      37.066   7.715 123.413 -2.68 -0.00    +0.000    125.678
ATOM      4  N   UNL     1      37.062   9.068 123.442 -0.58 -0.00    +0.000    125.678
ATOM      5  C   UNL     1      37.042   9.817 122.224 -0.59 -0.00    +0.000    125.678
ATOM      6  O   UNL     1      37.044   9.217 121.116 -2.73 -0.00    +0.000    125.678
ATOM      7  H   UNL     1      37.072   9.539 124.306 -0.55 -0.00    +0.000    125.678
ATOM      8  C   UNL     1      37.885  12.892 120.428 -0.48 -0.00    +0.000    125.678
ATOM      9  C   UNL     1      37.373  13.819 119.360 -0.35 -0.00    +0.000    125.678
ATOM     10  C   UNL     1      37.143  15.176 119.648 -0.21 -0.00    +0.000    125.678
ATOM     11  C   UNL     1      36.637  16.029 118.663 -0.15 -0.00    +0.000    125.678
ATOM     12  C   UNL     1      36.347  15.533 117.388 -0.18 -0.00    +0.000    125.678
ATOM     13  C   UNL     1      36.560  14.183 117.097 -0.32 -0.00    +0.000    125.678
ATOM     14  C   UNL     1      37.066  13.326 118.080 -0.37 -0.00    +0.000    125.678
ATOM     15  CM  UNL     1      36.854  14.677 118.373 +0.00 -0.00    +0.000    125.678
TER
ENDMDL


AVSFLD: # AVS field file
AVSFLD: #
AVSFLD: # Created by AutoDock
AVSFLD: #
AVSFLD: ndim=2           # number of dimensions in the field
AVSFLD: nspace=1         # number of physical coordinates
AVSFLD: veclen=7         # vector size
AVSFLD: dim1=15          # atoms
AVSFLD: dim2=3           # conformations
AVSFLD: data=Real       # data type (byte,integer,Real,double)
AVSFLD: field=uniform    # field coordinate layout
AVSFLD: label= x y z vdW Elec q RMS
AVSFLD: variable 1 file = ligand_dock.biased.dlg.pdb filetype = ascii offset = 5 stride = 12
AVSFLD: variable 2 file = ligand_dock.biased.dlg.pdb filetype = ascii offset = 6 stride = 12
AVSFLD: variable 3 file = ligand_dock.biased.dlg.pdb filetype = ascii offset = 7 stride = 12
AVSFLD: variable 4 file = ligand_dock.biased.dlg.pdb filetype = ascii offset = 8 stride = 12
AVSFLD: variable 5 file = ligand_dock.biased.dlg.pdb filetype = ascii offset = 9 stride = 12
AVSFLD: variable 6 file = ligand_dock.biased.dlg.pdb filetype = ascii offset = 10 stride = 12
AVSFLD: variable 7 file = ligand_dock.biased.dlg.pdb filetype = ascii offset = 11 stride = 12
AVSFLD: # end of file

>>> Closing the docking parameter file (DPF)...
This docking finished at:			6:14 29" p.m., 11/08/2024


________________________________________________________________________________

autodock4: Successful Completion on "ThinkStation-P620"

Real= 7m 20.53s,  CPU= 7m 20.30s,  System= 0.18s
________________________________________________________________________________

