REMARK  Name = 
REMARK  9 active torsions:
REMARK  status: ('A' for Active; 'I' for Inactive)
REMARK    1  A    between atoms: C_2  and  C_3
REMARK    2  A    between atoms: C_4  and  C_5
REMARK    3  A    between atoms: C_8  and  C_9
REMARK    4  A    between atoms: C_9  and  N_10
REMARK    5  A    between atoms: N_10  and  C_11
REMARK    6  A    between atoms: C_11  and  C_12
REMARK    7  A    between atoms: C_12  and  C_13
REMARK    8  A    between atoms: C_14  and  C_22
REMARK    9  A    between atoms: N_25  and  O_26
REMARK                            x       y       z     vdW  Elec       q    Type
REMARK                         _______ _______ _______ _____ _____    ______ ____
ROOT
ATOM      1  N   UNL     1      -0.292   0.652  -0.301  0.00  0.00    +0.000 N 
ATOM      2  H   UNL     1      -0.219   0.438  -1.296  0.00  0.00    +0.000 HD
ATOM      3  H   UNL     1       0.243   1.486  -0.061  0.00  0.00    +0.000 HD
ENDROOT
BRANCH   1   4
ATOM      4  C   UNL     1       0.259  -0.473   0.466  0.00  0.00    +0.000 C 
BRANCH   4   8
ATOM      5  C   UNL     1       4.535  -0.581  -0.179  0.00  0.00    +0.000 A 
ATOM      6  C   UNL     1       3.976   0.286   0.781  0.00  0.00    +0.000 A 
ATOM      7  C   UNL     1       2.594   0.314   0.991  0.00  0.00    +0.000 A 
ATOM      8  C   UNL     1       1.747  -0.535   0.264  0.00  0.00    +0.000 A 
ATOM      9  C   UNL     1       2.299  -1.402  -0.691  0.00  0.00    +0.000 A 
ATOM     10  C   UNL     1       3.681  -1.432  -0.900  0.00  0.00    +0.000 A 
BRANCH   5  12
ATOM     11  C   UNL     1       6.856   0.326  -0.139  0.00  0.00    +0.000 C 
ATOM     12  C   UNL     1       5.995  -0.660  -0.433  0.00  0.00    +0.000 C 
BRANCH  11  14
ATOM     13  O   UNL     1       9.067   1.067   0.181  0.00  0.00    +0.000 OA
ATOM     14  C   UNL     1       8.309   0.244  -0.396  0.00  0.00    +0.000 C 
ATOM     15  N   UNL     1       8.877  -0.719  -1.295  0.00  0.00    +0.000 N 
ATOM     16  H   UNL     1       8.288  -1.303  -1.825  0.00  0.00    +0.000 HD
BRANCH  15  17
ATOM     17  O   UNL     1      10.222  -0.825  -1.417  0.00  0.00    +0.000 OA
ATOM     18  H   UNL     1      10.652  -0.183  -0.831  0.00  0.00    +0.000 HD
ENDBRANCH  15  17
ENDBRANCH  11  14
ENDBRANCH   5  12
ENDBRANCH   4   8
ENDBRANCH   1   4
BRANCH   1  19
ATOM     19  C   UNL     1      -1.703   0.910   0.026  0.00  0.00    +0.000 C 
BRANCH  19  20
ATOM     20  C   UNL     1      -2.653  -0.103  -0.635  0.00  0.00    +0.000 C 
BRANCH  20  21
ATOM     21  C   UNL     1      -4.082   0.259  -0.349  0.00  0.00    +0.000 A 
ATOM     22  C   UNL     1      -4.928   1.059  -1.120  0.00  0.00    +0.000 A 
ATOM     23  N   UNL     1      -6.125   1.217  -0.509  0.00  0.00    +0.000 N 
ATOM     24  C   UNL     1      -6.037   0.544   0.651  0.00  0.00    +0.000 A 
ATOM     25  C   UNL     1      -4.806  -0.047   0.788  0.00  0.00    +0.000 A 
ATOM     26  C   UNL     1      -4.466  -0.781   1.925  0.00  0.00    +0.000 A 
ATOM     27  C   UNL     1      -5.434  -0.909   2.938  0.00  0.00    +0.000 A 
ATOM     28  C   UNL     1      -6.703  -0.305   2.795  0.00  0.00    +0.000 A 
ATOM     29  C   UNL     1      -7.015   0.434   1.639  0.00  0.00    +0.000 A 
ATOM     30  C   UNL     1      -4.596   1.648  -2.454  0.00  0.00    +0.000 C 
ATOM     31  H   UNL     1      -6.901   1.721  -0.846  0.00  0.00    +0.000 HD
ENDBRANCH  20  21
ENDBRANCH  19  20
ENDBRANCH   1  19
TORSDOF 8
