          AutoDock 4.2 Release 4.2.6   
         (C) 1989-2012 The Scripps Research Institute
        AutoDock comes with ABSOLUTELY NO WARRANTY.
        AutoDock is free software, and you are welcome
        to redistribute it under certain conditions;
        for details type 'autodock4 -C'

                     main.cc  $Revision: 1.213 $

                   Compiled on Feb 20 2022 at 09:48:33


This file was created at:			6:39 07" p.m., 11/08/2024
                   on host:		"ThinkStation-P620"
Current Working Directory = "/home/antonio/Documenti/buccheri/IDROSSAMICO HDAC/HDAC 8/P (copia)/Ligand_4"

      ________________________________________________________________

                   SETTING UP DEFAULT PARAMETER LIBRARY
      ________________________________________________________________


Random number generator was seeded with values 358152, 1731087547.
Docking parameter file (DPF) used for this docking:		ligand_dock.biased.dpf
DPF> parameter_file ad4_arom_params.dat

Using read_parameter_library() to try to open and read "ad4_arom_params.dat".

DPF> autodock_parameter_version 4.2       # used by autodock to validate parameter set

	Autodock parameter version 4.2.
DPF> outlev 1                             # diagnostic output level

Output Level = 1  ADT-COMPATIBLE OUTPUT DURING DOCKING.
DPF> intelec                              # calculate internal electrostatics

Electrostatic energies will be calculated for all non-bonds between moving atoms.
DPF> seed pid time                        # seeds for random generator

Random number generator was seeded with values 358152, 1731087547.
DPF> ligand_types A C OA HD N AC

WARNING: pairwise distance, Rij, 0.00, is not a very reasonable value for the equilibrium separation of two atoms! (0.90 Angstroms <= Rij <= 6.00 Angstroms)

Perhaps you meant to use "intnbp_coeffs" instead of "intnbp_r_eps"?

DPF> fld receptor.maps.fld                # grid_data_file

Opening Grid Map Dimensions file:		receptor.maps.fld
Grid Point Spacing =				0.375 Angstroms

Even Number of User-specified Grid Points =	70 x-points
						70 y-points
						70 z-points

Coordinates of Central Grid Point of Maps =	(36.691, 12.592, 124.207)
Macromolecule file used to create Grid Maps =	receptor.pdbqt
Grid Parameter file used to create Grid Maps =	receptor.gpf
Minimum coordinates in grid = (23.566, -0.533, 111.082)
Maximum coordinates in grid = (49.816, 25.717, 137.332)

DPF> map receptor.A.map                   # atom-specific affinity map

DPF> map receptor.C.map                   # atom-specific affinity map

DPF> map receptor.OA.biased.map

DPF> map receptor.HD.map                  # atom-specific affinity map

DPF> map receptor.N.map                   # atom-specific affinity map

DPF> map receptor.AC.biased.map

DPF> elecmap receptor.e.map               # electrostatics map

DPF> desolvmap receptor.d.map             # desolvation map

DPF> move ligand.dum.pdbqt

1,4-interactions will be _ignored_ in the non-bonded internal energy calculation.

Ligand PDBQT file = "ligand.dum.pdbqt"

INPUT LIGAND PDBQT FILE:
________________________

INPUT-LIGAND-PDBQT: REMARK  Name = 
INPUT-LIGAND-PDBQT: REMARK  9 active torsions:
INPUT-LIGAND-PDBQT: REMARK  status: ('A' for Active; 'I' for Inactive)
INPUT-LIGAND-PDBQT: REMARK    1  A    between atoms: C_2  and  C_3
INPUT-LIGAND-PDBQT: REMARK    2  A    between atoms: C_4  and  C_5
INPUT-LIGAND-PDBQT: REMARK    3  A    between atoms: C_8  and  C_9
INPUT-LIGAND-PDBQT: REMARK    4  A    between atoms: C_9  and  N_10
INPUT-LIGAND-PDBQT: REMARK    5  A    between atoms: N_10  and  C_11
INPUT-LIGAND-PDBQT: REMARK    6  A    between atoms: C_11  and  C_12
INPUT-LIGAND-PDBQT: REMARK    7  A    between atoms: C_12  and  C_13
INPUT-LIGAND-PDBQT: REMARK    8  A    between atoms: C_14  and  C_22
INPUT-LIGAND-PDBQT: REMARK    9  A    between atoms: N_25  and  O_26
INPUT-LIGAND-PDBQT: REMARK                            x       y       z     vdW  Elec       q    Type
INPUT-LIGAND-PDBQT: REMARK                         _______ _______ _______ _____ _____    ______ ____
INPUT-LIGAND-PDBQT: ROOT
INPUT-LIGAND-PDBQT: ATOM      1  N   UNL     1      -0.292   0.652  -0.301  0.00  0.00     0.000 N 
INPUT-LIGAND-PDBQT: ATOM      2  H   UNL     1      -0.219   0.438  -1.296  0.00  0.00     0.000 HD
INPUT-LIGAND-PDBQT: ATOM      3  H   UNL     1       0.243   1.486  -0.061  0.00  0.00     0.000 HD
INPUT-LIGAND-PDBQT: ENDROOT
INPUT-LIGAND-PDBQT: BRANCH   1   4
INPUT-LIGAND-PDBQT: ATOM      4  C   UNL     1       0.259  -0.473   0.466  0.00  0.00     0.000 C 
INPUT-LIGAND-PDBQT: BRANCH   4   8
INPUT-LIGAND-PDBQT: ATOM      5  C   UNL     1       4.535  -0.581  -0.179  0.00  0.00     0.000 A 
INPUT-LIGAND-PDBQT: ATOM      6  C   UNL     1       3.976   0.286   0.781  0.00  0.00     0.000 A 
INPUT-LIGAND-PDBQT: ATOM      7  C   UNL     1       2.594   0.314   0.991  0.00  0.00     0.000 A 
INPUT-LIGAND-PDBQT: ATOM      8  C   UNL     1       1.747  -0.535   0.264  0.00  0.00     0.000 A 
INPUT-LIGAND-PDBQT: ATOM      9  C   UNL     1       2.299  -1.402  -0.691  0.00  0.00     0.000 A 
INPUT-LIGAND-PDBQT: ATOM     10  C   UNL     1       3.681  -1.432  -0.900  0.00  0.00     0.000 A 
INPUT-LIGAND-PDBQT: ATOM     32  CM  UNL     1       3.139  -0.558   0.044  1.00  0.00     0.000 AC
INPUT-LIGAND-PDBQT: BRANCH   5  12
INPUT-LIGAND-PDBQT: ATOM     11  C   UNL     1       6.856   0.326  -0.139  0.00  0.00     0.000 C 
INPUT-LIGAND-PDBQT: ATOM     12  C   UNL     1       5.995  -0.660  -0.433  0.00  0.00     0.000 C 
INPUT-LIGAND-PDBQT: BRANCH  11  14
INPUT-LIGAND-PDBQT: ATOM     13  O   UNL     1       9.067   1.067   0.181  0.00  0.00     0.000 OA
INPUT-LIGAND-PDBQT: ATOM     14  C   UNL     1       8.309   0.244  -0.396  0.00  0.00     0.000 C 
INPUT-LIGAND-PDBQT: ATOM     15  N   UNL     1       8.877  -0.719  -1.295  0.00  0.00     0.000 N 
INPUT-LIGAND-PDBQT: ATOM     16  H   UNL     1       8.288  -1.303  -1.825  0.00  0.00     0.000 HD
INPUT-LIGAND-PDBQT: BRANCH  15  17
INPUT-LIGAND-PDBQT: ATOM     17  O   UNL     1      10.222  -0.825  -1.417  0.00  0.00     0.000 OA
INPUT-LIGAND-PDBQT: ATOM     18  H   UNL     1      10.652  -0.183  -0.831  0.00  0.00     0.000 HD
INPUT-LIGAND-PDBQT: ENDBRANCH  15  17
INPUT-LIGAND-PDBQT: ENDBRANCH  11  14
INPUT-LIGAND-PDBQT: ENDBRANCH   5  12
INPUT-LIGAND-PDBQT: ENDBRANCH   4   8
INPUT-LIGAND-PDBQT: ENDBRANCH   1   4
INPUT-LIGAND-PDBQT: BRANCH   1  19
INPUT-LIGAND-PDBQT: ATOM     19  C   UNL     1      -1.703   0.910   0.026  0.00  0.00     0.000 C 
INPUT-LIGAND-PDBQT: BRANCH  19  20
INPUT-LIGAND-PDBQT: ATOM     20  C   UNL     1      -2.653  -0.103  -0.635  0.00  0.00     0.000 C 
INPUT-LIGAND-PDBQT: BRANCH  20  21
INPUT-LIGAND-PDBQT: ATOM     21  C   UNL     1      -4.082   0.259  -0.349  0.00  0.00     0.000 A 
INPUT-LIGAND-PDBQT: ATOM     22  C   UNL     1      -4.928   1.059  -1.120  0.00  0.00     0.000 A 
INPUT-LIGAND-PDBQT: ATOM     23  N   UNL     1      -6.125   1.217  -0.509  0.00  0.00     0.000 N 
INPUT-LIGAND-PDBQT: ATOM     24  C   UNL     1      -6.037   0.544   0.651  0.00  0.00     0.000 A 
INPUT-LIGAND-PDBQT: ATOM     25  C   UNL     1      -4.806  -0.047   0.788  0.00  0.00     0.000 A 
INPUT-LIGAND-PDBQT: ATOM     26  C   UNL     1      -4.466  -0.781   1.925  0.00  0.00     0.000 A 
INPUT-LIGAND-PDBQT: ATOM     27  C   UNL     1      -5.434  -0.909   2.938  0.00  0.00     0.000 A 
INPUT-LIGAND-PDBQT: ATOM     28  C   UNL     1      -6.703  -0.305   2.795  0.00  0.00     0.000 A 
INPUT-LIGAND-PDBQT: ATOM     29  C   UNL     1      -7.015   0.434   1.639  0.00  0.00     0.000 A 
INPUT-LIGAND-PDBQT: ATOM     30  C   UNL     1      -4.596   1.648  -2.454  0.00  0.00     0.000 C 
INPUT-LIGAND-PDBQT: ATOM     31  H   UNL     1      -6.901   1.721  -0.846  0.00  0.00     0.000 HD
INPUT-LIGAND-PDBQT: ATOM     33  CM  UNL     1      -5.225   0.626  -0.121  1.00  0.00     0.000 AC
INPUT-LIGAND-PDBQT: ATOM     34  CM  UNL     1      -5.744  -0.177   1.789  1.00  0.00     0.000 AC
INPUT-LIGAND-PDBQT: ENDBRANCH  20  21
INPUT-LIGAND-PDBQT: ENDBRANCH  19  20
INPUT-LIGAND-PDBQT: ENDBRANCH   1  19
INPUT-LIGAND-PDBQT: TORSDOF 8________________________________________________________________________________

Total charge on ligand                               =	+0.000 e
REMARK  Name = 
REMARK  9 active torsions:
REMARK  status: ('A' for Active; 'I' for Inactive)
REMARK    1  A    between atoms: C_2  and  C_3
REMARK    2  A    between atoms: C_4  and  C_5
REMARK    3  A    between atoms: C_8  and  C_9
REMARK    4  A    between atoms: C_9  and  N_10
REMARK    5  A    between atoms: N_10  and  C_11
REMARK    6  A    between atoms: C_11  and  C_12
REMARK    7  A    between atoms: C_12  and  C_13
REMARK    8  A    between atoms: C_14  and  C_22
REMARK    9  A    between atoms: N_25  and  O_26
REMARK                            x       y       z     vdW  Elec       q    Type
REMARK                         _______ _______ _______ _____ _____    ______ ____


Number of Rotatable Bonds in Small Molecule =	8 torsions
Number of atoms in ligand:  34

Number of non-hydrogen atoms in ligand:  29

Number of vibrational degrees of freedom of ligand:  96


Number of torsional degrees of freedom = 8
Estimated loss of torsional free energy upon binding = +2.3864 kcal/mol


DPF> about 0.698 0.076 -0.072            # small molecule center

Small molecule center of rotation =	(+0.698, +0.076, -0.072)

DPF> tran0 random                         # initial coordinates/A or random

Initial translation =			(45.351, 11.726, 120.293) Angstroms
DPF> quaternion0 random                   # initial orientation

Each run will begin with a new, random initial orientation.
Initial quaternion,  (x,y,z,w) =	( 0.474, -0.761, 0.337, 0.286 ),
DPF> dihe0 random                         # initial dihedrals (relative) or random

DPF> torsdof 8                            # torsional degrees of freedom

Number of torsional degrees of freedom = 8
Free energy coefficient for torsional degrees of freedom = 0.2983 as specified in parameter library "ad4_arom_params.dat".

Estimated loss of torsional free energy upon binding = +2.3864 kcal/mol

DPF> rmstol 2.0                           # cluster_tolerance/A

Maximum RMS tolerance for conformational cluster analysis = 2.00 Angstroms
DPF> extnrg 1000.0                        # external grid energy

External grid energy (beyond grid map walls) = 1000.00

DPF> e0max 0.0 10000                      # max initial energy; max number of retries

Using user-specified maximum number of retries for simanneal initialization, 10000 retries.
If the simanneal initial energy is greater than e0max, 0.000,
then a new, random initial state will be created.

DPF> ga_pop_size 150                      # number of individuals in population

A population of 150 individuals will be used
DPF> ga_num_evals 2500000                 # maximum number of energy evaluations

There will be at most 2500000 function evaluations used.
DPF> ga_num_generations 27000             # maximum number of generations

The GA will run for at most 27000 generations.
DPF> ga_elitism 1                         # number of top individuals to survive to next generation

The 1 best will be preserved each GA generation.
DPF> ga_mutation_rate 0.02                # rate of gene mutation

The mutation rate is 0.020000.
DPF> ga_crossover_rate 0.8                # rate of crossover

The crossover rate is 0.800000.
DPF> ga_window_size 10                    # 

The GA's selection window is 10 generations.
DPF> ga_cauchy_alpha 0.0                  # Alpha parameter of Cauchy distribution

The alpha parameter (for the Cauchy distribution) is being set to 0.000000.
DPF> ga_cauchy_beta 1.0                   # Beta parameter Cauchy distribution

The beta parameter (for the Cauchy distribution) is being set to 1.000000.
DPF> set_ga                               # set the above parameters for GA or LGA

DPF> sw_max_its 300                       # iterations of Solis & Wets local search

Solis & Wets algorithms will perform at most 300 iterations.
DPF> sw_max_succ 4                        # consecutive successes before changing rho

Solis & Wets algorithms expand rho every 4 in a row successes.
DPF> sw_max_fail 4                        # consecutive failures before changing rho

Solis & Wets algorithms contract rho every 4 in a row failures.
DPF> sw_rho 1.0                           # size of local search space to sample

rho is set to 1.000000.
DPF> sw_lb_rho 0.01                       # lower bound on rho

rho will never get smaller than 0.010000.
DPF> ls_search_freq 0.06                  # probability of performing local search on individual

Local search will be performed with frequency 0.060000.
DPF> set_psw1                             # set the above pseudo-Solis & Wets parameters

Creating a new Local Search object using the pseudo-Solis-Wets algorithm (pSW1) with the current settings.

DPF> unbound_model bound                  # state of unbound ligand

DPF> ga_run 100                           # do this many hybrid GA-LS runs

centering ligand on specified point: 0.698 0.076 -0.072
Furthest true ligand atom from "about" center is 9.986 Angstroms (maxrad).
Number of requested GA dockings = 100 runs
Unbound model to be used is 'same as bound' [AutoDock 4.2 default].

	BEGINNING GENETIC ALGORITHM DOCKING 1 of 100
Run: 1 Seed: 1628753970 94800143 [ Run 1 of 100 GA/GALS ]
Beginning LAMARCKIAN GENETIC ALGORITHM (LGA), with a maximum of 2500000 energy evaluations.

Final-Value: -15.362


	FINAL GENETIC ALGORITHM DOCKED STATE
	_______________________________________________


Detailed state:  trans 36.594 17.910 121.613 quatxyzw 0.084457 -0.827370 -0.284860 0.476634 center 0.698 0.076 -0.072 ntor 8 -3.2731 155.4990 -179.9426 -42.9530 -66.3698 87.4266 23.4301 -93.4739
State:	 36.594  17.910 121.613   0.096 -0.941 -0.324 123.068     -3.27  155.50 -179.94  -42.95  -66.37   87.43   23.43  -93.47

DOCKED: MODEL        1
DOCKED: USER    Run = 1
DOCKED: USER    DPF = ligand_dock.biased.dpf
DOCKED: USER  
DOCKED: USER    Estimated Free Energy of Binding    =  -11.07 kcal/mol  [=(1)+(2)+(3)-(4)]
DOCKED: USER    Estimated Inhibition Constant, Ki   =    7.66 nM (nanomolar)  [Temperature = 298.15 K]
DOCKED: USER    
DOCKED: USER    (1) Final Intermolecular Energy     =  -13.46 kcal/mol
DOCKED: USER        vdW + Hbond + desolv Energy     =  -13.46 kcal/mol
DOCKED: USER        Electrostatic Energy            =   +0.00 kcal/mol
DOCKED: USER    (2) Final Total Internal Energy     =   -1.90 kcal/mol
DOCKED: USER    (3) Torsional Free Energy           =   +2.39 kcal/mol
DOCKED: USER    (4) Unbound System's Energy  [=(2)] =   -1.90 kcal/mol
DOCKED: USER    
DOCKED: USER    
DOCKED: USER    NEWDPF move ligand.dum.pdbqt
DOCKED: USER    NEWDPF about 0.698000 0.076000 -0.072000
DOCKED: USER    NEWDPF tran0 36.593765 17.909865 121.613441
DOCKED: USER    NEWDPF quaternion0 0.084457 -0.827370 -0.284860 0.476634
DOCKED: USER    NEWDPF axisangle0 0.096072 -0.941154 -0.324036 123.068417
DOCKED: USER    NEWDPF quat0 0.096072 -0.941154 -0.324036 123.068417
DOCKED: USER    NEWDPF dihe0 -3.27 155.50 -179.94 -42.95 -66.37 87.43 23.43 -93.47 
DOCKED: USER  keepresnum = 1 
DOCKED: USER  
DOCKED: REMARK  Name = 
DOCKED: REMARK  9 active torsions:
DOCKED: REMARK  status: ('A' for Active; 'I' for Inactive)
DOCKED: REMARK    1  A    between atoms: C_2  and  C_3
DOCKED: REMARK    2  A    between atoms: C_4  and  C_5
DOCKED: REMARK    3  A    between atoms: C_8  and  C_9
DOCKED: REMARK    4  A    between atoms: C_9  and  N_10
DOCKED: REMARK    5  A    between atoms: N_10  and  C_11
DOCKED: REMARK    6  A    between atoms: C_11  and  C_12
DOCKED: REMARK    7  A    between atoms: C_12  and  C_13
DOCKED: REMARK    8  A    between atoms: C_14  and  C_22
DOCKED: REMARK    9  A    between atoms: N_25  and  O_26
DOCKED: REMARK                            x       y       z     vdW  Elec       q    Type
DOCKED: REMARK                         _______ _______ _______ _____ _____    ______ ____
DOCKED: USER                              x       y       z     vdW  Elec       q    Type
DOCKED: USER                           _______ _______ _______ _____ _____    ______ ____
DOCKED: ROOT
DOCKED: ATOM      1  N   UNL     1      36.713  18.127 122.755 -0.15 -0.00    +0.000 N 
DOCKED: ATOM      2  H   UNL     1      36.026  17.412 122.992 +0.00 -0.00    +0.000 HD
DOCKED: ATOM      3  H   UNL     1      36.264  19.017 122.541 -0.00 -0.00    +0.000 HD
DOCKED: ENDROOT
DOCKED: BRANCH   1   4
DOCKED: ATOM      4  C   UNL     1      37.451  17.697 121.560 -0.13 -0.00    +0.000 C 
DOCKED: BRANCH   4   8
DOCKED: ATOM      5  C   UNL     1      37.210  13.392 121.207 -0.39 -0.00    +0.000 A 
DOCKED: ATOM      6  C   UNL     1      37.725  14.171 120.152 -0.31 -0.00    +0.000 A 
DOCKED: ATOM      7  C   UNL     1      37.807  15.561 120.271 -0.19 -0.00    +0.000 A 
DOCKED: ATOM      8  C   UNL     1      37.397  16.199 121.451 -0.18 -0.00    +0.000 A 
DOCKED: ATOM      9  C   UNL     1      36.887  15.428 122.506 -0.31 -0.00    +0.000 A 
DOCKED: ATOM     10  C   UNL     1      36.806  14.037 122.388 -0.38 -0.00    +0.000 A 
DOCKED: ATOM     11  CM  UNL     1      37.305  14.798 121.329 +0.00 -0.00    +0.000 AC
DOCKED: BRANCH   5  12
DOCKED: ATOM     12  C   UNL     1      37.054  11.120 122.218 -0.56 -0.00    +0.000 C 
DOCKED: ATOM     13  C   UNL     1      37.112  11.913 121.138 -0.54 -0.00    +0.000 C 
DOCKED: BRANCH  11  14
DOCKED: ATOM     14  O   UNL     1      36.770   9.114 121.019 -2.63 -0.00    +0.000 OA
DOCKED: ATOM     15  C   UNL     1      36.960   9.647 122.144 -0.63 -0.00    +0.000 C 
DOCKED: ATOM     16  N   UNL     1      37.050   8.812 123.307 -0.65 -0.00    +0.000 N 
DOCKED: ATOM     17  H   UNL     1      37.100   9.220 124.202 -0.58 -0.00    +0.000 HD
DOCKED: BRANCH  15  17
DOCKED: ATOM     18  O   UNL     1      37.064   7.463 123.177 -2.21 -0.00    +0.000 OA
DOCKED: ATOM     19  H   UNL     1      36.955   7.227 122.243 -0.08 -0.00    +0.000 HD
DOCKED: ENDBRANCH  15  17
DOCKED: ENDBRANCH  11  14
DOCKED: ENDBRANCH   5  12
DOCKED: ENDBRANCH   4   8
DOCKED: ENDBRANCH   1   4
DOCKED: BRANCH   1  19
DOCKED: ATOM     20  C   UNL     1      37.599  18.334 123.911 -0.18 -0.00    +0.000 C 
DOCKED: BRANCH  19  20
DOCKED: ATOM     21  C   UNL     1      38.475  17.105 124.207 -0.12 -0.00    +0.000 C 
DOCKED: BRANCH  20  21
DOCKED: ATOM     22  C   UNL     1      39.928  17.450 124.050 -0.21 -0.00    +0.000 A 
DOCKED: ATOM     23  C   UNL     1      40.604  18.547 124.588 -0.24 -0.00    +0.000 A 
DOCKED: ATOM     24  N   UNL     1      41.893  18.564 124.175 -0.19 -0.00    +0.000 N 
DOCKED: ATOM     25  C   UNL     1      42.033  17.501 123.364 -0.30 -0.00    +0.000 A 
DOCKED: ATOM     26  C   UNL     1      40.856  16.802 123.258 -0.29 -0.00    +0.000 A 
DOCKED: ATOM     27  C   UNL     1      40.745  15.670 122.449 -0.38 -0.00    +0.000 A 
DOCKED: ATOM     28  C   UNL     1      41.888  15.253 121.742 -0.31 -0.00    +0.000 A 
DOCKED: ATOM     29  C   UNL     1      43.100  15.969 121.855 -0.31 -0.00    +0.000 A 
DOCKED: ATOM     30  C   UNL     1      43.180  17.110 122.675 -0.33 -0.00    +0.000 A 
DOCKED: ATOM     31  C   UNL     1      40.021  19.563 125.517 -0.16 -0.00    +0.000 C 
DOCKED: ATOM     32  H   UNL     1      42.586  19.219 124.420 -0.51 -0.00    +0.000 HD
DOCKED: ATOM     33  CM  UNL     1      41.089  17.798 123.896 +0.00 -0.00    +0.000 AC
DOCKED: ATOM     34  CM  UNL     1      41.967  16.385 122.557 +0.00 -0.00    +0.000 AC
DOCKED: ENDBRANCH  20  21
DOCKED: ENDBRANCH  19  20
DOCKED: ENDBRANCH   1  19
DOCKED: TORSDOF 8DOCKED: TER
DOCKED: ENDMDL
________________________________________________________________________________


	BEGINNING GENETIC ALGORITHM DOCKING 2 of 100
Run: 2 Seed: 1782184387 1002868477 [ Run 2 of 100 GA/GALS ]
Beginning LAMARCKIAN GENETIC ALGORITHM (LGA), with a maximum of 2500000 energy evaluations.

Final-Value: -14.423


	FINAL GENETIC ALGORITHM DOCKED STATE
	_______________________________________________


Detailed state:  trans 38.668 14.307 121.935 quatxyzw -0.053448 -0.723652 -0.537768 -0.429275 center 0.698 0.076 -0.072 ntor 8 6.3524 18.2471 -138.3120 -36.7014 -118.6652 1.3032 153.6985 -29.5180
State:	 38.668  14.307 121.935  -0.059 -0.801 -0.595 -129.157      6.35   18.25 -138.31  -36.70 -118.67    1.30  153.70  -29.52

DOCKED: MODEL        2
DOCKED: USER    Run = 2
DOCKED: USER    DPF = ligand_dock.biased.dpf
DOCKED: USER  
DOCKED: USER    Estimated Free Energy of Binding    =  -10.25 kcal/mol  [=(1)+(2)+(3)-(4)]
DOCKED: USER    Estimated Inhibition Constant, Ki   =   30.76 nM (nanomolar)  [Temperature = 298.15 K]
DOCKED: USER    
DOCKED: USER    (1) Final Intermolecular Energy     =  -12.63 kcal/mol
DOCKED: USER        vdW + Hbond + desolv Energy     =  -12.63 kcal/mol
DOCKED: USER        Electrostatic Energy            =   +0.00 kcal/mol
DOCKED: USER    (2) Final Total Internal Energy     =   -1.79 kcal/mol
DOCKED: USER    (3) Torsional Free Energy           =   +2.39 kcal/mol
DOCKED: USER    (4) Unbound System's Energy  [=(2)] =   -1.79 kcal/mol
DOCKED: USER    
DOCKED: USER    
DOCKED: USER    NEWDPF move ligand.dum.pdbqt
DOCKED: USER    NEWDPF about 0.698000 0.076000 -0.072000
DOCKED: USER    NEWDPF tran0 38.667674 14.307068 121.935205
DOCKED: USER    NEWDPF quaternion0 -0.053448 -0.723652 -0.537768 -0.429275
DOCKED: USER    NEWDPF axisangle0 -0.059178 -0.801232 -0.595420 -129.156921
DOCKED: USER    NEWDPF quat0 -0.059178 -0.801232 -0.595420 -129.156921
DOCKED: USER    NEWDPF dihe0 6.35 18.25 -138.31 -36.70 -118.67 1.30 153.70 -29.52 
DOCKED: USER  keepresnum = 1 
DOCKED: USER  
DOCKED: REMARK  Name = 
DOCKED: REMARK  9 active torsions:
DOCKED: REMARK  status: ('A' for Active; 'I' for Inactive)
DOCKED: REMARK    1  A    between atoms: C_2  and  C_3
DOCKED: REMARK    2  A    between atoms: C_4  and  C_5
DOCKED: REMARK    3  A    between atoms: C_8  and  C_9
DOCKED: REMARK    4  A    between atoms: C_9  and  N_10
DOCKED: REMARK    5  A    between atoms: N_10  and  C_11
DOCKED: REMARK    6  A    between atoms: C_11  and  C_12
DOCKED: REMARK    7  A    between atoms: C_12  and  C_13
DOCKED: REMARK    8  A    between atoms: C_14  and  C_22
DOCKED: REMARK    9  A    between atoms: N_25  and  O_26
DOCKED: REMARK                            x       y       z     vdW  Elec       q    Type
DOCKED: REMARK                         _______ _______ _______ _____ _____    ______ ____
DOCKED: USER                              x       y       z     vdW  Elec       q    Type
DOCKED: USER                           _______ _______ _______ _____ _____    ______ ____
DOCKED: ROOT
DOCKED: ATOM      1  N   UNL     1      39.727  14.738 121.697 -0.35 -0.00    +0.000 N 
DOCKED: ATOM      2  H   UNL     1      40.127  13.801 121.643 -0.03 +0.00    +0.000 HD
DOCKED: ATOM      3  H   UNL     1      39.706  15.077 122.658 -0.02 -0.00    +0.000 HD
DOCKED: ENDROOT
DOCKED: BRANCH   1   4
DOCKED: ATOM      4  C   UNL     1      38.343  14.691 121.207 -0.35 -0.00    +0.000 C 
DOCKED: BRANCH   4   8
DOCKED: ATOM      5  C   UNL     1      36.526  11.038 122.644 -0.60 -0.00    +0.000 A 
DOCKED: ATOM      6  C   UNL     1      36.566  12.188 123.458 -0.62 -0.00    +0.000 A 
DOCKED: ATOM      7  C   UNL     1      37.149  13.369 122.988 -0.50 -0.00    +0.000 A 
DOCKED: ATOM      8  C   UNL     1      37.683  13.431 121.692 -0.42 -0.00    +0.000 A 
DOCKED: ATOM      9  C   UNL     1      37.643  12.290 120.878 -0.43 -0.00    +0.000 A 
DOCKED: ATOM     10  C   UNL     1      37.059  11.109 121.346 -0.41 -0.00    +0.000 A 
DOCKED: ATOM     11  CM  UNL     1      37.104  12.237 122.168 +0.00 -0.00    +0.000 AC
DOCKED: BRANCH   5  12
DOCKED: ATOM     12  C   UNL     1      36.164   8.575 122.520 -0.75 -0.00    +0.000 C 
DOCKED: ATOM     13  C   UNL     1      35.909   9.764 123.088 -0.66 -0.00    +0.000 C 
DOCKED: BRANCH  11  14
DOCKED: ATOM     14  O   UNL     1      36.227   6.253 122.899 -1.12 -0.00    +0.000 OA
DOCKED: ATOM     15  C   UNL     1      35.545   7.309 122.964 -0.76 -0.00    +0.000 C 
DOCKED: ATOM     16  N   UNL     1      34.193   7.240 123.440 -0.70 -0.00    +0.000 N 
DOCKED: ATOM     17  H   UNL     1      33.619   8.039 123.405 -0.11 -0.00    +0.000 HD
DOCKED: BRANCH  15  17
DOCKED: ATOM     18  O   UNL     1      33.705   6.077 123.935 -0.80 -0.00    +0.000 OA
DOCKED: ATOM     19  H   UNL     1      34.419   5.424 123.991 -0.60 -0.00    +0.000 HD
DOCKED: ENDBRANCH  15  17
DOCKED: ENDBRANCH  11  14
DOCKED: ENDBRANCH   5  12
DOCKED: ENDBRANCH   4   8
DOCKED: ENDBRANCH   1   4
DOCKED: BRANCH   1  19
DOCKED: ATOM     20  C   UNL     1      40.564  15.658 120.911 -0.24 -0.00    +0.000 C 
DOCKED: BRANCH  19  20
DOCKED: ATOM     21  C   UNL     1      40.304  17.133 121.260 -0.14 -0.00    +0.000 C 
DOCKED: BRANCH  20  21
DOCKED: ATOM     22  C   UNL     1      40.716  17.414 122.677 -0.20 -0.00    +0.000 A 
DOCKED: ATOM     23  C   UNL     1      41.963  17.183 123.262 -0.33 -0.00    +0.000 A 
DOCKED: ATOM     24  N   UNL     1      41.940  17.499 124.577 -0.23 -0.00    +0.000 N 
DOCKED: ATOM     25  C   UNL     1      40.685  17.906 124.835 -0.29 -0.00    +0.000 A 
DOCKED: ATOM     26  C   UNL     1      39.908  17.861 123.705 -0.21 -0.00    +0.000 A 
DOCKED: ATOM     27  C   UNL     1      38.558  18.212 123.727 -0.16 -0.00    +0.000 A 
DOCKED: ATOM     28  C   UNL     1      38.007  18.627 124.954 -0.16 -0.00    +0.000 A 
DOCKED: ATOM     29  C   UNL     1      38.808  18.678 126.117 -0.14 -0.00    +0.000 A 
DOCKED: ATOM     30  C   UNL     1      40.166  18.313 126.064 -0.29 -0.00    +0.000 A 
DOCKED: ATOM     31  C   UNL     1      43.182  16.686 122.552 -0.40 -0.00    +0.000 C 
DOCKED: ATOM     32  H   UNL     1      42.689  17.443 125.214 -0.59 -0.00    +0.000 HD
DOCKED: ATOM     33  CM  UNL     1      41.071  17.570 123.835 +0.00 -0.00    +0.000 AC
DOCKED: ATOM     34  CM  UNL     1      39.356  18.266 124.901 +0.00 -0.00    +0.000 AC
DOCKED: ENDBRANCH  20  21
DOCKED: ENDBRANCH  19  20
DOCKED: ENDBRANCH   1  19
DOCKED: TORSDOF 8DOCKED: TER
DOCKED: ENDMDL
________________________________________________________________________________


	BEGINNING GENETIC ALGORITHM DOCKING 3 of 100
Run: 3 Seed: 753545653 883278933 [ Run 3 of 100 GA/GALS ]
Beginning LAMARCKIAN GENETIC ALGORITHM (LGA), with a maximum of 2500000 energy evaluations.

Final-Value: -16.047


	FINAL GENETIC ALGORITHM DOCKED STATE
	_______________________________________________


Detailed state:  trans 37.056 17.041 124.269 quatxyzw -0.451147 0.525636 0.546478 0.470676 center 0.698 0.076 -0.072 ntor 8 -5.6108 60.3383 41.9601 15.5190 138.0860 41.3430 -46.8375 -12.0163
State:	 37.056  17.041 124.269  -0.511  0.596  0.619 123.844     -5.61   60.34   41.96   15.52  138.09   41.34  -46.84  -12.02

DOCKED: MODEL        3
DOCKED: USER    Run = 3
DOCKED: USER    DPF = ligand_dock.biased.dpf
DOCKED: USER  
DOCKED: USER    Estimated Free Energy of Binding    =  -11.67 kcal/mol  [=(1)+(2)+(3)-(4)]
DOCKED: USER    Estimated Inhibition Constant, Ki   =    2.78 nM (nanomolar)  [Temperature = 298.15 K]
DOCKED: USER    
DOCKED: USER    (1) Final Intermolecular Energy     =  -14.06 kcal/mol
DOCKED: USER        vdW + Hbond + desolv Energy     =  -14.06 kcal/mol
DOCKED: USER        Electrostatic Energy            =   +0.00 kcal/mol
DOCKED: USER    (2) Final Total Internal Energy     =   -1.99 kcal/mol
DOCKED: USER    (3) Torsional Free Energy           =   +2.39 kcal/mol
DOCKED: USER    (4) Unbound System's Energy  [=(2)] =   -1.99 kcal/mol
DOCKED: USER    
DOCKED: USER    
DOCKED: USER    NEWDPF move ligand.dum.pdbqt
DOCKED: USER    NEWDPF about 0.698000 0.076000 -0.072000
DOCKED: USER    NEWDPF tran0 37.056289 17.041456 124.268621
DOCKED: USER    NEWDPF quaternion0 -0.451147 0.525636 0.546478 0.470676
DOCKED: USER    NEWDPF axisangle0 -0.511327 0.595752 0.619374 123.843690
DOCKED: USER    NEWDPF quat0 -0.511327 0.595752 0.619374 123.843690
DOCKED: USER    NEWDPF dihe0 -5.61 60.34 41.96 15.52 138.09 41.34 -46.84 -12.02 
DOCKED: USER  keepresnum = 1 
DOCKED: USER  
DOCKED: REMARK  Name = 
DOCKED: REMARK  9 active torsions:
DOCKED: REMARK  status: ('A' for Active; 'I' for Inactive)
DOCKED: REMARK    1  A    between atoms: C_2  and  C_3
DOCKED: REMARK    2  A    between atoms: C_4  and  C_5
DOCKED: REMARK    3  A    between atoms: C_8  and  C_9
DOCKED: REMARK    4  A    between atoms: C_9  and  N_10
DOCKED: REMARK    5  A    between atoms: N_10  and  C_11
DOCKED: REMARK    6  A    between atoms: C_11  and  C_12
DOCKED: REMARK    7  A    between atoms: C_12  and  C_13
DOCKED: REMARK    8  A    between atoms: C_14  and  C_22
DOCKED: REMARK    9  A    between atoms: N_25  and  O_26
DOCKED: REMARK                            x       y       z     vdW  Elec       q    Type
DOCKED: REMARK                         _______ _______ _______ _____ _____    ______ ____
DOCKED: USER                              x       y       z     vdW  Elec       q    Type
DOCKED: USER                           _______ _______ _______ _____ _____    ______ ____
DOCKED: ROOT
DOCKED: ATOM      1  N   UNL     1      37.454  17.983 124.833 -0.18 -0.00    +0.000 N 
DOCKED: ATOM      2  H   UNL     1      38.417  17.763 124.579 -0.02 -0.00    +0.000 HD
DOCKED: ATOM      3  H   UNL     1      37.170  17.487 125.677 +0.01 -0.00    +0.000 HD
DOCKED: ENDROOT
DOCKED: BRANCH   1   4
DOCKED: ATOM      4  C   UNL     1      36.569  17.558 123.741 -0.26 -0.00    +0.000 C 
DOCKED: BRANCH   4   8
DOCKED: ATOM      5  C   UNL     1      37.146  13.322 123.083 -0.51 -0.00    +0.000 A 
DOCKED: ATOM      6  C   UNL     1      35.865  13.836 123.369 -0.44 -0.00    +0.000 A 
DOCKED: ATOM      7  C   UNL     1      35.681  15.206 123.575 -0.44 -0.00    +0.000 A 
DOCKED: ATOM      8  C   UNL     1      36.765  16.091 123.480 -0.31 -0.00    +0.000 A 
DOCKED: ATOM      9  C   UNL     1      38.042  15.585 123.193 -0.27 -0.00    +0.000 A 
DOCKED: ATOM     10  C   UNL     1      38.226  14.215 122.984 -0.41 -0.00    +0.000 A 
DOCKED: ATOM     11  CM  UNL     1      36.954  14.709 123.281 +0.00 -0.00    +0.000 AC
DOCKED: BRANCH   5  12
DOCKED: ATOM     12  C   UNL     1      36.435  11.004 122.508 -0.67 -0.00    +0.000 C 
DOCKED: ATOM     13  C   UNL     1      37.395  11.879 122.843 -0.48 -0.00    +0.000 C 
DOCKED: BRANCH  11  14
DOCKED: ATOM     14  O   UNL     1      36.716   9.150 121.085 -2.62 -0.00    +0.000 OA
DOCKED: ATOM     15  C   UNL     1      36.687   9.567 122.273 -0.71 -0.00    +0.000 C 
DOCKED: ATOM     16  N   UNL     1      36.872   8.633 123.346 -0.66 -0.00    +0.000 N 
DOCKED: ATOM     17  H   UNL     1      36.755   8.928 124.278 -0.44 -0.00    +0.000 HD
DOCKED: BRANCH  15  17
DOCKED: ATOM     18  O   UNL     1      37.205   7.348 123.080 -2.08 -0.00    +0.000 OA
DOCKED: ATOM     19  H   UNL     1      37.193   7.202 122.121 -0.12 -0.00    +0.000 HD
DOCKED: ENDBRANCH  15  17
DOCKED: ENDBRANCH  11  14
DOCKED: ENDBRANCH   5  12
DOCKED: ENDBRANCH   4   8
DOCKED: ENDBRANCH   1   4
DOCKED: BRANCH   1  19
DOCKED: ATOM     20  C   UNL     1      37.353  19.426 125.102 -0.15 -0.00    +0.000 C 
DOCKED: BRANCH  19  20
DOCKED: ATOM     21  C   UNL     1      38.713  20.138 125.006 -0.09 -0.00    +0.000 C 
DOCKED: BRANCH  20  21
DOCKED: ATOM     22  C   UNL     1      39.798  19.266 125.570 -0.17 -0.00    +0.000 A 
DOCKED: ATOM     23  C   UNL     1      40.790  18.579 124.866 -0.26 -0.00    +0.000 A 
DOCKED: ATOM     24  N   UNL     1      41.549  17.841 125.708 -0.30 -0.00    +0.000 N 
DOCKED: ATOM     25  C   UNL     1      41.034  18.035 126.934 -0.36 -0.00    +0.000 A 
DOCKED: ATOM     26  C   UNL     1      39.962  18.891 126.890 -0.23 -0.00    +0.000 A 
DOCKED: ATOM     27  C   UNL     1      39.243  19.227 128.038 -0.16 -0.00    +0.000 A 
DOCKED: ATOM     28  C   UNL     1      39.656  18.664 129.259 -0.20 -0.00    +0.000 A 
DOCKED: ATOM     29  C   UNL     1      40.762  17.787 129.305 -0.38 -0.00    +0.000 A 
DOCKED: ATOM     30  C   UNL     1      41.465  17.463 128.130 -0.45 -0.00    +0.000 A 
DOCKED: ATOM     31  C   UNL     1      41.024  18.654 123.391 -0.19 -0.00    +0.000 C 
DOCKED: ATOM     32  H   UNL     1      42.322  17.277 125.470 -0.53 -0.00    +0.000 HD
DOCKED: ATOM     33  CM  UNL     1      40.656  18.501 125.984 +0.00 -0.00    +0.000 AC
DOCKED: ATOM     34  CM  UNL     1      40.354  18.344 128.092 +0.00 -0.00    +0.000 AC
DOCKED: ENDBRANCH  20  21
DOCKED: ENDBRANCH  19  20
DOCKED: ENDBRANCH   1  19
DOCKED: TORSDOF 8DOCKED: TER
DOCKED: ENDMDL
________________________________________________________________________________


	BEGINNING GENETIC ALGORITHM DOCKING 4 of 100
Run: 4 Seed: 418862584 296341856 [ Run 4 of 100 GA/GALS ]
Beginning LAMARCKIAN GENETIC ALGORITHM (LGA), with a maximum of 2500000 energy evaluations.

Final-Value: -15.130


	FINAL GENETIC ALGORITHM DOCKED STATE
	_______________________________________________


Detailed state:  trans 35.861 17.150 124.268 quatxyzw 0.155310 -0.798681 -0.468350 -0.344436 center 0.698 0.076 -0.072 ntor 8 -6.5856 -179.9480 150.0857 99.7365 -100.7952 -177.2523 -94.2175 -67.3405
State:	 35.861  17.150 124.268   0.165 -0.851 -0.499 -139.705     -6.59 -179.95  150.09   99.74 -100.80 -177.25  -94.22  -67.34

DOCKED: MODEL        4
DOCKED: USER    Run = 4
DOCKED: USER    DPF = ligand_dock.biased.dpf
DOCKED: USER  
DOCKED: USER    Estimated Free Energy of Binding    =  -10.91 kcal/mol  [=(1)+(2)+(3)-(4)]
DOCKED: USER    Estimated Inhibition Constant, Ki   =   10.05 nM (nanomolar)  [Temperature = 298.15 K]
DOCKED: USER    
DOCKED: USER    (1) Final Intermolecular Energy     =  -13.30 kcal/mol
DOCKED: USER        vdW + Hbond + desolv Energy     =  -13.30 kcal/mol
DOCKED: USER        Electrostatic Energy            =   +0.00 kcal/mol
DOCKED: USER    (2) Final Total Internal Energy     =   -1.83 kcal/mol
DOCKED: USER    (3) Torsional Free Energy           =   +2.39 kcal/mol
DOCKED: USER    (4) Unbound System's Energy  [=(2)] =   -1.83 kcal/mol
DOCKED: USER    
DOCKED: USER    
DOCKED: USER    NEWDPF move ligand.dum.pdbqt
DOCKED: USER    NEWDPF about 0.698000 0.076000 -0.072000
DOCKED: USER    NEWDPF tran0 35.860557 17.149646 124.267554
DOCKED: USER    NEWDPF quaternion0 0.155310 -0.798681 -0.468350 -0.344436
DOCKED: USER    NEWDPF axisangle0 0.165433 -0.850738 -0.498876 -139.705274
DOCKED: USER    NEWDPF quat0 0.165433 -0.850738 -0.498876 -139.705274
DOCKED: USER    NEWDPF dihe0 -6.59 -179.95 150.09 99.74 -100.80 -177.25 -94.22 -67.34 
DOCKED: USER  keepresnum = 1 
DOCKED: USER  
DOCKED: REMARK  Name = 
DOCKED: REMARK  9 active torsions:
DOCKED: REMARK  status: ('A' for Active; 'I' for Inactive)
DOCKED: REMARK    1  A    between atoms: C_2  and  C_3
DOCKED: REMARK    2  A    between atoms: C_4  and  C_5
DOCKED: REMARK    3  A    between atoms: C_8  and  C_9
DOCKED: REMARK    4  A    between atoms: C_9  and  N_10
DOCKED: REMARK    5  A    between atoms: N_10  and  C_11
DOCKED: REMARK    6  A    between atoms: C_11  and  C_12
DOCKED: REMARK    7  A    between atoms: C_12  and  C_13
DOCKED: REMARK    8  A    between atoms: C_14  and  C_22
DOCKED: REMARK    9  A    between atoms: N_25  and  O_26
DOCKED: REMARK                            x       y       z     vdW  Elec       q    Type
DOCKED: REMARK                         _______ _______ _______ _____ _____    ______ ____
DOCKED: USER                              x       y       z     vdW  Elec       q    Type
DOCKED: USER                           _______ _______ _______ _____ _____    ______ ____
DOCKED: ROOT
DOCKED: ATOM      1  N   UNL     1      36.770  17.863 124.434 -0.22 -0.00    +0.000 N 
DOCKED: ATOM      2  H   UNL     1      37.394  17.074 124.603 -0.02 -0.00    +0.000 HD
DOCKED: ATOM      3  H   UNL     1      36.283  18.140 125.286 -0.01 -0.00    +0.000 HD
DOCKED: ENDROOT
DOCKED: BRANCH   1   4
DOCKED: ATOM      4  C   UNL     1      35.759  17.463 123.446 -0.31 -0.00    +0.000 C 
DOCKED: BRANCH   4   8
DOCKED: ATOM      5  C   UNL     1      36.294  13.327 122.299 -0.18 -0.00    +0.000 A 
DOCKED: ATOM      6  C   UNL     1      36.865  14.363 121.534 -0.18 -0.00    +0.000 A 
DOCKED: ATOM      7  C   UNL     1      36.695  15.699 121.911 -0.23 -0.00    +0.000 A 
DOCKED: ATOM      8  C   UNL     1      35.972  16.025 123.067 -0.34 -0.00    +0.000 A 
DOCKED: ATOM      9  C   UNL     1      35.404  14.996 123.834 -0.49 -0.00    +0.000 A 
DOCKED: ATOM     10  C   UNL     1      35.575  13.661 123.459 -0.42 -0.00    +0.000 A 
DOCKED: ATOM     11  CM  UNL     1      36.134  14.678 122.684 +0.00 -0.00    +0.000 AC
DOCKED: BRANCH   5  12
DOCKED: ATOM     12  C   UNL     1      36.896  10.963 122.813 -0.64 -0.00    +0.000 C 
DOCKED: ATOM     13  C   UNL     1      36.454  11.893 121.952 -0.57 -0.00    +0.000 C 
DOCKED: BRANCH  11  14
DOCKED: ATOM     14  O   UNL     1      37.066   9.217 121.244 -2.70 -0.00    +0.000 OA
DOCKED: ATOM     15  C   UNL     1      37.056   9.537 122.461 -0.61 -0.00    +0.000 C 
DOCKED: ATOM     16  N   UNL     1      37.172   8.509 123.456 -0.66 -0.00    +0.000 N 
DOCKED: ATOM     17  H   UNL     1      37.068   8.734 124.408 -0.51 -0.00    +0.000 HD
DOCKED: BRANCH  15  17
DOCKED: ATOM     18  O   UNL     1      37.424   7.231 123.086 -1.81 -0.00    +0.000 OA
DOCKED: ATOM     19  H   UNL     1      37.394   7.161 122.119 -0.17 -0.00    +0.000 HD
DOCKED: ENDBRANCH  15  17
DOCKED: ENDBRANCH  11  14
DOCKED: ENDBRANCH   5  12
DOCKED: ENDBRANCH   4   8
DOCKED: ENDBRANCH   1   4
DOCKED: BRANCH   1  19
DOCKED: ATOM     20  C   UNL     1      37.570  19.011 123.977 -0.14 -0.00    +0.000 C 
DOCKED: BRANCH  19  20
DOCKED: ATOM     21  C   UNL     1      38.765  19.298 124.903 -0.14 -0.00    +0.000 C 
DOCKED: BRANCH  20  21
DOCKED: ATOM     22  C   UNL     1      39.921  18.407 124.552 -0.22 -0.00    +0.000 A 
DOCKED: ATOM     23  C   UNL     1      41.093  18.205 125.286 -0.30 -0.00    +0.000 A 
DOCKED: ATOM     24  N   UNL     1      41.937  17.383 124.621 -0.13 -0.00    +0.000 N 
DOCKED: ATOM     25  C   UNL     1      41.322  17.081 123.465 -0.32 -0.00    +0.000 A 
DOCKED: ATOM     26  C   UNL     1      40.096  17.691 123.383 -0.21 -0.00    +0.000 A 
DOCKED: ATOM     27  C   UNL     1      39.278  17.549 122.261 -0.12 -0.00    +0.000 A 
DOCKED: ATOM     28  C   UNL     1      39.746  16.746 121.205 -0.13 -0.00    +0.000 A 
DOCKED: ATOM     29  C   UNL     1      41.007  16.114 121.291 -0.23 -0.00    +0.000 A 
DOCKED: ATOM     30  C   UNL     1      41.811  16.281 122.433 -0.36 -0.00    +0.000 A 
DOCKED: ATOM     31  C   UNL     1      41.388  18.780 126.635 -0.28 -0.00    +0.000 C 
DOCKED: ATOM     32  H   UNL     1      42.821  17.070 124.923 -0.62 -0.00    +0.000 HD
DOCKED: ATOM     33  CM  UNL     1      40.908  17.742 124.273 +0.00 -0.00    +0.000 AC
DOCKED: ATOM     34  CM  UNL     1      40.544  16.910 122.340 +0.00 -0.00    +0.000 AC
DOCKED: ENDBRANCH  20  21
DOCKED: ENDBRANCH  19  20
DOCKED: ENDBRANCH   1  19
DOCKED: TORSDOF 8DOCKED: TER
DOCKED: ENDMDL
________________________________________________________________________________


	BEGINNING GENETIC ALGORITHM DOCKING 5 of 100
Run: 5 Seed: 1076243570 379130125 [ Run 5 of 100 GA/GALS ]
Beginning LAMARCKIAN GENETIC ALGORITHM (LGA), with a maximum of 2500000 energy evaluations.

Final-Value: -15.006


	FINAL GENETIC ALGORITHM DOCKED STATE
	_______________________________________________


Detailed state:  trans 36.972 18.522 122.329 quatxyzw 0.446567 0.833228 -0.309304 -0.103148 center 0.698 0.076 -0.072 ntor 8 9.9449 -31.8939 25.7775 -11.6796 -52.6222 -177.0093 173.2898 175.0720
State:	 36.972  18.522 122.329   0.449  0.838 -0.311 -168.159      9.94  -31.89   25.78  -11.68  -52.62 -177.01  173.29  175.07

DOCKED: MODEL        5
DOCKED: USER    Run = 5
DOCKED: USER    DPF = ligand_dock.biased.dpf
DOCKED: USER  
DOCKED: USER    Estimated Free Energy of Binding    =  -10.85 kcal/mol  [=(1)+(2)+(3)-(4)]
DOCKED: USER    Estimated Inhibition Constant, Ki   =   11.07 nM (nanomolar)  [Temperature = 298.15 K]
DOCKED: USER    
DOCKED: USER    (1) Final Intermolecular Energy     =  -13.24 kcal/mol
DOCKED: USER        vdW + Hbond + desolv Energy     =  -13.24 kcal/mol
DOCKED: USER        Electrostatic Energy            =   +0.00 kcal/mol
DOCKED: USER    (2) Final Total Internal Energy     =   -1.77 kcal/mol
DOCKED: USER    (3) Torsional Free Energy           =   +2.39 kcal/mol
DOCKED: USER    (4) Unbound System's Energy  [=(2)] =   -1.77 kcal/mol
DOCKED: USER    
DOCKED: USER    
DOCKED: USER    NEWDPF move ligand.dum.pdbqt
DOCKED: USER    NEWDPF about 0.698000 0.076000 -0.072000
DOCKED: USER    NEWDPF tran0 36.972040 18.522494 122.329293
DOCKED: USER    NEWDPF quaternion0 0.446567 0.833228 -0.309304 -0.103148
DOCKED: USER    NEWDPF axisangle0 0.448961 0.837697 -0.310963 -168.159008
DOCKED: USER    NEWDPF quat0 0.448961 0.837697 -0.310963 -168.159008
DOCKED: USER    NEWDPF dihe0 9.94 -31.89 25.78 -11.68 -52.62 -177.01 173.29 175.07 
DOCKED: USER  keepresnum = 1 
DOCKED: USER  
DOCKED: REMARK  Name = 
DOCKED: REMARK  9 active torsions:
DOCKED: REMARK  status: ('A' for Active; 'I' for Inactive)
DOCKED: REMARK    1  A    between atoms: C_2  and  C_3
DOCKED: REMARK    2  A    between atoms: C_4  and  C_5
DOCKED: REMARK    3  A    between atoms: C_8  and  C_9
DOCKED: REMARK    4  A    between atoms: C_9  and  N_10
DOCKED: REMARK    5  A    between atoms: N_10  and  C_11
DOCKED: REMARK    6  A    between atoms: C_11  and  C_12
DOCKED: REMARK    7  A    between atoms: C_12  and  C_13
DOCKED: REMARK    8  A    between atoms: C_14  and  C_22
DOCKED: REMARK    9  A    between atoms: N_25  and  O_26
DOCKED: REMARK                            x       y       z     vdW  Elec       q    Type
DOCKED: REMARK                         _______ _______ _______ _____ _____    ______ ____
DOCKED: USER                              x       y       z     vdW  Elec       q    Type
DOCKED: USER                           _______ _______ _______ _____ _____    ______ ____
DOCKED: ROOT
DOCKED: ATOM      1  N   UNL     1      38.035  18.224 122.709 -0.11 -0.00    +0.000 N 
DOCKED: ATOM      2  H   UNL     1      37.924  18.791 123.551 +0.00 -0.00    +0.000 HD
DOCKED: ATOM      3  H   UNL     1      38.374  18.784 121.928 +0.00 -0.00    +0.000 HD
DOCKED: ENDROOT
DOCKED: BRANCH   1   4
DOCKED: ATOM      4  C   UNL     1      36.727  17.672 122.335 -0.19 -0.00    +0.000 C 
DOCKED: BRANCH   4   8
DOCKED: ATOM      5  C   UNL     1      36.747  13.356 122.631 -0.48 -0.00    +0.000 A 
DOCKED: ATOM      6  C   UNL     1      37.016  13.993 121.402 -0.28 -0.00    +0.000 A 
DOCKED: ATOM      7  C   UNL     1      37.014  15.388 121.312 -0.21 -0.00    +0.000 A 
DOCKED: ATOM      8  C   UNL     1      36.766  16.174 122.446 -0.25 -0.00    +0.000 A 
DOCKED: ATOM      9  C   UNL     1      36.501  15.545 123.672 -0.35 -0.00    +0.000 A 
DOCKED: ATOM     10  C   UNL     1      36.504  14.150 123.764 -0.43 -0.00    +0.000 A 
DOCKED: ATOM     11  CM  UNL     1      36.757  14.767 122.538 +0.00 -0.00    +0.000 AC
DOCKED: BRANCH   5  12
DOCKED: ATOM     12  C   UNL     1      37.060  11.029 121.797 -0.53 -0.00    +0.000 C 
DOCKED: ATOM     13  C   UNL     1      36.748  11.880 122.785 -0.66 -0.00    +0.000 C 
DOCKED: BRANCH  11  14
DOCKED: ATOM     14  O   UNL     1      37.066   8.845 120.918 -2.71 -0.00    +0.000 OA
DOCKED: ATOM     15  C   UNL     1      37.058   9.559 121.954 -0.61 -0.00    +0.000 C 
DOCKED: ATOM     16  N   UNL     1      37.021   8.925 123.240 -0.65 -0.00    +0.000 N 
DOCKED: ATOM     17  H   UNL     1      36.917   9.470 124.054 -0.51 -0.00    +0.000 HD
DOCKED: BRANCH  15  17
DOCKED: ATOM     18  O   UNL     1      37.127   7.578 123.338 -2.22 -0.00    +0.000 OA
DOCKED: ATOM     19  H   UNL     1      37.378   7.210 122.476 -0.18 -0.00    +0.000 HD
DOCKED: ENDBRANCH  15  17
DOCKED: ENDBRANCH  11  14
DOCKED: ENDBRANCH   5  12
DOCKED: ENDBRANCH   4   8
DOCKED: ENDBRANCH   1   4
DOCKED: BRANCH   1  19
DOCKED: ATOM     20  C   UNL     1      39.028  17.171 122.975 -0.23 -0.00    +0.000 C 
DOCKED: BRANCH  19  20
DOCKED: ATOM     21  C   UNL     1      39.913  16.877 121.752 -0.18 -0.00    +0.000 C 
DOCKED: BRANCH  20  21
DOCKED: ATOM     22  C   UNL     1      41.361  16.864 122.147 -0.24 -0.00    +0.000 A 
DOCKED: ATOM     23  C   UNL     1      42.067  15.827 122.761 -0.44 -0.00    +0.000 A 
DOCKED: ATOM     24  N   UNL     1      43.339  16.206 123.027 -0.39 -0.00    +0.000 N 
DOCKED: ATOM     25  C   UNL     1      43.438  17.479 122.608 -0.28 -0.00    +0.000 A 
DOCKED: ATOM     26  C   UNL     1      42.253  17.918 122.073 -0.16 -0.00    +0.000 A 
DOCKED: ATOM     27  C   UNL     1      42.101  19.219 121.593 -0.05 -0.00    +0.000 A 
DOCKED: ATOM     28  C   UNL     1      43.212  20.080 121.665 -0.05 -0.00    +0.000 A 
DOCKED: ATOM     29  C   UNL     1      44.434  19.627 122.211 -0.10 -0.00    +0.000 A 
DOCKED: ATOM     30  C   UNL     1      44.555  18.310 122.692 -0.20 -0.00    +0.000 A 
DOCKED: ATOM     31  C   UNL     1      41.528  14.466 123.067 -0.55 -0.00    +0.000 C 
DOCKED: ATOM     32  H   UNL     1      44.046  15.660 123.441 +0.00 +0.00    +0.000 HD
DOCKED: ATOM     33  CM  UNL     1      42.518  16.838 122.540 +0.00 -0.00    +0.000 AC
DOCKED: ATOM     34  CM  UNL     1      43.333  18.772 122.141 +0.00 -0.00    +0.000 AC
DOCKED: ENDBRANCH  20  21
DOCKED: ENDBRANCH  19  20
DOCKED: ENDBRANCH   1  19
DOCKED: TORSDOF 8DOCKED: TER
DOCKED: ENDMDL
________________________________________________________________________________


	BEGINNING GENETIC ALGORITHM DOCKING 6 of 100
Run: 6 Seed: 960376301 28373811 [ Run 6 of 100 GA/GALS ]
Beginning LAMARCKIAN GENETIC ALGORITHM (LGA), with a maximum of 2500000 energy evaluations.

Final-Value: -15.786


	FINAL GENETIC ALGORITHM DOCKED STATE
	_______________________________________________


Detailed state:  trans 38.135 17.069 123.262 quatxyzw 0.610623 -0.380191 -0.548305 -0.426564 center 0.698 0.076 -0.072 ntor 8 2.6702 156.7149 156.2959 149.0052 -114.9012 171.3450 99.4134 21.9264
State:	 38.135  17.069 123.262   0.675 -0.420 -0.606 -129.501      2.67  156.71  156.30  149.01 -114.90  171.34   99.41   21.93

DOCKED: MODEL        6
DOCKED: USER    Run = 6
DOCKED: USER    DPF = ligand_dock.biased.dpf
DOCKED: USER  
DOCKED: USER    Estimated Free Energy of Binding    =  -11.40 kcal/mol  [=(1)+(2)+(3)-(4)]
DOCKED: USER    Estimated Inhibition Constant, Ki   =    4.42 nM (nanomolar)  [Temperature = 298.15 K]
DOCKED: USER    
DOCKED: USER    (1) Final Intermolecular Energy     =  -13.78 kcal/mol
DOCKED: USER        vdW + Hbond + desolv Energy     =  -13.78 kcal/mol
DOCKED: USER        Electrostatic Energy            =   +0.00 kcal/mol
DOCKED: USER    (2) Final Total Internal Energy     =   -2.00 kcal/mol
DOCKED: USER    (3) Torsional Free Energy           =   +2.39 kcal/mol
DOCKED: USER    (4) Unbound System's Energy  [=(2)] =   -2.00 kcal/mol
DOCKED: USER    
DOCKED: USER    
DOCKED: USER    NEWDPF move ligand.dum.pdbqt
DOCKED: USER    NEWDPF about 0.698000 0.076000 -0.072000
DOCKED: USER    NEWDPF tran0 38.135072 17.068576 123.261967
DOCKED: USER    NEWDPF quaternion0 0.610623 -0.380191 -0.548305 -0.426564
DOCKED: USER    NEWDPF axisangle0 0.675126 -0.420352 -0.606225 -129.500647
DOCKED: USER    NEWDPF quat0 0.675126 -0.420352 -0.606225 -129.500647
DOCKED: USER    NEWDPF dihe0 2.67 156.71 156.30 149.01 -114.90 171.34 99.41 21.93 
DOCKED: USER  keepresnum = 1 
DOCKED: USER  
DOCKED: REMARK  Name = 
DOCKED: REMARK  9 active torsions:
DOCKED: REMARK  status: ('A' for Active; 'I' for Inactive)
DOCKED: REMARK    1  A    between atoms: C_2  and  C_3
DOCKED: REMARK    2  A    between atoms: C_4  and  C_5
DOCKED: REMARK    3  A    between atoms: C_8  and  C_9
DOCKED: REMARK    4  A    between atoms: C_9  and  N_10
DOCKED: REMARK    5  A    between atoms: N_10  and  C_11
DOCKED: REMARK    6  A    between atoms: C_11  and  C_12
DOCKED: REMARK    7  A    between atoms: C_12  and  C_13
DOCKED: REMARK    8  A    between atoms: C_14  and  C_22
DOCKED: REMARK    9  A    between atoms: N_25  and  O_26
DOCKED: REMARK                            x       y       z     vdW  Elec       q    Type
DOCKED: REMARK                         _______ _______ _______ _____ _____    ______ ____
DOCKED: USER                              x       y       z     vdW  Elec       q    Type
DOCKED: USER                           _______ _______ _______ _____ _____    ______ ____
DOCKED: ROOT
DOCKED: ATOM      1  N   UNL     1      38.256  17.815 124.152 -0.21 -0.00    +0.000 N 
DOCKED: ATOM      2  H   UNL     1      39.252  17.925 123.961 -0.01 -0.00    +0.000 HD
DOCKED: ATOM      3  H   UNL     1      38.079  17.002 124.741 -0.02 -0.00    +0.000 HD
DOCKED: ENDROOT
DOCKED: BRANCH   1   4
DOCKED: ATOM      4  C   UNL     1      37.550  17.612 122.880 -0.19 -0.00    +0.000 C 
DOCKED: BRANCH   4   8
DOCKED: ATOM      5  C   UNL     1      37.239  13.396 121.963 -0.43 -0.00    +0.000 A 
DOCKED: ATOM      6  C   UNL     1      38.140  14.219 121.258 -0.34 -0.00    +0.000 A 
DOCKED: ATOM      7  C   UNL     1      38.242  15.580 121.561 -0.23 -0.00    +0.000 A 
DOCKED: ATOM      8  C   UNL     1      37.465  16.141 122.585 -0.25 -0.00    +0.000 A 
DOCKED: ATOM      9  C   UNL     1      36.568  15.325 123.291 -0.37 -0.00    +0.000 A 
DOCKED: ATOM     10  C   UNL     1      36.467  13.964 122.990 -0.45 -0.00    +0.000 A 
DOCKED: ATOM     11  CM  UNL     1      37.353  14.771 122.274 +0.00 -0.00    +0.000 AC
DOCKED: BRANCH   5  12
DOCKED: ATOM     12  C   UNL     1      37.064  11.007 122.650 -0.60 -0.00    +0.000 C 
DOCKED: ATOM     13  C   UNL     1      37.100  11.944 121.691 -0.56 -0.00    +0.000 C 
DOCKED: BRANCH  11  14
DOCKED: ATOM     14  O   UNL     1      36.702   9.196 121.191 -2.63 -0.00    +0.000 OA
DOCKED: ATOM     15  C   UNL     1      36.928   9.562 122.374 -0.65 -0.00    +0.000 C 
DOCKED: ATOM     16  N   UNL     1      37.018   8.570 123.407 -0.67 -0.00    +0.000 N 
DOCKED: ATOM     17  H   UNL     1      37.097   8.848 124.348 -0.53 -0.00    +0.000 HD
DOCKED: BRANCH  15  17
DOCKED: ATOM     18  O   UNL     1      36.992   7.254 123.091 -2.05 -0.00    +0.000 OA
DOCKED: ATOM     19  H   UNL     1      36.953   7.153 122.127 -0.09 -0.00    +0.000 HD
DOCKED: ENDBRANCH  15  17
DOCKED: ENDBRANCH  11  14
DOCKED: ENDBRANCH   5  12
DOCKED: ENDBRANCH   4   8
DOCKED: ENDBRANCH   1   4
DOCKED: BRANCH   1  19
DOCKED: ATOM     20  C   UNL     1      37.777  19.007 124.870 -0.17 -0.00    +0.000 C 
DOCKED: BRANCH  19  20
DOCKED: ATOM     21  C   UNL     1      36.358  19.418 124.442 -0.18 -0.00    +0.000 C 
DOCKED: BRANCH  20  21
DOCKED: ATOM     22  C   UNL     1      35.357  18.402 124.913 -0.25 -0.00    +0.000 A 
DOCKED: ATOM     23  C   UNL     1      34.498  17.628 124.130 -0.37 -0.00    +0.000 A 
DOCKED: ATOM     24  N   UNL     1      33.691  16.873 124.910 -0.38 -0.00    +0.000 N 
DOCKED: ATOM     25  C   UNL     1      34.014  17.178 126.178 -0.36 -0.00    +0.000 A 
DOCKED: ATOM     26  C   UNL     1      35.020  18.111 126.221 -0.20 -0.00    +0.000 A 
DOCKED: ATOM     27  C   UNL     1      35.510  18.607 127.430 -0.13 -0.00    +0.000 A 
DOCKED: ATOM     28  C   UNL     1      34.945  18.113 128.620 -0.12 -0.00    +0.000 A 
DOCKED: ATOM     29  C   UNL     1      33.914  17.149 128.576 -0.25 -0.00    +0.000 A 
DOCKED: ATOM     30  C   UNL     1      33.436  16.672 127.341 -0.38 -0.00    +0.000 A 
DOCKED: ATOM     31  C   UNL     1      34.473  17.594 122.635 -0.40 -0.00    +0.000 C 
DOCKED: ATOM     32  H   UNL     1      33.007  16.231 124.609 +0.07 -0.00    +0.000 HD
DOCKED: ATOM     33  CM  UNL     1      34.490  17.614 125.258 -0.41 -0.00    +0.000 AC
DOCKED: ATOM     34  CM  UNL     1      34.473  17.638 127.394 -0.01 -0.00    +0.000 AC
DOCKED: ENDBRANCH  20  21
DOCKED: ENDBRANCH  19  20
DOCKED: ENDBRANCH   1  19
DOCKED: TORSDOF 8DOCKED: TER
DOCKED: ENDMDL
________________________________________________________________________________


	BEGINNING GENETIC ALGORITHM DOCKING 7 of 100
Run: 7 Seed: 762056087 776482402 [ Run 7 of 100 GA/GALS ]
Beginning LAMARCKIAN GENETIC ALGORITHM (LGA), with a maximum of 2500000 energy evaluations.

Final-Value: -14.994


	FINAL GENETIC ALGORITHM DOCKED STATE
	_______________________________________________


Detailed state:  trans 35.121 17.519 124.299 quatxyzw -0.431059 0.617299 -0.630947 0.187179 center 0.698 0.076 -0.072 ntor 8 -20.0912 136.9698 171.8943 175.3907 4.1474 15.4096 -155.8367 111.9719
State:	 35.121  17.519 124.299  -0.439  0.628 -0.642 158.424    -20.09  136.97  171.89  175.39    4.15   15.41 -155.84  111.97

DOCKED: MODEL        7
DOCKED: USER    Run = 7
DOCKED: USER    DPF = ligand_dock.biased.dpf
DOCKED: USER  
DOCKED: USER    Estimated Free Energy of Binding    =  -10.30 kcal/mol  [=(1)+(2)+(3)-(4)]
DOCKED: USER    Estimated Inhibition Constant, Ki   =   28.05 nM (nanomolar)  [Temperature = 298.15 K]
DOCKED: USER    
DOCKED: USER    (1) Final Intermolecular Energy     =  -12.69 kcal/mol
DOCKED: USER        vdW + Hbond + desolv Energy     =  -12.69 kcal/mol
DOCKED: USER        Electrostatic Energy            =   +0.00 kcal/mol
DOCKED: USER    (2) Final Total Internal Energy     =   -2.30 kcal/mol
DOCKED: USER    (3) Torsional Free Energy           =   +2.39 kcal/mol
DOCKED: USER    (4) Unbound System's Energy  [=(2)] =   -2.30 kcal/mol
DOCKED: USER    
DOCKED: USER    
DOCKED: USER    NEWDPF move ligand.dum.pdbqt
DOCKED: USER    NEWDPF about 0.698000 0.076000 -0.072000
DOCKED: USER    NEWDPF tran0 35.121315 17.518924 124.299044
DOCKED: USER    NEWDPF quaternion0 -0.431059 0.617299 -0.630947 0.187179
DOCKED: USER    NEWDPF axisangle0 -0.438814 0.628406 -0.642299 158.423612
DOCKED: USER    NEWDPF quat0 -0.438814 0.628406 -0.642299 158.423612
DOCKED: USER    NEWDPF dihe0 -20.09 136.97 171.89 175.39 4.15 15.41 -155.84 111.97 
DOCKED: USER  keepresnum = 1 
DOCKED: USER  
DOCKED: REMARK  Name = 
DOCKED: REMARK  9 active torsions:
DOCKED: REMARK  status: ('A' for Active; 'I' for Inactive)
DOCKED: REMARK    1  A    between atoms: C_2  and  C_3
DOCKED: REMARK    2  A    between atoms: C_4  and  C_5
DOCKED: REMARK    3  A    between atoms: C_8  and  C_9
DOCKED: REMARK    4  A    between atoms: C_9  and  N_10
DOCKED: REMARK    5  A    between atoms: N_10  and  C_11
DOCKED: REMARK    6  A    between atoms: C_11  and  C_12
DOCKED: REMARK    7  A    between atoms: C_12  and  C_13
DOCKED: REMARK    8  A    between atoms: C_14  and  C_22
DOCKED: REMARK    9  A    between atoms: N_25  and  O_26
DOCKED: REMARK                            x       y       z     vdW  Elec       q    Type
DOCKED: REMARK                         _______ _______ _______ _____ _____    ______ ____
DOCKED: USER                              x       y       z     vdW  Elec       q    Type
DOCKED: USER                           _______ _______ _______ _____ _____    ______ ____
DOCKED: ROOT
DOCKED: ATOM      1  N   UNL     1      35.160  17.931 123.207 -0.29 -0.00    +0.000 N 
DOCKED: ATOM      2  H   UNL     1      34.972  18.881 123.528 -0.01 -0.00    +0.000 HD
DOCKED: ATOM      3  H   UNL     1      34.295  17.407 123.074 -0.02 -0.00    +0.000 HD
DOCKED: ENDROOT
DOCKED: BRANCH   1   4
DOCKED: ATOM      4  C   UNL     1      35.957  17.235 124.226 -0.32 -0.00    +0.000 C 
DOCKED: BRANCH   4   8
DOCKED: ATOM      5  C   UNL     1      36.812  13.248 122.783 -0.50 -0.00    +0.000 A 
DOCKED: ATOM      6  C   UNL     1      37.763  14.279 122.648 -0.42 -0.00    +0.000 A 
DOCKED: ATOM      7  C   UNL     1      37.486  15.565 123.121 -0.32 -0.00    +0.000 A 
DOCKED: ATOM      8  C   UNL     1      36.265  15.842 123.755 -0.36 -0.00    +0.000 A 
DOCKED: ATOM      9  C   UNL     1      35.316  14.818 123.894 -0.50 -0.00    +0.000 A 
DOCKED: ATOM     10  C   UNL     1      35.594  13.531 123.423 -0.39 -0.00    +0.000 A 
DOCKED: ATOM     11  CM  UNL     1      36.540  14.547 123.270 +0.00 -0.00    +0.000 AC
DOCKED: BRANCH   5  12
DOCKED: ATOM     12  C   UNL     1      36.532  10.774 122.889 -0.69 -0.00    +0.000 C 
DOCKED: ATOM     13  C   UNL     1      37.060  11.863 122.311 -0.60 -0.00    +0.000 C 
DOCKED: BRANCH  11  14
DOCKED: ATOM     14  O   UNL     1      37.066   9.221 121.202 -2.74 -0.00    +0.000 OA
DOCKED: ATOM     15  C   UNL     1      36.784   9.396 122.416 -0.70 -0.00    +0.000 C 
DOCKED: ATOM     16  N   UNL     1      36.693   8.258 123.285 -0.71 -0.00    +0.000 N 
DOCKED: ATOM     17  H   UNL     1      36.380   8.371 124.211 -0.29 -0.00    +0.000 HD
DOCKED: BRANCH  15  17
DOCKED: ATOM     18  O   UNL     1      37.036   7.028 122.832 -1.74 -0.00    +0.000 OA
DOCKED: ATOM     19  H   UNL     1      37.012   7.022 121.862 -0.13 -0.00    +0.000 HD
DOCKED: ENDBRANCH  15  17
DOCKED: ENDBRANCH  11  14
DOCKED: ENDBRANCH   5  12
DOCKED: ENDBRANCH   4   8
DOCKED: ENDBRANCH   1   4
DOCKED: BRANCH   1  19
DOCKED: ATOM     20  C   UNL     1      35.852  17.997 121.910 -0.25 -0.00    +0.000 C 
DOCKED: BRANCH  19  20
DOCKED: ATOM     21  C   UNL     1      34.987  17.463 120.756 -0.22 -0.00    +0.000 C 
DOCKED: BRANCH  20  21
DOCKED: ATOM     22  C   UNL     1      35.799  17.369 119.496 -0.14 -0.00    +0.000 A 
DOCKED: ATOM     23  C   UNL     1      35.927  18.331 118.492 -0.09 -0.00    +0.000 A 
DOCKED: ATOM     24  N   UNL     1      36.690  17.864 117.476 -0.05 -0.00    +0.000 N 
DOCKED: ATOM     25  C   UNL     1      37.027  16.609 117.817 -0.10 -0.00    +0.000 A 
DOCKED: ATOM     26  C   UNL     1      36.498  16.268 119.037 -0.15 -0.00    +0.000 A 
DOCKED: ATOM     27  C   UNL     1      36.689  15.003 119.593 -0.15 -0.00    +0.000 A 
DOCKED: ATOM     28  C   UNL     1      37.456  14.074 118.865 -0.32 -0.00    +0.000 A 
DOCKED: ATOM     29  C   UNL     1      38.004  14.426 117.612 -0.24 -0.00    +0.000 A 
DOCKED: ATOM     30  C   UNL     1      37.790  15.709 117.074 -0.14 -0.00    +0.000 A 
DOCKED: ATOM     31  C   UNL     1      35.340  19.706 118.521 -0.13 -0.00    +0.000 C 
DOCKED: ATOM     32  H   UNL     1      36.945  18.346 116.657 +0.00 -0.00    +0.000 HD
DOCKED: ATOM     33  CM  UNL     1      36.398  17.307 118.432 +0.00 -0.00    +0.000 AC
DOCKED: ATOM     34  CM  UNL     1      37.244  15.349 118.333 +0.00 -0.00    +0.000 AC
DOCKED: ENDBRANCH  20  21
DOCKED: ENDBRANCH  19  20
DOCKED: ENDBRANCH   1  19
DOCKED: TORSDOF 8DOCKED: TER
DOCKED: ENDMDL
________________________________________________________________________________


	BEGINNING GENETIC ALGORITHM DOCKING 8 of 100
Run: 8 Seed: 1217676830 1533953827 [ Run 8 of 100 GA/GALS ]
Beginning LAMARCKIAN GENETIC ALGORITHM (LGA), with a maximum of 2500000 energy evaluations.

Final-Value: -15.964


	FINAL GENETIC ALGORITHM DOCKED STATE
	_______________________________________________


Detailed state:  trans 37.390 17.934 120.979 quatxyzw 0.245720 -0.400161 -0.100953 0.877098 center 0.698 0.076 -0.072 ntor 8 6.6358 155.4822 -169.7449 141.5485 -54.0731 6.2528 -31.8433 -85.0393
State:	 37.390  17.934 120.979   0.512 -0.833 -0.210 57.411      6.64  155.48 -169.74  141.55  -54.07    6.25  -31.84  -85.04

DOCKED: MODEL        8
DOCKED: USER    Run = 8
DOCKED: USER    DPF = ligand_dock.biased.dpf
DOCKED: USER  
DOCKED: USER    Estimated Free Energy of Binding    =  -11.51 kcal/mol  [=(1)+(2)+(3)-(4)]
DOCKED: USER    Estimated Inhibition Constant, Ki   =    3.63 nM (nanomolar)  [Temperature = 298.15 K]
DOCKED: USER    
DOCKED: USER    (1) Final Intermolecular Energy     =  -13.90 kcal/mol
DOCKED: USER        vdW + Hbond + desolv Energy     =  -13.90 kcal/mol
DOCKED: USER        Electrostatic Energy            =   +0.00 kcal/mol
DOCKED: USER    (2) Final Total Internal Energy     =   -2.06 kcal/mol
DOCKED: USER    (3) Torsional Free Energy           =   +2.39 kcal/mol
DOCKED: USER    (4) Unbound System's Energy  [=(2)] =   -2.06 kcal/mol
DOCKED: USER    
DOCKED: USER    
DOCKED: USER    NEWDPF move ligand.dum.pdbqt
DOCKED: USER    NEWDPF about 0.698000 0.076000 -0.072000
DOCKED: USER    NEWDPF tran0 37.390418 17.933576 120.978857
DOCKED: USER    NEWDPF quaternion0 0.245720 -0.400161 -0.100953 0.877098
DOCKED: USER    NEWDPF axisangle0 0.511585 -0.833129 -0.210183 57.411438
DOCKED: USER    NEWDPF quat0 0.511585 -0.833129 -0.210183 57.411438
DOCKED: USER    NEWDPF dihe0 6.64 155.48 -169.74 141.55 -54.07 6.25 -31.84 -85.04 
DOCKED: USER  keepresnum = 1 
DOCKED: USER  
DOCKED: REMARK  Name = 
DOCKED: REMARK  9 active torsions:
DOCKED: REMARK  status: ('A' for Active; 'I' for Inactive)
DOCKED: REMARK    1  A    between atoms: C_2  and  C_3
DOCKED: REMARK    2  A    between atoms: C_4  and  C_5
DOCKED: REMARK    3  A    between atoms: C_8  and  C_9
DOCKED: REMARK    4  A    between atoms: C_9  and  N_10
DOCKED: REMARK    5  A    between atoms: N_10  and  C_11
DOCKED: REMARK    6  A    between atoms: C_11  and  C_12
DOCKED: REMARK    7  A    between atoms: C_12  and  C_13
DOCKED: REMARK    8  A    between atoms: C_14  and  C_22
DOCKED: REMARK    9  A    between atoms: N_25  and  O_26
DOCKED: REMARK                            x       y       z     vdW  Elec       q    Type
DOCKED: REMARK                         _______ _______ _______ _____ _____    ______ ____
DOCKED: USER                              x       y       z     vdW  Elec       q    Type
DOCKED: USER                           _______ _______ _______ _____ _____    ______ ____
DOCKED: ROOT
DOCKED: ATOM      1  N   UNL     1      36.373  18.330 121.393 -0.15 -0.00    +0.000 N 
DOCKED: ATOM      2  H   UNL     1      35.852  17.636 120.857 -0.00 -0.00    +0.000 HD
DOCKED: ATOM      3  H   UNL     1      36.571  19.159 120.833 +0.00 -0.00    +0.000 HD
DOCKED: ENDROOT
DOCKED: BRANCH   1   4
DOCKED: ATOM      4  C   UNL     1      37.657  17.746 121.802 -0.13 -0.00    +0.000 C 
DOCKED: BRANCH   4   8
DOCKED: ATOM      5  C   UNL     1      37.407  13.456 121.304 -0.40 -0.00    +0.000 A 
DOCKED: ATOM      6  C   UNL     1      37.835  14.278 120.242 -0.30 -0.00    +0.000 A 
DOCKED: ATOM      7  C   UNL     1      37.921  15.664 120.408 -0.19 -0.00    +0.000 A 
DOCKED: ATOM      8  C   UNL     1      37.601  16.253 121.640 -0.18 -0.00    +0.000 A 
DOCKED: ATOM      9  C   UNL     1      37.177  15.439 122.701 -0.32 -0.00    +0.000 A 
DOCKED: ATOM     10  C   UNL     1      37.093  14.053 122.536 -0.42 -0.00    +0.000 A 
DOCKED: ATOM     11  CM  UNL     1      37.505  14.857 121.472 +0.00 -0.00    +0.000 AC
DOCKED: BRANCH   5  12
DOCKED: ATOM     12  C   UNL     1      37.142  11.159 122.232 -0.47 -0.00    +0.000 C 
DOCKED: ATOM     13  C   UNL     1      37.311  11.980 121.185 -0.52 -0.00    +0.000 C 
DOCKED: BRANCH  11  14
DOCKED: ATOM     14  O   UNL     1      36.970   9.188 120.958 -2.70 -0.00    +0.000 OA
DOCKED: ATOM     15  C   UNL     1      37.049   9.689 122.110 -0.60 -0.00    +0.000 C 
DOCKED: ATOM     16  N   UNL     1      37.019   8.823 123.254 -0.66 -0.00    +0.000 N 
DOCKED: ATOM     17  H   UNL     1      36.983   9.207 124.159 -0.54 -0.00    +0.000 HD
DOCKED: BRANCH  15  17
DOCKED: ATOM     18  O   UNL     1      37.040   7.479 123.089 -2.22 -0.00    +0.000 OA
DOCKED: ATOM     19  H   UNL     1      37.182   7.269 122.153 -0.11 -0.00    +0.000 HD
DOCKED: ENDBRANCH  15  17
DOCKED: ENDBRANCH  11  14
DOCKED: ENDBRANCH   5  12
DOCKED: ENDBRANCH   4   8
DOCKED: ENDBRANCH   1   4
DOCKED: BRANCH   1  19
DOCKED: ATOM     20  C   UNL     1      35.560  18.747 122.546 -0.24 -0.00    +0.000 C 
DOCKED: BRANCH  19  20
DOCKED: ATOM     21  C   UNL     1      34.338  17.838 122.761 -0.38 -0.00    +0.000 C 
DOCKED: BRANCH  20  21
DOCKED: ATOM     22  C   UNL     1      34.267  17.388 124.192 -0.38 -0.00    +0.000 A 
DOCKED: ATOM     23  C   UNL     1      34.172  16.079 124.669 -0.48 -0.00    +0.000 A 
DOCKED: ATOM     24  N   UNL     1      34.062  16.068 126.017 -0.46 -0.00    +0.000 N 
DOCKED: ATOM     25  C   UNL     1      34.064  17.358 126.396 -0.33 -0.00    +0.000 A 
DOCKED: ATOM     26  C   UNL     1      34.180  18.192 125.313 -0.32 -0.00    +0.000 A 
DOCKED: ATOM     27  C   UNL     1      34.180  19.580 125.451 -0.15 -0.00    +0.000 A 
DOCKED: ATOM     28  C   UNL     1      34.064  20.111 126.749 -0.15 -0.00    +0.000 A 
DOCKED: ATOM     29  C   UNL     1      33.949  19.253 127.865 -0.12 -0.00    +0.000 A 
DOCKED: ATOM     30  C   UNL     1      33.947  17.856 127.694 -0.24 -0.00    +0.000 A 
DOCKED: ATOM     31  C   UNL     1      34.214  14.840 123.832 -0.45 -0.00    +0.000 C 
DOCKED: ATOM     32  H   UNL     1      33.995  15.278 126.601 -0.05 -0.00    +0.000 HD
DOCKED: ATOM     33  CM  UNL     1      34.146  16.986 125.339 -0.21 -0.00    +0.000 AC
DOCKED: ATOM     34  CM  UNL     1      34.064  18.724 126.579 -0.03 -0.00    +0.000 AC
DOCKED: ENDBRANCH  20  21
DOCKED: ENDBRANCH  19  20
DOCKED: ENDBRANCH   1  19
DOCKED: TORSDOF 8DOCKED: TER
DOCKED: ENDMDL
________________________________________________________________________________


	BEGINNING GENETIC ALGORITHM DOCKING 9 of 100
Run: 9 Seed: 402951304 1240956166 [ Run 9 of 100 GA/GALS ]
Beginning LAMARCKIAN GENETIC ALGORITHM (LGA), with a maximum of 2500000 energy evaluations.

Final-Value: -16.004


	FINAL GENETIC ALGORITHM DOCKED STATE
	_______________________________________________


Detailed state:  trans 37.348 16.892 123.777 quatxyzw -0.001614 -0.408754 -0.562813 -0.718442 center 0.698 0.076 -0.072 ntor 8 7.6989 -29.4134 148.0685 162.6036 177.7636 93.3030 -113.6776 -35.1890
State:	 37.348  16.892 123.777  -0.002 -0.588 -0.809 -88.148      7.70  -29.41  148.07  162.60  177.76   93.30 -113.68  -35.19

DOCKED: MODEL        9
DOCKED: USER    Run = 9
DOCKED: USER    DPF = ligand_dock.biased.dpf
DOCKED: USER  
DOCKED: USER    Estimated Free Energy of Binding    =  -11.49 kcal/mol  [=(1)+(2)+(3)-(4)]
DOCKED: USER    Estimated Inhibition Constant, Ki   =    3.76 nM (nanomolar)  [Temperature = 298.15 K]
DOCKED: USER    
DOCKED: USER    (1) Final Intermolecular Energy     =  -13.88 kcal/mol
DOCKED: USER        vdW + Hbond + desolv Energy     =  -13.88 kcal/mol
DOCKED: USER        Electrostatic Energy            =   +0.00 kcal/mol
DOCKED: USER    (2) Final Total Internal Energy     =   -2.12 kcal/mol
DOCKED: USER    (3) Torsional Free Energy           =   +2.39 kcal/mol
DOCKED: USER    (4) Unbound System's Energy  [=(2)] =   -2.12 kcal/mol
DOCKED: USER    
DOCKED: USER    
DOCKED: USER    NEWDPF move ligand.dum.pdbqt
DOCKED: USER    NEWDPF about 0.698000 0.076000 -0.072000
DOCKED: USER    NEWDPF tran0 37.348417 16.891658 123.776649
DOCKED: USER    NEWDPF quaternion0 -0.001614 -0.408754 -0.562813 -0.718442
DOCKED: USER    NEWDPF axisangle0 -0.002320 -0.587639 -0.809120 -88.147931
DOCKED: USER    NEWDPF quat0 -0.002320 -0.587639 -0.809120 -88.147931
DOCKED: USER    NEWDPF dihe0 7.70 -29.41 148.07 162.60 177.76 93.30 -113.68 -35.19 
DOCKED: USER  keepresnum = 1 
DOCKED: USER  
DOCKED: REMARK  Name = 
DOCKED: REMARK  9 active torsions:
DOCKED: REMARK  status: ('A' for Active; 'I' for Inactive)
DOCKED: REMARK    1  A    between atoms: C_2  and  C_3
DOCKED: REMARK    2  A    between atoms: C_4  and  C_5
DOCKED: REMARK    3  A    between atoms: C_8  and  C_9
DOCKED: REMARK    4  A    between atoms: C_9  and  N_10
DOCKED: REMARK    5  A    between atoms: N_10  and  C_11
DOCKED: REMARK    6  A    between atoms: C_11  and  C_12
DOCKED: REMARK    7  A    between atoms: C_12  and  C_13
DOCKED: REMARK    8  A    between atoms: C_14  and  C_22
DOCKED: REMARK    9  A    between atoms: N_25  and  O_26
DOCKED: REMARK                            x       y       z     vdW  Elec       q    Type
DOCKED: REMARK                         _______ _______ _______ _____ _____    ______ ____
DOCKED: USER                              x       y       z     vdW  Elec       q    Type
DOCKED: USER                           _______ _______ _______ _____ _____    ______ ____
DOCKED: ROOT
DOCKED: ATOM      1  N   UNL     1      37.917  17.796 123.305 -0.17 -0.00    +0.000 N 
DOCKED: ATOM      2  H   UNL     1      38.329  17.199 122.587 +0.00 -0.00    +0.000 HD
DOCKED: ATOM      3  H   UNL     1      38.469  17.781 124.161 -0.01 -0.00    +0.000 HD
DOCKED: ENDROOT
DOCKED: BRANCH   1   4
DOCKED: ATOM      4  C   UNL     1      36.575  17.294 123.625 -0.27 -0.00    +0.000 C 
DOCKED: BRANCH   4   8
DOCKED: ATOM      5  C   UNL     1      36.563  12.974 123.389 -0.56 -0.00    +0.000 A 
DOCKED: ATOM      6  C   UNL     1      35.419  13.672 123.824 -0.31 -0.00    +0.000 A 
DOCKED: ATOM      7  C   UNL     1      35.424  15.068 123.894 -0.48 -0.00    +0.000 A 
DOCKED: ATOM      8  C   UNL     1      36.561  15.795 123.511 -0.34 -0.00    +0.000 A 
DOCKED: ATOM      9  C   UNL     1      37.702  15.105 123.074 -0.36 -0.00    +0.000 A 
DOCKED: ATOM     10  C   UNL     1      37.697  13.709 123.003 -0.47 -0.00    +0.000 A 
DOCKED: ATOM     11  CM  UNL     1      36.561  14.387 123.450 +0.00 -0.00    +0.000 AC
DOCKED: BRANCH   5  12
DOCKED: ATOM     12  C   UNL     1      36.945  10.838 122.164 -0.58 -0.00    +0.000 C 
DOCKED: ATOM     13  C   UNL     1      36.608  11.495 123.284 -0.70 -0.00    +0.000 C 
DOCKED: BRANCH  11  14
DOCKED: ATOM     14  O   UNL     1      37.063   8.843 120.921 -2.71 -0.00    +0.000 OA
DOCKED: ATOM     15  C   UNL     1      36.985   9.364 122.064 -0.65 -0.00    +0.000 C 
DOCKED: ATOM     16  N   UNL     1      36.914   8.513 123.217 -0.70 -0.00    +0.000 N 
DOCKED: ATOM     17  H   UNL     1      36.756   8.904 124.106 -0.45 -0.00    +0.000 HD
DOCKED: BRANCH  15  17
DOCKED: ATOM     18  O   UNL     1      37.061   7.173 123.084 -1.99 -0.00    +0.000 OA
DOCKED: ATOM     19  H   UNL     1      37.328   6.965 122.175 -0.20 -0.00    +0.000 HD
DOCKED: ENDBRANCH  15  17
DOCKED: ENDBRANCH  11  14
DOCKED: ENDBRANCH   5  12
DOCKED: ENDBRANCH   4   8
DOCKED: ENDBRANCH   1   4
DOCKED: BRANCH   1  19
DOCKED: ATOM     20  C   UNL     1      37.889  19.181 122.809 -0.10 -0.00    +0.000 C 
DOCKED: BRANCH  19  20
DOCKED: ATOM     21  C   UNL     1      39.294  19.801 122.721 -0.05 -0.00    +0.000 C 
DOCKED: BRANCH  20  21
DOCKED: ATOM     22  C   UNL     1      40.333  18.798 123.133 -0.11 -0.00    +0.000 A 
DOCKED: ATOM     23  C   UNL     1      41.054  18.762 124.328 -0.22 -0.00    +0.000 A 
DOCKED: ATOM     24  N   UNL     1      41.952  17.750 124.314 -0.25 -0.00    +0.000 N 
DOCKED: ATOM     25  C   UNL     1      41.822  17.160 123.113 -0.32 -0.00    +0.000 A 
DOCKED: ATOM     26  C   UNL     1      40.851  17.774 122.363 -0.15 -0.00    +0.000 A 
DOCKED: ATOM     27  C   UNL     1      40.551  17.356 121.066 -0.10 -0.00    +0.000 A 
DOCKED: ATOM     28  C   UNL     1      41.273  16.268 120.542 -0.17 -0.00    +0.000 A 
DOCKED: ATOM     29  C   UNL     1      42.269  15.632 121.317 -0.26 -0.00    +0.000 A 
DOCKED: ATOM     30  C   UNL     1      42.554  16.080 122.620 -0.41 -0.00    +0.000 A 
DOCKED: ATOM     31  C   UNL     1      40.862  19.681 125.492 -0.18 -0.00    +0.000 C 
DOCKED: ATOM     32  H   UNL     1      42.573  17.497 125.036 -0.60 -0.00    +0.000 HD
DOCKED: ATOM     33  CM  UNL     1      41.226  18.040 123.478 +0.00 -0.00    +0.000 AC
DOCKED: ATOM     34  CM  UNL     1      41.554  16.712 121.837 +0.00 -0.00    +0.000 AC
DOCKED: ENDBRANCH  20  21
DOCKED: ENDBRANCH  19  20
DOCKED: ENDBRANCH   1  19
DOCKED: TORSDOF 8DOCKED: TER
DOCKED: ENDMDL
________________________________________________________________________________


	BEGINNING GENETIC ALGORITHM DOCKING 10 of 100
Run: 10 Seed: 636547707 1040656020 [ Run 10 of 100 GA/GALS ]
Beginning LAMARCKIAN GENETIC ALGORITHM (LGA), with a maximum of 2500000 energy evaluations.

Final-Value: -14.889


	FINAL GENETIC ALGORITHM DOCKED STATE
	_______________________________________________


Detailed state:  trans 37.055 15.498 121.197 quatxyzw 0.486503 -0.517327 0.205176 0.673491 center 0.698 0.076 -0.072 ntor 8 -11.3234 -147.7498 -143.0963 169.1203 -90.7334 -2.8625 -42.7069 -39.3108
State:	 37.055  15.498 121.197   0.658 -0.700  0.278 95.326    -11.32 -147.75 -143.10  169.12  -90.73   -2.86  -42.71  -39.31

DOCKED: MODEL       10
DOCKED: USER    Run = 10
DOCKED: USER    DPF = ligand_dock.biased.dpf
DOCKED: USER  
DOCKED: USER    Estimated Free Energy of Binding    =  -10.54 kcal/mol  [=(1)+(2)+(3)-(4)]
DOCKED: USER    Estimated Inhibition Constant, Ki   =   18.95 nM (nanomolar)  [Temperature = 298.15 K]
DOCKED: USER    
DOCKED: USER    (1) Final Intermolecular Energy     =  -12.92 kcal/mol
DOCKED: USER        vdW + Hbond + desolv Energy     =  -12.92 kcal/mol
DOCKED: USER        Electrostatic Energy            =   +0.00 kcal/mol
DOCKED: USER    (2) Final Total Internal Energy     =   -1.97 kcal/mol
DOCKED: USER    (3) Torsional Free Energy           =   +2.39 kcal/mol
DOCKED: USER    (4) Unbound System's Energy  [=(2)] =   -1.97 kcal/mol
DOCKED: USER    
DOCKED: USER    
DOCKED: USER    NEWDPF move ligand.dum.pdbqt
DOCKED: USER    NEWDPF about 0.698000 0.076000 -0.072000
DOCKED: USER    NEWDPF tran0 37.055370 15.497914 121.196607
DOCKED: USER    NEWDPF quaternion0 0.486503 -0.517327 0.205176 0.673491
DOCKED: USER    NEWDPF axisangle0 0.658152 -0.699852 0.277567 95.325859
DOCKED: USER    NEWDPF quat0 0.658152 -0.699852 0.277567 95.325859
DOCKED: USER    NEWDPF dihe0 -11.32 -147.75 -143.10 169.12 -90.73 -2.86 -42.71 -39.31 
DOCKED: USER  keepresnum = 1 
DOCKED: USER  
DOCKED: REMARK  Name = 
DOCKED: REMARK  9 active torsions:
DOCKED: REMARK  status: ('A' for Active; 'I' for Inactive)
DOCKED: REMARK    1  A    between atoms: C_2  and  C_3
DOCKED: REMARK    2  A    between atoms: C_4  and  C_5
DOCKED: REMARK    3  A    between atoms: C_8  and  C_9
DOCKED: REMARK    4  A    between atoms: C_9  and  N_10
DOCKED: REMARK    5  A    between atoms: N_10  and  C_11
DOCKED: REMARK    6  A    between atoms: C_11  and  C_12
DOCKED: REMARK    7  A    between atoms: C_12  and  C_13
DOCKED: REMARK    8  A    between atoms: C_14  and  C_22
DOCKED: REMARK    9  A    between atoms: N_25  and  O_26
DOCKED: REMARK                            x       y       z     vdW  Elec       q    Type
DOCKED: REMARK                         _______ _______ _______ _____ _____    ______ ____
DOCKED: USER                              x       y       z     vdW  Elec       q    Type
DOCKED: USER                           _______ _______ _______ _____ _____    ______ ____
DOCKED: ROOT
DOCKED: ATOM      1  N   UNL     1      36.343  16.423 121.191 -0.20 -0.00    +0.000 N 
DOCKED: ATOM      2  H   UNL     1      35.527  15.831 121.349 +0.00 -0.00    +0.000 HD
DOCKED: ATOM      3  H   UNL     1      36.572  16.481 120.199 -0.00 -0.00    +0.000 HD
DOCKED: ENDROOT
DOCKED: BRANCH   1   4
DOCKED: ATOM      4  C   UNL     1      37.495  15.836 121.887 -0.26 -0.00    +0.000 C 
DOCKED: BRANCH   4   8
DOCKED: ATOM      5  C   UNL     1      36.950  11.546 122.019 -0.51 -0.00    +0.000 A 
DOCKED: ATOM      6  C   UNL     1      37.428  12.173 120.851 -0.47 -0.00    +0.000 A 
DOCKED: ATOM      7  C   UNL     1      37.608  13.559 120.813 -0.39 -0.00    +0.000 A 
DOCKED: ATOM      8  C   UNL     1      37.336  14.342 121.944 -0.35 -0.00    +0.000 A 
DOCKED: ATOM      9  C   UNL     1      36.863  13.723 123.111 -0.49 -0.00    +0.000 A 
DOCKED: ATOM     10  C   UNL     1      36.684  12.337 123.149 -0.59 -0.00    +0.000 A 
DOCKED: ATOM     11  CM  UNL     1      37.145  12.946 121.981 +0.00 -0.00    +0.000 AC
DOCKED: BRANCH   5  12
DOCKED: ATOM     12  C   UNL     1      36.053   9.486 123.096 -0.65 -0.00    +0.000 C 
DOCKED: ATOM     13  C   UNL     1      36.752  10.079 122.117 -0.64 -0.00    +0.000 C 
DOCKED: BRANCH  11  14
DOCKED: ATOM     14  O   UNL     1      36.867   7.278 123.071 -2.02 -0.00    +0.000 OA
DOCKED: ATOM     15  C   UNL     1      35.860   8.024 123.191 -0.73 -0.00    +0.000 C 
DOCKED: ATOM     16  N   UNL     1      34.569   7.430 123.387 -0.67 -0.00    +0.000 N 
DOCKED: ATOM     17  H   UNL     1      33.763   7.995 123.385 -0.10 -0.00    +0.000 HD
DOCKED: BRANCH  15  17
DOCKED: ATOM     18  O   UNL     1      34.457   6.093 123.573 -0.87 -0.00    +0.000 OA
DOCKED: ATOM     19  H   UNL     1      35.304   5.665 123.371 -0.09 -0.00    +0.000 HD
DOCKED: ENDBRANCH  15  17
DOCKED: ENDBRANCH  11  14
DOCKED: ENDBRANCH   5  12
DOCKED: ENDBRANCH   4   8
DOCKED: ENDBRANCH   1   4
DOCKED: BRANCH   1  19
DOCKED: ATOM     20  C   UNL     1      36.040  17.782 121.666 -0.23 -0.00    +0.000 C 
DOCKED: BRANCH  19  20
DOCKED: ATOM     21  C   UNL     1      34.626  17.895 122.259 -0.36 -0.00    +0.000 C 
DOCKED: BRANCH  20  21
DOCKED: ATOM     22  C   UNL     1      34.665  17.678 123.745 -0.35 -0.00    +0.000 A 
DOCKED: ATOM     23  C   UNL     1      34.363  16.507 124.442 -0.46 -0.00    +0.000 A 
DOCKED: ATOM     24  N   UNL     1      34.445  16.710 125.777 -0.39 -0.00    +0.000 N 
DOCKED: ATOM     25  C   UNL     1      34.773  18.004 125.932 -0.27 -0.00    +0.000 A 
DOCKED: ATOM     26  C   UNL     1      34.909  18.629 124.718 -0.26 -0.00    +0.000 A 
DOCKED: ATOM     27  C   UNL     1      35.221  19.986 124.621 -0.11 -0.00    +0.000 A 
DOCKED: ATOM     28  C   UNL     1      35.403  20.705 125.816 -0.13 -0.00    +0.000 A 
DOCKED: ATOM     29  C   UNL     1      35.268  20.061 127.066 -0.10 -0.00    +0.000 A 
DOCKED: ATOM     30  C   UNL     1      34.948  18.692 127.133 -0.17 -0.00    +0.000 A 
DOCKED: ATOM     31  C   UNL     1      34.024  15.187 123.825 -0.52 -0.00    +0.000 C 
DOCKED: ATOM     32  H   UNL     1      34.295  16.046 126.489 -0.04 -0.00    +0.000 HD
DOCKED: ATOM     33  CM  UNL     1      34.625  17.480 124.950 -0.43 -0.00    +0.000 AC
DOCKED: ATOM     34  CM  UNL     1      35.087  19.346 125.882 -0.05 -0.00    +0.000 AC
DOCKED: ENDBRANCH  20  21
DOCKED: ENDBRANCH  19  20
DOCKED: ENDBRANCH   1  19
DOCKED: TORSDOF 8DOCKED: TER
DOCKED: ENDMDL
________________________________________________________________________________


	BEGINNING GENETIC ALGORITHM DOCKING 11 of 100
Run: 11 Seed: 1546766402 1137941038 [ Run 11 of 100 GA/GALS ]
Beginning LAMARCKIAN GENETIC ALGORITHM (LGA), with a maximum of 2500000 energy evaluations.

Final-Value: -14.357


	FINAL GENETIC ALGORITHM DOCKED STATE
	_______________________________________________


Detailed state:  trans 38.076 17.812 121.749 quatxyzw 0.228545 0.226183 0.032559 0.946334 center 0.698 0.076 -0.072 ntor 8 10.5414 154.6784 30.3153 -0.6778 -89.6962 93.0647 -86.5937 -99.9815
State:	 38.076  17.812 121.749   0.707  0.700  0.101 37.712     10.54  154.68   30.32   -0.68  -89.70   93.06  -86.59  -99.98

DOCKED: MODEL       11
DOCKED: USER    Run = 11
DOCKED: USER    DPF = ligand_dock.biased.dpf
DOCKED: USER  
DOCKED: USER    Estimated Free Energy of Binding    =   -9.63 kcal/mol  [=(1)+(2)+(3)-(4)]
DOCKED: USER    Estimated Inhibition Constant, Ki   =   88.06 nM (nanomolar)  [Temperature = 298.15 K]
DOCKED: USER    
DOCKED: USER    (1) Final Intermolecular Energy     =  -12.01 kcal/mol
DOCKED: USER        vdW + Hbond + desolv Energy     =  -12.01 kcal/mol
DOCKED: USER        Electrostatic Energy            =   +0.00 kcal/mol
DOCKED: USER    (2) Final Total Internal Energy     =   -2.35 kcal/mol
DOCKED: USER    (3) Torsional Free Energy           =   +2.39 kcal/mol
DOCKED: USER    (4) Unbound System's Energy  [=(2)] =   -2.35 kcal/mol
DOCKED: USER    
DOCKED: USER    
DOCKED: USER    NEWDPF move ligand.dum.pdbqt
DOCKED: USER    NEWDPF about 0.698000 0.076000 -0.072000
DOCKED: USER    NEWDPF tran0 38.076137 17.811864 121.749288
DOCKED: USER    NEWDPF quaternion0 0.228545 0.226183 0.032559 0.946334
DOCKED: USER    NEWDPF axisangle0 0.707155 0.699845 0.100742 37.711885
DOCKED: USER    NEWDPF quat0 0.707155 0.699845 0.100742 37.711885
DOCKED: USER    NEWDPF dihe0 10.54 154.68 30.32 -0.68 -89.70 93.06 -86.59 -99.98 
DOCKED: USER  keepresnum = 1 
DOCKED: USER  
DOCKED: REMARK  Name = 
DOCKED: REMARK  9 active torsions:
DOCKED: REMARK  status: ('A' for Active; 'I' for Inactive)
DOCKED: REMARK    1  A    between atoms: C_2  and  C_3
DOCKED: REMARK    2  A    between atoms: C_4  and  C_5
DOCKED: REMARK    3  A    between atoms: C_8  and  C_9
DOCKED: REMARK    4  A    between atoms: C_9  and  N_10
DOCKED: REMARK    5  A    between atoms: N_10  and  C_11
DOCKED: REMARK    6  A    between atoms: C_11  and  C_12
DOCKED: REMARK    7  A    between atoms: C_12  and  C_13
DOCKED: REMARK    8  A    between atoms: C_14  and  C_22
DOCKED: REMARK    9  A    between atoms: N_25  and  O_26
DOCKED: REMARK                            x       y       z     vdW  Elec       q    Type
DOCKED: REMARK                         _______ _______ _______ _____ _____    ______ ____
DOCKED: USER                              x       y       z     vdW  Elec       q    Type
DOCKED: USER                           _______ _______ _______ _____ _____    ______ ____
DOCKED: ROOT
DOCKED: ATOM      1  N   UNL     1      37.379  18.183 120.888 -0.09 -0.00    +0.000 N 
DOCKED: ATOM      2  H   UNL     1      37.820  17.550 120.221 +0.00 -0.00    +0.000 HD
DOCKED: ATOM      3  H   UNL     1      37.897  19.057 120.967 +0.00 -0.00    +0.000 HD
DOCKED: ENDROOT
DOCKED: BRANCH   1   4
DOCKED: ATOM      4  C   UNL     1      37.370  17.544 122.211 -0.16 -0.00    +0.000 C 
DOCKED: BRANCH   4   8
DOCKED: ATOM      5  C   UNL     1      37.187  13.249 121.729 -0.42 -0.00    +0.000 A 
DOCKED: ATOM      6  C   UNL     1      37.329  13.822 123.009 -0.47 -0.00    +0.000 A 
DOCKED: ATOM      7  C   UNL     1      37.382  15.211 123.161 -0.35 -0.00    +0.000 A 
DOCKED: ATOM      8  C   UNL     1      37.274  16.053 122.046 -0.22 -0.00    +0.000 A 
DOCKED: ATOM      9  C   UNL     1      37.129  15.487 120.770 -0.20 -0.00    +0.000 A 
DOCKED: ATOM     10  C   UNL     1      37.074  14.099 120.617 -0.27 -0.00    +0.000 A 
DOCKED: ATOM     11  CM  UNL     1      37.230  14.653 121.889 +0.00 -0.00    +0.000 AC
DOCKED: BRANCH   5  12
DOCKED: ATOM     12  C   UNL     1      37.026  10.886 122.507 -0.59 -0.00    +0.000 C 
DOCKED: ATOM     13  C   UNL     1      37.113  11.783 121.512 -0.55 -0.00    +0.000 C 
DOCKED: BRANCH  11  14
DOCKED: ATOM     14  O   UNL     1      36.799   9.006 121.110 -2.65 -0.00    +0.000 OA
DOCKED: ATOM     15  C   UNL     1      36.954   9.427 122.286 -0.65 -0.00    +0.000 C 
DOCKED: ATOM     16  N   UNL     1      37.030   8.482 123.363 -0.69 -0.00    +0.000 N 
DOCKED: ATOM     17  H   UNL     1      37.055   8.801 124.294 -0.52 -0.00    +0.000 HD
DOCKED: BRANCH  15  17
DOCKED: ATOM     18  O   UNL     1      37.067   7.154 123.101 -1.97 -0.00    +0.000 OA
DOCKED: ATOM     19  H   UNL     1      37.203   7.014 122.151 -0.16 -0.00    +0.000 HD
DOCKED: ENDBRANCH  15  17
DOCKED: ENDBRANCH  11  14
DOCKED: ENDBRANCH   5  12
DOCKED: ENDBRANCH   4   8
DOCKED: ENDBRANCH   1   4
DOCKED: BRANCH   1  19
DOCKED: ATOM     20  C   UNL     1      36.023  18.501 120.415 -0.19 -0.00    +0.000 C 
DOCKED: BRANCH  19  20
DOCKED: ATOM     21  C   UNL     1      35.981  18.787 118.904 -0.12 -0.00    +0.000 C 
DOCKED: BRANCH  20  21
DOCKED: ATOM     22  C   UNL     1      35.634  17.538 118.146 -0.11 -0.00    +0.000 A 
DOCKED: ATOM     23  C   UNL     1      34.363  17.093 117.777 -0.11 -0.00    +0.000 A 
DOCKED: ATOM     24  N   UNL     1      34.438  15.889 117.163 -0.18 -0.00    +0.000 N 
DOCKED: ATOM     25  C   UNL     1      35.740  15.558 117.160 -0.19 -0.00    +0.000 A 
DOCKED: ATOM     26  C   UNL     1      36.500  16.534 117.757 -0.12 -0.00    +0.000 A 
DOCKED: ATOM     27  C   UNL     1      37.882  16.405 117.898 -0.10 -0.00    +0.000 A 
DOCKED: ATOM     28  C   UNL     1      38.487  15.237 117.398 -0.17 -0.00    +0.000 A 
DOCKED: ATOM     29  C   UNL     1      37.706  14.235 116.780 -0.30 -0.00    +0.000 A 
DOCKED: ATOM     30  C   UNL     1      36.313  14.391 116.657 -0.29 -0.00    +0.000 A 
DOCKED: ATOM     31  C   UNL     1      33.082  17.835 117.989 -0.19 -0.00    +0.000 C 
DOCKED: ATOM     32  H   UNL     1      33.691  15.365 116.793 -0.01 -0.00    +0.000 HD
DOCKED: ATOM     33  CM  UNL     1      35.306  16.503 117.587 +0.00 -0.00    +0.000 AC
DOCKED: ATOM     34  CM  UNL     1      37.104  15.393 117.275 +0.00 -0.00    +0.000 AC
DOCKED: ENDBRANCH  20  21
DOCKED: ENDBRANCH  19  20
DOCKED: ENDBRANCH   1  19
DOCKED: TORSDOF 8DOCKED: TER
DOCKED: ENDMDL
________________________________________________________________________________


	BEGINNING GENETIC ALGORITHM DOCKING 12 of 100
Run: 12 Seed: 721829162 1323196869 [ Run 12 of 100 GA/GALS ]
Beginning LAMARCKIAN GENETIC ALGORITHM (LGA), with a maximum of 2500000 energy evaluations.

Final-Value: -15.796


	FINAL GENETIC ALGORITHM DOCKED STATE
	_______________________________________________


Detailed state:  trans 35.977 16.834 122.889 quatxyzw -0.311929 0.326165 -0.594529 -0.665471 center 0.698 0.076 -0.072 ntor 8 13.4040 39.3187 89.1371 -165.4356 129.3988 160.9230 176.5733 13.1719
State:	 35.977  16.834 122.889  -0.418  0.437 -0.797 -96.563     13.40   39.32   89.14 -165.44  129.40  160.92  176.57   13.17

DOCKED: MODEL       12
DOCKED: USER    Run = 12
DOCKED: USER    DPF = ligand_dock.biased.dpf
DOCKED: USER  
DOCKED: USER    Estimated Free Energy of Binding    =  -10.89 kcal/mol  [=(1)+(2)+(3)-(4)]
DOCKED: USER    Estimated Inhibition Constant, Ki   =   10.44 nM (nanomolar)  [Temperature = 298.15 K]
DOCKED: USER    
DOCKED: USER    (1) Final Intermolecular Energy     =  -13.28 kcal/mol
DOCKED: USER        vdW + Hbond + desolv Energy     =  -13.28 kcal/mol
DOCKED: USER        Electrostatic Energy            =   +0.00 kcal/mol
DOCKED: USER    (2) Final Total Internal Energy     =   -2.52 kcal/mol
DOCKED: USER    (3) Torsional Free Energy           =   +2.39 kcal/mol
DOCKED: USER    (4) Unbound System's Energy  [=(2)] =   -2.52 kcal/mol
DOCKED: USER    
DOCKED: USER    
DOCKED: USER    NEWDPF move ligand.dum.pdbqt
DOCKED: USER    NEWDPF about 0.698000 0.076000 -0.072000
DOCKED: USER    NEWDPF tran0 35.976706 16.833952 122.889249
DOCKED: USER    NEWDPF quaternion0 -0.311929 0.326165 -0.594529 -0.665471
DOCKED: USER    NEWDPF axisangle0 -0.417898 0.436970 -0.796504 -96.563125
DOCKED: USER    NEWDPF quat0 -0.417898 0.436970 -0.796504 -96.563125
DOCKED: USER    NEWDPF dihe0 13.40 39.32 89.14 -165.44 129.40 160.92 176.57 13.17 
DOCKED: USER  keepresnum = 1 
DOCKED: USER  
DOCKED: REMARK  Name = 
DOCKED: REMARK  9 active torsions:
DOCKED: REMARK  status: ('A' for Active; 'I' for Inactive)
DOCKED: REMARK    1  A    between atoms: C_2  and  C_3
DOCKED: REMARK    2  A    between atoms: C_4  and  C_5
DOCKED: REMARK    3  A    between atoms: C_8  and  C_9
DOCKED: REMARK    4  A    between atoms: C_9  and  N_10
DOCKED: REMARK    5  A    between atoms: N_10  and  C_11
DOCKED: REMARK    6  A    between atoms: C_11  and  C_12
DOCKED: REMARK    7  A    between atoms: C_12  and  C_13
DOCKED: REMARK    8  A    between atoms: C_14  and  C_22
DOCKED: REMARK    9  A    between atoms: N_25  and  O_26
DOCKED: REMARK                            x       y       z     vdW  Elec       q    Type
DOCKED: REMARK                         _______ _______ _______ _____ _____    ______ ____
DOCKED: USER                              x       y       z     vdW  Elec       q    Type
DOCKED: USER                           _______ _______ _______ _____ _____    ______ ____
DOCKED: ROOT
DOCKED: ATOM      1  N   UNL     1      36.051  17.869 122.354 -0.20 -0.00    +0.000 N 
DOCKED: ATOM      2  H   UNL     1      35.131  17.748 121.931 -0.01 -0.00    +0.000 HD
DOCKED: ATOM      3  H   UNL     1      36.778  17.426 121.792 +0.00 -0.00    +0.000 HD
DOCKED: ENDROOT
DOCKED: BRANCH   1   4
DOCKED: ATOM      4  C   UNL     1      36.052  17.231 123.677 -0.31 -0.00    +0.000 C 
DOCKED: BRANCH   4   8
DOCKED: ATOM      5  C   UNL     1      36.790  12.984 123.317 -0.55 -0.00    +0.000 A 
DOCKED: ATOM      6  C   UNL     1      35.568  13.459 123.833 -0.40 -0.00    +0.000 A 
DOCKED: ATOM      7  C   UNL     1      35.330  14.832 123.942 -0.50 -0.00    +0.000 A 
DOCKED: ATOM      8  C   UNL     1      36.297  15.757 123.521 -0.36 -0.00    +0.000 A 
DOCKED: ATOM      9  C   UNL     1      37.515  15.289 123.004 -0.34 -0.00    +0.000 A 
DOCKED: ATOM     10  C   UNL     1      37.752  13.916 122.893 -0.45 -0.00    +0.000 A 
DOCKED: ATOM     11  CM  UNL     1      36.542  14.372 123.419 +0.00 -0.00    +0.000 AC
DOCKED: BRANCH   5  12
DOCKED: ATOM     12  C   UNL     1      36.445  10.729 122.314 -0.67 -0.00    +0.000 C 
DOCKED: ATOM     13  C   UNL     1      37.089  11.538 123.168 -0.64 -0.00    +0.000 C 
DOCKED: BRANCH  11  14
DOCKED: ATOM     14  O   UNL     1      37.034   8.849 121.027 -2.70 -0.00    +0.000 OA
DOCKED: ATOM     15  C   UNL     1      36.744   9.289 122.170 -0.71 -0.00    +0.000 C 
DOCKED: ATOM     16  N   UNL     1      36.690   8.379 123.278 -0.69 -0.00    +0.000 N 
DOCKED: ATOM     17  H   UNL     1      36.372   8.692 124.155 -0.32 -0.00    +0.000 HD
DOCKED: BRANCH  15  17
DOCKED: ATOM     18  O   UNL     1      37.076   7.090 123.118 -1.90 -0.00    +0.000 OA
DOCKED: ATOM     19  H   UNL     1      37.552   6.996 122.279 -0.27 -0.00    +0.000 HD
DOCKED: ENDBRANCH  15  17
DOCKED: ENDBRANCH  11  14
DOCKED: ENDBRANCH   5  12
DOCKED: ENDBRANCH   4   8
DOCKED: ENDBRANCH   1   4
DOCKED: BRANCH   1  19
DOCKED: ATOM     20  C   UNL     1      36.353  19.307 122.429 -0.19 -0.00    +0.000 C 
DOCKED: BRANCH  19  20
DOCKED: ATOM     21  C   UNL     1      37.821  19.617 122.089 -0.09 -0.00    +0.000 C 
DOCKED: BRANCH  20  21
DOCKED: ATOM     22  C   UNL     1      38.735  18.677 122.820 -0.09 -0.00    +0.000 A 
DOCKED: ATOM     23  C   UNL     1      39.053  18.684 124.180 -0.15 -0.00    +0.000 A 
DOCKED: ATOM     24  N   UNL     1      39.965  17.725 124.463 -0.27 -0.00    +0.000 N 
DOCKED: ATOM     25  C   UNL     1      40.245  17.127 123.292 -0.25 -0.00    +0.000 A 
DOCKED: ATOM     26  C   UNL     1      39.521  17.683 122.267 -0.12 -0.00    +0.000 A 
DOCKED: ATOM     27  C   UNL     1      39.659  17.247 120.949 -0.09 -0.00    +0.000 A 
DOCKED: ATOM     28  C   UNL     1      40.566  16.201 120.695 -0.17 -0.00    +0.000 A 
DOCKED: ATOM     29  C   UNL     1      41.307  15.625 121.750 -0.33 -0.00    +0.000 A 
DOCKED: ATOM     30  C   UNL     1      41.150  16.091 123.069 -0.36 -0.00    +0.000 A 
DOCKED: ATOM     31  C   UNL     1      38.461  19.592 125.210 -0.13 -0.00    +0.000 C 
DOCKED: ATOM     32  H   UNL     1      40.345  17.510 125.345 -0.04 -0.00    +0.000 HD
DOCKED: ATOM     33  CM  UNL     1      39.518  17.972 123.438 +0.00 -0.00    +0.000 AC
DOCKED: ATOM     34  CM  UNL     1      40.408  16.662 122.004 +0.00 -0.00    +0.000 AC
DOCKED: ENDBRANCH  20  21
DOCKED: ENDBRANCH  19  20
DOCKED: ENDBRANCH   1  19
DOCKED: TORSDOF 8DOCKED: TER
DOCKED: ENDMDL
________________________________________________________________________________


	BEGINNING GENETIC ALGORITHM DOCKING 13 of 100
Run: 13 Seed: 1828807809 1958412672 [ Run 13 of 100 GA/GALS ]
Beginning LAMARCKIAN GENETIC ALGORITHM (LGA), with a maximum of 2500000 energy evaluations.

Final-Value: -15.731


	FINAL GENETIC ALGORITHM DOCKED STATE
	_______________________________________________


Detailed state:  trans 37.096 17.110 123.318 quatxyzw -0.217027 0.270518 -0.613134 -0.709779 center 0.698 0.076 -0.072 ntor 8 6.1709 -111.4393 -141.8758 173.6942 130.9811 160.6079 -166.8925 -9.1921
State:	 37.096  17.110 123.318  -0.308  0.384 -0.870 -89.566      6.17 -111.44 -141.88  173.69  130.98  160.61 -166.89   -9.19

DOCKED: MODEL       13
DOCKED: USER    Run = 13
DOCKED: USER    DPF = ligand_dock.biased.dpf
DOCKED: USER  
DOCKED: USER    Estimated Free Energy of Binding    =  -11.01 kcal/mol  [=(1)+(2)+(3)-(4)]
DOCKED: USER    Estimated Inhibition Constant, Ki   =    8.49 nM (nanomolar)  [Temperature = 298.15 K]
DOCKED: USER    
DOCKED: USER    (1) Final Intermolecular Energy     =  -13.40 kcal/mol
DOCKED: USER        vdW + Hbond + desolv Energy     =  -13.40 kcal/mol
DOCKED: USER        Electrostatic Energy            =   +0.00 kcal/mol
DOCKED: USER    (2) Final Total Internal Energy     =   -2.33 kcal/mol
DOCKED: USER    (3) Torsional Free Energy           =   +2.39 kcal/mol
DOCKED: USER    (4) Unbound System's Energy  [=(2)] =   -2.33 kcal/mol
DOCKED: USER    
DOCKED: USER    
DOCKED: USER    NEWDPF move ligand.dum.pdbqt
DOCKED: USER    NEWDPF about 0.698000 0.076000 -0.072000
DOCKED: USER    NEWDPF tran0 37.096218 17.109900 123.318489
DOCKED: USER    NEWDPF quaternion0 -0.217027 0.270518 -0.613134 -0.709779
DOCKED: USER    NEWDPF axisangle0 -0.308090 0.384027 -0.870404 -89.566171
DOCKED: USER    NEWDPF quat0 -0.308090 0.384027 -0.870404 -89.566171
DOCKED: USER    NEWDPF dihe0 6.17 -111.44 -141.88 173.69 130.98 160.61 -166.89 -9.19 
DOCKED: USER  keepresnum = 1 
DOCKED: USER  
DOCKED: REMARK  Name = 
DOCKED: REMARK  9 active torsions:
DOCKED: REMARK  status: ('A' for Active; 'I' for Inactive)
DOCKED: REMARK    1  A    between atoms: C_2  and  C_3
DOCKED: REMARK    2  A    between atoms: C_4  and  C_5
DOCKED: REMARK    3  A    between atoms: C_8  and  C_9
DOCKED: REMARK    4  A    between atoms: C_9  and  N_10
DOCKED: REMARK    5  A    between atoms: N_10  and  C_11
DOCKED: REMARK    6  A    between atoms: C_11  and  C_12
DOCKED: REMARK    7  A    between atoms: C_12  and  C_13
DOCKED: REMARK    8  A    between atoms: C_14  and  C_22
DOCKED: REMARK    9  A    between atoms: N_25  and  O_26
DOCKED: REMARK                            x       y       z     vdW  Elec       q    Type
DOCKED: REMARK                         _______ _______ _______ _____ _____    ______ ____
DOCKED: USER                              x       y       z     vdW  Elec       q    Type
DOCKED: USER                           _______ _______ _______ _____ _____    ______ ____
DOCKED: ROOT
DOCKED: ATOM      1  N   UNL     1      37.280  18.182 122.893 -0.13 -0.00    +0.000 N 
DOCKED: ATOM      2  H   UNL     1      36.480  18.100 122.265 +0.00 -0.00    +0.000 HD
DOCKED: ATOM      3  H   UNL     1      38.119  17.776 122.478 +0.00 -0.00    +0.000 HD
DOCKED: ENDROOT
DOCKED: BRANCH   1   4
DOCKED: ATOM      4  C   UNL     1      36.988  17.446 124.130 -0.24 -0.00    +0.000 C 
DOCKED: BRANCH   4   8
DOCKED: ATOM      5  C   UNL     1      36.297  13.261 123.284 -0.53 -0.00    +0.000 A 
DOCKED: ATOM      6  C   UNL     1      35.273  14.061 123.831 -0.39 -0.00    +0.000 A 
DOCKED: ATOM      7  C   UNL     1      35.499  15.415 124.098 -0.45 -0.00    +0.000 A 
DOCKED: ATOM      8  C   UNL     1      36.739  16.000 123.805 -0.29 -0.00    +0.000 A 
DOCKED: ATOM      9  C   UNL     1      37.760  15.209 123.258 -0.30 -0.00    +0.000 A 
DOCKED: ATOM     10  C   UNL     1      37.535  13.855 122.989 -0.46 -0.00    +0.000 A 
DOCKED: ATOM     11  CM  UNL     1      36.517  14.633 123.545 +0.00 -0.00    +0.000 AC
DOCKED: BRANCH   5  12
DOCKED: ATOM     12  C   UNL     1      37.119  10.973 122.736 -0.54 -0.00    +0.000 C 
DOCKED: ATOM     13  C   UNL     1      36.107  11.823 122.970 -0.67 -0.00    +0.000 C 
DOCKED: BRANCH  11  14
DOCKED: ATOM     14  O   UNL     1      36.700   9.216 121.226 -2.62 -0.00    +0.000 OA
DOCKED: ATOM     15  C   UNL     1      36.926   9.542 122.421 -0.65 -0.00    +0.000 C 
DOCKED: ATOM     16  N   UNL     1      36.961   8.522 123.429 -0.67 -0.00    +0.000 N 
DOCKED: ATOM     17  H   UNL     1      37.039   8.772 124.378 -0.50 -0.00    +0.000 HD
DOCKED: BRANCH  15  17
DOCKED: ATOM     18  O   UNL     1      36.884   7.216 123.078 -1.97 -0.00    +0.000 OA
DOCKED: ATOM     19  H   UNL     1      36.909   7.138 122.112 -0.09 -0.00    +0.000 HD
DOCKED: ENDBRANCH  15  17
DOCKED: ENDBRANCH  11  14
DOCKED: ENDBRANCH   5  12
DOCKED: ENDBRANCH   4   8
DOCKED: ENDBRANCH   1   4
DOCKED: BRANCH   1  19
DOCKED: ATOM     20  C   UNL     1      37.544  19.608 123.142 -0.11 -0.00    +0.000 C 
DOCKED: BRANCH  19  20
DOCKED: ATOM     21  C   UNL     1      38.980  20.013 122.772 -0.05 -0.00    +0.000 C 
DOCKED: BRANCH  20  21
DOCKED: ATOM     22  C   UNL     1      39.958  18.998 123.291 -0.10 -0.00    +0.000 A 
DOCKED: ATOM     23  C   UNL     1      40.663  19.035 124.496 -0.18 -0.00    +0.000 A 
DOCKED: ATOM     24  N   UNL     1      41.504  17.979 124.590 -0.32 -0.00    +0.000 N 
DOCKED: ATOM     25  C   UNL     1      41.355  17.287 123.448 -0.31 -0.00    +0.000 A 
DOCKED: ATOM     26  C   UNL     1      40.427  17.880 122.628 -0.15 -0.00    +0.000 A 
DOCKED: ATOM     27  C   UNL     1      40.119  17.359 121.371 -0.10 -0.00    +0.000 A 
DOCKED: ATOM     28  C   UNL     1      40.785  16.189 120.963 -0.19 -0.00    +0.000 A 
DOCKED: ATOM     29  C   UNL     1      41.736  15.576 121.808 -0.36 -0.00    +0.000 A 
DOCKED: ATOM     30  C   UNL     1      42.031  16.128 123.069 -0.39 -0.00    +0.000 A 
DOCKED: ATOM     31  C   UNL     1      40.509  20.068 125.566 -0.13 -0.00    +0.000 C 
DOCKED: ATOM     32  H   UNL     1      42.102  17.762 125.342 -0.51 -0.00    +0.000 HD
DOCKED: ATOM     33  CM  UNL     1      40.805  18.228 123.719 +0.00 -0.00    +0.000 AC
DOCKED: ATOM     34  CM  UNL     1      41.076  16.736 122.215 +0.00 -0.00    +0.000 AC
DOCKED: ENDBRANCH  20  21
DOCKED: ENDBRANCH  19  20
DOCKED: ENDBRANCH   1  19
DOCKED: TORSDOF 8DOCKED: TER
DOCKED: ENDMDL
________________________________________________________________________________


	BEGINNING GENETIC ALGORITHM DOCKING 14 of 100
Run: 14 Seed: 1514029047 282190653 [ Run 14 of 100 GA/GALS ]
Beginning LAMARCKIAN GENETIC ALGORITHM (LGA), with a maximum of 2500000 energy evaluations.

Final-Value: -14.888


	FINAL GENETIC ALGORITHM DOCKED STATE
	_______________________________________________


Detailed state:  trans 37.081 17.354 124.034 quatxyzw 0.093122 -0.825256 -0.491088 -0.262894 center 0.698 0.076 -0.072 ntor 8 -1.4068 -121.8229 -99.1025 -175.7452 -163.8976 -6.7282 -141.6343 -55.4989
State:	 37.081  17.354 124.034   0.097 -0.855 -0.509 -149.516     -1.41 -121.82  -99.10 -175.75 -163.90   -6.73 -141.63  -55.50

DOCKED: MODEL       14
DOCKED: USER    Run = 14
DOCKED: USER    DPF = ligand_dock.biased.dpf
DOCKED: USER  
DOCKED: USER    Estimated Free Energy of Binding    =  -10.82 kcal/mol  [=(1)+(2)+(3)-(4)]
DOCKED: USER    Estimated Inhibition Constant, Ki   =   11.75 nM (nanomolar)  [Temperature = 298.15 K]
DOCKED: USER    
DOCKED: USER    (1) Final Intermolecular Energy     =  -13.20 kcal/mol
DOCKED: USER        vdW + Hbond + desolv Energy     =  -13.20 kcal/mol
DOCKED: USER        Electrostatic Energy            =   +0.00 kcal/mol
DOCKED: USER    (2) Final Total Internal Energy     =   -1.68 kcal/mol
DOCKED: USER    (3) Torsional Free Energy           =   +2.39 kcal/mol
DOCKED: USER    (4) Unbound System's Energy  [=(2)] =   -1.68 kcal/mol
DOCKED: USER    
DOCKED: USER    
DOCKED: USER    NEWDPF move ligand.dum.pdbqt
DOCKED: USER    NEWDPF about 0.698000 0.076000 -0.072000
DOCKED: USER    NEWDPF tran0 37.080673 17.354381 124.034035
DOCKED: USER    NEWDPF quaternion0 0.093122 -0.825256 -0.491088 -0.262894
DOCKED: USER    NEWDPF axisangle0 0.096517 -0.855343 -0.508992 -149.516295
DOCKED: USER    NEWDPF quat0 0.096517 -0.855343 -0.508992 -149.516295
DOCKED: USER    NEWDPF dihe0 -1.41 -121.82 -99.10 -175.75 -163.90 -6.73 -141.63 -55.50 
DOCKED: USER  keepresnum = 1 
DOCKED: USER  
DOCKED: REMARK  Name = 
DOCKED: REMARK  9 active torsions:
DOCKED: REMARK  status: ('A' for Active; 'I' for Inactive)
DOCKED: REMARK    1  A    between atoms: C_2  and  C_3
DOCKED: REMARK    2  A    between atoms: C_4  and  C_5
DOCKED: REMARK    3  A    between atoms: C_8  and  C_9
DOCKED: REMARK    4  A    between atoms: C_9  and  N_10
DOCKED: REMARK    5  A    between atoms: N_10  and  C_11
DOCKED: REMARK    6  A    between atoms: C_11  and  C_12
DOCKED: REMARK    7  A    between atoms: C_12  and  C_13
DOCKED: REMARK    8  A    between atoms: C_14  and  C_22
DOCKED: REMARK    9  A    between atoms: N_25  and  O_26
DOCKED: REMARK                            x       y       z     vdW  Elec       q    Type
DOCKED: REMARK                         _______ _______ _______ _____ _____    ______ ____
DOCKED: USER                              x       y       z     vdW  Elec       q    Type
DOCKED: USER                           _______ _______ _______ _____ _____    ______ ____
DOCKED: ROOT
DOCKED: ATOM      1  N   UNL     1      38.097  17.876 124.277 -0.20 -0.00    +0.000 N 
DOCKED: ATOM      2  H   UNL     1      38.536  16.981 124.496 -0.02 -0.00    +0.000 HD
DOCKED: ATOM      3  H   UNL     1      37.606  18.256 125.086 -0.01 -0.00    +0.000 HD
DOCKED: ENDROOT
DOCKED: BRANCH   1   4
DOCKED: ATOM      4  C   UNL     1      37.111  17.670 123.208 -0.21 -0.00    +0.000 C 
DOCKED: BRANCH   4   8
DOCKED: ATOM      5  C   UNL     1      36.436  13.418 122.792 -0.45 -0.00    +0.000 A 
DOCKED: ATOM      6  C   UNL     1      35.872  14.132 123.867 -0.49 -0.00    +0.000 A 
DOCKED: ATOM      7  C   UNL     1      36.087  15.507 123.996 -0.36 -0.00    +0.000 A 
DOCKED: ATOM      8  C   UNL     1      36.851  16.199 123.044 -0.28 -0.00    +0.000 A 
DOCKED: ATOM      9  C   UNL     1      37.412  15.493 121.969 -0.26 -0.00    +0.000 A 
DOCKED: ATOM     10  C   UNL     1      37.196  14.118 121.840 -0.35 -0.00    +0.000 A 
DOCKED: ATOM     11  CM  UNL     1      36.643  14.811 122.918 +0.00 -0.00    +0.000 AC
DOCKED: BRANCH   5  12
DOCKED: ATOM     12  C   UNL     1      37.229  11.068 122.543 -0.38 -0.00    +0.000 C 
DOCKED: ATOM     13  C   UNL     1      36.229  11.961 122.601 -0.62 -0.00    +0.000 C 
DOCKED: BRANCH  11  14
DOCKED: ATOM     14  O   UNL     1      36.693   9.207 121.206 -2.63 -0.00    +0.000 OA
DOCKED: ATOM     15  C   UNL     1      37.018   9.618 122.351 -0.61 -0.00    +0.000 C 
DOCKED: ATOM     16  N   UNL     1      37.146   8.674 123.424 -0.63 -0.00    +0.000 N 
DOCKED: ATOM     17  H   UNL     1      37.305   8.993 124.341 -0.57 -0.00    +0.000 HD
DOCKED: BRANCH  15  17
DOCKED: ATOM     18  O   UNL     1      37.048   7.346 123.176 -2.14 -0.00    +0.000 OA
DOCKED: ATOM     19  H   UNL     1      36.870   7.204 122.233 -0.07 -0.00    +0.000 HD
DOCKED: ENDBRANCH  15  17
DOCKED: ENDBRANCH  11  14
DOCKED: ENDBRANCH   5  12
DOCKED: ENDBRANCH   4   8
DOCKED: ENDBRANCH   1   4
DOCKED: BRANCH   1  19
DOCKED: ATOM     20  C   UNL     1      39.144  18.835 123.891 -0.15 -0.00    +0.000 C 
DOCKED: BRANCH  19  20
DOCKED: ATOM     21  C   UNL     1      39.553  19.755 125.054 -0.12 -0.00    +0.000 C 
DOCKED: BRANCH  20  21
DOCKED: ATOM     22  C   UNL     1      39.158  19.144 126.367 -0.17 -0.00    +0.000 A 
DOCKED: ATOM     23  C   UNL     1      37.914  19.213 126.998 -0.13 -0.00    +0.000 A 
DOCKED: ATOM     24  N   UNL     1      37.953  18.597 128.202 -0.17 -0.00    +0.000 N 
DOCKED: ATOM     25  C   UNL     1      39.215  18.159 128.349 -0.20 -0.00    +0.000 A 
DOCKED: ATOM     26  C   UNL     1      39.981  18.478 127.256 -0.27 -0.00    +0.000 A 
DOCKED: ATOM     27  C   UNL     1      41.335  18.151 127.187 -0.38 -0.00    +0.000 A 
DOCKED: ATOM     28  C   UNL     1      41.902  17.467 128.278 -0.47 -0.00    +0.000 A 
DOCKED: ATOM     29  C   UNL     1      41.113  17.133 129.401 -0.33 -0.00    +0.000 A 
DOCKED: ATOM     30  C   UNL     1      39.751  17.482 129.445 -0.36 -0.00    +0.000 A 
DOCKED: ATOM     31  C   UNL     1      36.682  19.846 126.432 -0.13 -0.00    +0.000 C 
DOCKED: ATOM     32  H   UNL     1      37.209  18.491 128.839 -0.01 -0.00    +0.000 HD
DOCKED: ATOM     33  CM  UNL     1      38.815  18.714 127.459 +0.00 -0.00    +0.000 AC
DOCKED: ATOM     34  CM  UNL     1      40.549  17.812 128.320 +0.00 -0.00    +0.000 AC
DOCKED: ENDBRANCH  20  21
DOCKED: ENDBRANCH  19  20
DOCKED: ENDBRANCH   1  19
DOCKED: TORSDOF 8DOCKED: TER
DOCKED: ENDMDL
________________________________________________________________________________


	BEGINNING GENETIC ALGORITHM DOCKING 15 of 100
Run: 15 Seed: 1451934554 896883800 [ Run 15 of 100 GA/GALS ]
Beginning LAMARCKIAN GENETIC ALGORITHM (LGA), with a maximum of 2500000 energy evaluations.

Final-Value: -16.255


	FINAL GENETIC ALGORITHM DOCKED STATE
	_______________________________________________


Detailed state:  trans 36.052 17.630 122.317 quatxyzw 0.349285 0.357796 -0.667702 -0.551503 center 0.698 0.076 -0.072 ntor 8 18.0865 -8.6235 -16.2794 156.5341 90.9262 -141.5691 -102.5583 78.6129
State:	 36.052  17.630 122.317   0.419  0.429 -0.800 -113.060     18.09   -8.62  -16.28  156.53   90.93 -141.57 -102.56   78.61

DOCKED: MODEL       15
DOCKED: USER    Run = 15
DOCKED: USER    DPF = ligand_dock.biased.dpf
DOCKED: USER  
DOCKED: USER    Estimated Free Energy of Binding    =  -11.80 kcal/mol  [=(1)+(2)+(3)-(4)]
DOCKED: USER    Estimated Inhibition Constant, Ki   =    2.26 nM (nanomolar)  [Temperature = 298.15 K]
DOCKED: USER    
DOCKED: USER    (1) Final Intermolecular Energy     =  -14.18 kcal/mol
DOCKED: USER        vdW + Hbond + desolv Energy     =  -14.18 kcal/mol
DOCKED: USER        Electrostatic Energy            =   +0.00 kcal/mol
DOCKED: USER    (2) Final Total Internal Energy     =   -2.07 kcal/mol
DOCKED: USER    (3) Torsional Free Energy           =   +2.39 kcal/mol
DOCKED: USER    (4) Unbound System's Energy  [=(2)] =   -2.07 kcal/mol
DOCKED: USER    
DOCKED: USER    
DOCKED: USER    NEWDPF move ligand.dum.pdbqt
DOCKED: USER    NEWDPF about 0.698000 0.076000 -0.072000
DOCKED: USER    NEWDPF tran0 36.051938 17.630102 122.317278
DOCKED: USER    NEWDPF quaternion0 0.349285 0.357796 -0.667702 -0.551503
DOCKED: USER    NEWDPF axisangle0 0.418721 0.428923 -0.800436 -113.059570
DOCKED: USER    NEWDPF quat0 0.418721 0.428923 -0.800436 -113.059570
DOCKED: USER    NEWDPF dihe0 18.09 -8.62 -16.28 156.53 90.93 -141.57 -102.56 78.61 
DOCKED: USER  keepresnum = 1 
DOCKED: USER  
DOCKED: REMARK  Name = 
DOCKED: REMARK  9 active torsions:
DOCKED: REMARK  status: ('A' for Active; 'I' for Inactive)
DOCKED: REMARK    1  A    between atoms: C_2  and  C_3
DOCKED: REMARK    2  A    between atoms: C_4  and  C_5
DOCKED: REMARK    3  A    between atoms: C_8  and  C_9
DOCKED: REMARK    4  A    between atoms: C_9  and  N_10
DOCKED: REMARK    5  A    between atoms: N_10  and  C_11
DOCKED: REMARK    6  A    between atoms: C_11  and  C_12
DOCKED: REMARK    7  A    between atoms: C_12  and  C_13
DOCKED: REMARK    8  A    between atoms: C_14  and  C_22
DOCKED: REMARK    9  A    between atoms: N_25  and  O_26
DOCKED: REMARK                            x       y       z     vdW  Elec       q    Type
DOCKED: REMARK                         _______ _______ _______ _____ _____    ______ ____
DOCKED: USER                              x       y       z     vdW  Elec       q    Type
DOCKED: USER                           _______ _______ _______ _____ _____    ______ ____
DOCKED: ROOT
DOCKED: ATOM      1  N   UNL     1      36.783  18.231 123.002 -0.15 -0.00    +0.000 N 
DOCKED: ATOM      2  H   UNL     1      36.632  19.084 122.461 +0.00 -0.00    +0.000 HD
DOCKED: ATOM      3  H   UNL     1      37.509  17.651 122.584 +0.00 -0.00    +0.000 HD
DOCKED: ENDROOT
DOCKED: BRANCH   1   4
DOCKED: ATOM      4  C   UNL     1      35.537  17.454 123.015 -0.32 -0.00    +0.000 C 
DOCKED: BRANCH   4   8
DOCKED: ATOM      5  C   UNL     1      36.397  13.215 123.089 -0.52 -0.00    +0.000 A 
DOCKED: ATOM      6  C   UNL     1      36.871  14.025 122.037 -0.32 -0.00    +0.000 A 
DOCKED: ATOM      7  C   UNL     1      36.596  15.396 122.020 -0.21 -0.00    +0.000 A 
DOCKED: ATOM      8  C   UNL     1      35.862  15.987 123.059 -0.34 -0.00    +0.000 A 
DOCKED: ATOM      9  C   UNL     1      35.391  15.185 124.109 -0.48 -0.00    +0.000 A 
DOCKED: ATOM     10  C   UNL     1      35.667  13.815 124.128 -0.35 -0.00    +0.000 A 
DOCKED: ATOM     11  CM  UNL     1      36.130  14.604 123.073 +0.00 -0.00    +0.000 AC
DOCKED: BRANCH   5  12
DOCKED: ATOM     12  C   UNL     1      36.670  10.946 122.095 -0.63 -0.00    +0.000 C 
DOCKED: ATOM     13  C   UNL     1      36.670  11.758 123.163 -0.69 -0.00    +0.000 C 
DOCKED: BRANCH  11  14
DOCKED: ATOM     14  O   UNL     1      37.057   8.848 121.101 -2.70 -0.00    +0.000 OA
DOCKED: ATOM     15  C   UNL     1      36.940   9.495 122.174 -0.65 -0.00    +0.000 C 
DOCKED: ATOM     16  N   UNL     1      37.047   8.800 123.425 -0.62 -0.00    +0.000 N 
DOCKED: ATOM     17  H   UNL     1      36.862   9.275 124.267 -0.47 -0.00    +0.000 HD
DOCKED: BRANCH  15  17
DOCKED: ATOM     18  O   UNL     1      37.401   7.493 123.449 -2.07 -0.00    +0.000 OA
DOCKED: ATOM     19  H   UNL     1      37.816   7.254 122.605 -0.35 -0.00    +0.000 HD
DOCKED: ENDBRANCH  15  17
DOCKED: ENDBRANCH  11  14
DOCKED: ENDBRANCH   5  12
DOCKED: ENDBRANCH   4   8
DOCKED: ENDBRANCH   1   4
DOCKED: BRANCH   1  19
DOCKED: ATOM     20  C   UNL     1      37.222  18.601 124.357 -0.18 -0.00    +0.000 C 
DOCKED: BRANCH  19  20
DOCKED: ATOM     21  C   UNL     1      38.521  19.424 124.348 -0.12 -0.00    +0.000 C 
DOCKED: BRANCH  20  21
DOCKED: ATOM     22  C   UNL     1      39.715  18.514 124.305 -0.18 -0.00    +0.000 A 
DOCKED: ATOM     23  C   UNL     1      40.661  18.303 125.311 -0.30 -0.00    +0.000 A 
DOCKED: ATOM     24  N   UNL     1      41.633  17.464 124.885 -0.27 -0.00    +0.000 N 
DOCKED: ATOM     25  C   UNL     1      41.324  17.160 123.613 -0.31 -0.00    +0.000 A 
DOCKED: ATOM     26  C   UNL     1      40.167  17.785 123.221 -0.19 -0.00    +0.000 A 
DOCKED: ATOM     27  C   UNL     1      39.656  17.644 121.930 -0.11 -0.00    +0.000 A 
DOCKED: ATOM     28  C   UNL     1      40.363  16.825 121.030 -0.13 -0.00    +0.000 A 
DOCKED: ATOM     29  C   UNL     1      41.551  16.177 121.435 -0.25 -0.00    +0.000 A 
DOCKED: ATOM     30  C   UNL     1      42.045  16.343 122.742 -0.40 -0.00    +0.000 A 
DOCKED: ATOM     31  C   UNL     1      40.615  18.886 126.688 -0.30 -0.00    +0.000 C 
DOCKED: ATOM     32  H   UNL     1      42.407  17.142 125.402 -0.55 -0.00    +0.000 HD
DOCKED: ATOM     33  CM  UNL     1      40.729  17.833 124.287 +0.00 -0.00    +0.000 AC
DOCKED: ATOM     34  CM  UNL     1      40.851  16.989 122.329 +0.00 -0.00    +0.000 AC
DOCKED: ENDBRANCH  20  21
DOCKED: ENDBRANCH  19  20
DOCKED: ENDBRANCH   1  19
DOCKED: TORSDOF 8DOCKED: TER
DOCKED: ENDMDL
________________________________________________________________________________


	BEGINNING GENETIC ALGORITHM DOCKING 16 of 100
Run: 16 Seed: 1377861224 1505262834 [ Run 16 of 100 GA/GALS ]
Beginning LAMARCKIAN GENETIC ALGORITHM (LGA), with a maximum of 2500000 energy evaluations.

Final-Value: -15.744


	FINAL GENETIC ALGORITHM DOCKED STATE
	_______________________________________________


Detailed state:  trans 37.523 17.023 123.804 quatxyzw 0.220078 -0.410256 -0.638859 -0.612467 center 0.698 0.076 -0.072 ntor 8 7.4793 -24.7788 149.2942 -36.7477 -108.4026 56.3090 179.9441 -10.6823
State:	 37.523  17.023 123.804   0.278 -0.519 -0.808 -104.464      7.48  -24.78  149.29  -36.75 -108.40   56.31  179.94  -10.68

DOCKED: MODEL       16
DOCKED: USER    Run = 16
DOCKED: USER    DPF = ligand_dock.biased.dpf
DOCKED: USER  
DOCKED: USER    Estimated Free Energy of Binding    =  -11.69 kcal/mol  [=(1)+(2)+(3)-(4)]
DOCKED: USER    Estimated Inhibition Constant, Ki   =    2.72 nM (nanomolar)  [Temperature = 298.15 K]
DOCKED: USER    
DOCKED: USER    (1) Final Intermolecular Energy     =  -14.07 kcal/mol
DOCKED: USER        vdW + Hbond + desolv Energy     =  -14.07 kcal/mol
DOCKED: USER        Electrostatic Energy            =   +0.00 kcal/mol
DOCKED: USER    (2) Final Total Internal Energy     =   -1.67 kcal/mol
DOCKED: USER    (3) Torsional Free Energy           =   +2.39 kcal/mol
DOCKED: USER    (4) Unbound System's Energy  [=(2)] =   -1.67 kcal/mol
DOCKED: USER    
DOCKED: USER    
DOCKED: USER    NEWDPF move ligand.dum.pdbqt
DOCKED: USER    NEWDPF about 0.698000 0.076000 -0.072000
DOCKED: USER    NEWDPF tran0 37.522748 17.022579 123.803778
DOCKED: USER    NEWDPF quaternion0 0.220078 -0.410256 -0.638859 -0.612467
DOCKED: USER    NEWDPF axisangle0 0.278405 -0.518985 -0.808174 -104.463847
DOCKED: USER    NEWDPF quat0 0.278405 -0.518985 -0.808174 -104.463847
DOCKED: USER    NEWDPF dihe0 7.48 -24.78 149.29 -36.75 -108.40 56.31 179.94 -10.68 
DOCKED: USER  keepresnum = 1 
DOCKED: USER  
DOCKED: REMARK  Name = 
DOCKED: REMARK  9 active torsions:
DOCKED: REMARK  status: ('A' for Active; 'I' for Inactive)
DOCKED: REMARK    1  A    between atoms: C_2  and  C_3
DOCKED: REMARK    2  A    between atoms: C_4  and  C_5
DOCKED: REMARK    3  A    between atoms: C_8  and  C_9
DOCKED: REMARK    4  A    between atoms: C_9  and  N_10
DOCKED: REMARK    5  A    between atoms: N_10  and  C_11
DOCKED: REMARK    6  A    between atoms: C_11  and  C_12
DOCKED: REMARK    7  A    between atoms: C_12  and  C_13
DOCKED: REMARK    8  A    between atoms: C_14  and  C_22
DOCKED: REMARK    9  A    between atoms: N_25  and  O_26
DOCKED: REMARK                            x       y       z     vdW  Elec       q    Type
DOCKED: REMARK                         _______ _______ _______ _____ _____    ______ ____
DOCKED: USER                              x       y       z     vdW  Elec       q    Type
DOCKED: USER                           _______ _______ _______ _____ _____    ______ ____
DOCKED: ROOT
DOCKED: ATOM      1  N   UNL     1      38.200  17.968 123.912 -0.19 -0.00    +0.000 N 
DOCKED: ATOM      2  H   UNL     1      38.840  17.626 123.195 -0.00 -0.00    +0.000 HD
DOCKED: ATOM      3  H   UNL     1      38.432  17.586 124.829 -0.02 -0.00    +0.000 HD
DOCKED: ENDROOT
DOCKED: BRANCH   1   4
DOCKED: ATOM      4  C   UNL     1      36.838  17.535 123.576 -0.24 -0.00    +0.000 C 
DOCKED: BRANCH   4   8
DOCKED: ATOM      5  C   UNL     1      36.763  13.213 123.403 -0.54 -0.00    +0.000 A 
DOCKED: ATOM      6  C   UNL     1      35.707  13.925 124.006 -0.43 -0.00    +0.000 A 
DOCKED: ATOM      7  C   UNL     1      35.732  15.322 124.054 -0.43 -0.00    +0.000 A 
DOCKED: ATOM      8  C   UNL     1      36.797  16.035 123.486 -0.31 -0.00    +0.000 A 
DOCKED: ATOM      9  C   UNL     1      37.850  15.331 122.883 -0.33 -0.00    +0.000 A 
DOCKED: ATOM     10  C   UNL     1      37.825  13.934 122.832 -0.45 -0.00    +0.000 A 
DOCKED: ATOM     11  CM  UNL     1      36.779  14.626 123.444 +0.00 -0.00    +0.000 AC
DOCKED: BRANCH   5  12
DOCKED: ATOM     12  C   UNL     1      36.956  11.058 122.166 -0.58 -0.00    +0.000 C 
DOCKED: ATOM     13  C   UNL     1      36.781  11.732 123.313 -0.69 -0.00    +0.000 C 
DOCKED: BRANCH  11  14
DOCKED: ATOM     14  O   UNL     1      36.975   9.049 120.941 -2.70 -0.00    +0.000 OA
DOCKED: ATOM     15  C   UNL     1      36.971   9.583 122.081 -0.63 -0.00    +0.000 C 
DOCKED: ATOM     16  N   UNL     1      36.954   8.746 123.246 -0.66 -0.00    +0.000 N 
DOCKED: ATOM     17  H   UNL     1      36.853   9.148 124.138 -0.50 -0.00    +0.000 HD
DOCKED: BRANCH  15  17
DOCKED: ATOM     18  O   UNL     1      37.076   7.402 123.120 -2.18 -0.00    +0.000 OA
DOCKED: ATOM     19  H   UNL     1      37.284   7.181 122.199 -0.14 -0.00    +0.000 HD
DOCKED: ENDBRANCH  15  17
DOCKED: ENDBRANCH  11  14
DOCKED: ENDBRANCH   5  12
DOCKED: ENDBRANCH   4   8
DOCKED: ENDBRANCH   1   4
DOCKED: BRANCH   1  19
DOCKED: ATOM     20  C   UNL     1      38.315  19.432 123.990 -0.11 -0.00    +0.000 C 
DOCKED: BRANCH  19  20
DOCKED: ATOM     21  C   UNL     1      38.352  19.942 125.441 -0.11 -0.00    +0.000 C 
DOCKED: BRANCH  20  21
DOCKED: ATOM     22  C   UNL     1      39.697  19.676 126.053 -0.13 -0.00    +0.000 A 
DOCKED: ATOM     23  C   UNL     1      40.946  20.068 125.565 -0.13 -0.00    +0.000 A 
DOCKED: ATOM     24  N   UNL     1      41.938  19.588 126.351 -0.12 -0.00    +0.000 N 
DOCKED: ATOM     25  C   UNL     1      41.330  18.879 127.317 -0.30 -0.00    +0.000 A 
DOCKED: ATOM     26  C   UNL     1      39.967  18.903 127.166 -0.23 -0.00    +0.000 A 
DOCKED: ATOM     27  C   UNL     1      39.119  18.214 128.034 -0.14 -0.00    +0.000 A 
DOCKED: ATOM     28  C   UNL     1      39.705  17.492 129.090 -0.36 -0.00    +0.000 A 
DOCKED: ATOM     29  C   UNL     1      41.109  17.471 129.249 -0.43 -0.00    +0.000 A 
DOCKED: ATOM     30  C   UNL     1      41.939  18.171 128.354 -0.42 -0.00    +0.000 A 
DOCKED: ATOM     31  C   UNL     1      41.184  20.924 124.362 -0.07 -0.00    +0.000 C 
DOCKED: ATOM     32  H   UNL     1      42.906  19.731 126.238 -0.51 -0.00    +0.000 HD
DOCKED: ATOM     33  CM  UNL     1      40.813  19.428 126.486 +0.00 -0.00    +0.000 AC
DOCKED: ATOM     34  CM  UNL     1      40.529  18.188 128.202 +0.00 -0.00    +0.000 AC
DOCKED: ENDBRANCH  20  21
DOCKED: ENDBRANCH  19  20
DOCKED: ENDBRANCH   1  19
DOCKED: TORSDOF 8DOCKED: TER
DOCKED: ENDMDL
________________________________________________________________________________


	BEGINNING GENETIC ALGORITHM DOCKING 17 of 100
Run: 17 Seed: 1037390552 1750497249 [ Run 17 of 100 GA/GALS ]
Beginning LAMARCKIAN GENETIC ALGORITHM (LGA), with a maximum of 2500000 energy evaluations.

Final-Value: -16.401


	FINAL GENETIC ALGORITHM DOCKED STATE
	_______________________________________________


Detailed state:  trans 36.751 16.939 124.182 quatxyzw 0.176899 -0.608675 -0.492648 -0.596254 center 0.698 0.076 -0.072 ntor 8 20.7010 48.5031 84.1326 144.8613 -161.6656 54.3365 -89.9755 -41.0532
State:	 36.751  16.939 124.182   0.220 -0.758 -0.614 -106.796     20.70   48.50   84.13  144.86 -161.67   54.34  -89.98  -41.05

DOCKED: MODEL       17
DOCKED: USER    Run = 17
DOCKED: USER    DPF = ligand_dock.biased.dpf
DOCKED: USER  
DOCKED: USER    Estimated Free Energy of Binding    =  -11.80 kcal/mol  [=(1)+(2)+(3)-(4)]
DOCKED: USER    Estimated Inhibition Constant, Ki   =    2.23 nM (nanomolar)  [Temperature = 298.15 K]
DOCKED: USER    
DOCKED: USER    (1) Final Intermolecular Energy     =  -14.19 kcal/mol
DOCKED: USER        vdW + Hbond + desolv Energy     =  -14.19 kcal/mol
DOCKED: USER        Electrostatic Energy            =   +0.00 kcal/mol
DOCKED: USER    (2) Final Total Internal Energy     =   -2.21 kcal/mol
DOCKED: USER    (3) Torsional Free Energy           =   +2.39 kcal/mol
DOCKED: USER    (4) Unbound System's Energy  [=(2)] =   -2.21 kcal/mol
DOCKED: USER    
DOCKED: USER    
DOCKED: USER    NEWDPF move ligand.dum.pdbqt
DOCKED: USER    NEWDPF about 0.698000 0.076000 -0.072000
DOCKED: USER    NEWDPF tran0 36.751159 16.939400 124.182296
DOCKED: USER    NEWDPF quaternion0 0.176899 -0.608675 -0.492648 -0.596254
DOCKED: USER    NEWDPF axisangle0 0.220354 -0.758194 -0.613666 -106.795847
DOCKED: USER    NEWDPF quat0 0.220354 -0.758194 -0.613666 -106.795847
DOCKED: USER    NEWDPF dihe0 20.70 48.50 84.13 144.86 -161.67 54.34 -89.98 -41.05 
DOCKED: USER  keepresnum = 1 
DOCKED: USER  
DOCKED: REMARK  Name = 
DOCKED: REMARK  9 active torsions:
DOCKED: REMARK  status: ('A' for Active; 'I' for Inactive)
DOCKED: REMARK    1  A    between atoms: C_2  and  C_3
DOCKED: REMARK    2  A    between atoms: C_4  and  C_5
DOCKED: REMARK    3  A    between atoms: C_8  and  C_9
DOCKED: REMARK    4  A    between atoms: C_9  and  N_10
DOCKED: REMARK    5  A    between atoms: N_10  and  C_11
DOCKED: REMARK    6  A    between atoms: C_11  and  C_12
DOCKED: REMARK    7  A    between atoms: C_12  and  C_13
DOCKED: REMARK    8  A    between atoms: C_14  and  C_22
DOCKED: REMARK    9  A    between atoms: N_25  and  O_26
DOCKED: REMARK                            x       y       z     vdW  Elec       q    Type
DOCKED: REMARK                         _______ _______ _______ _____ _____    ______ ____
DOCKED: USER                              x       y       z     vdW  Elec       q    Type
DOCKED: USER                           _______ _______ _______ _____ _____    ______ ____
DOCKED: ROOT
DOCKED: ATOM      1  N   UNL     1      37.396  17.906 124.058 -0.20 -0.00    +0.000 N 
DOCKED: ATOM      2  H   UNL     1      38.195  17.363 123.730 -0.01 -0.00    +0.000 HD
DOCKED: ATOM      3  H   UNL     1      37.369  17.946 125.077 -0.02 -0.00    +0.000 HD
DOCKED: ENDROOT
DOCKED: BRANCH   1   4
DOCKED: ATOM      4  C   UNL     1      36.162  17.253 123.601 -0.30 -0.00    +0.000 C 
DOCKED: BRANCH   4   8
DOCKED: ATOM      5  C   UNL     1      36.897  13.005 123.247 -0.55 -0.00    +0.000 A 
DOCKED: ATOM      6  C   UNL     1      35.707  13.481 123.833 -0.45 -0.00    +0.000 A 
DOCKED: ATOM      7  C   UNL     1      35.470  14.854 123.940 -0.49 -0.00    +0.000 A 
DOCKED: ATOM      8  C   UNL     1      36.404  15.777 123.448 -0.35 -0.00    +0.000 A 
DOCKED: ATOM      9  C   UNL     1      37.589  15.309 122.861 -0.33 -0.00    +0.000 A 
DOCKED: ATOM     10  C   UNL     1      37.825  13.935 122.752 -0.44 -0.00    +0.000 A 
DOCKED: ATOM     11  CM  UNL     1      36.649  14.393 123.347 +0.00 -0.00    +0.000 AC
DOCKED: BRANCH   5  12
DOCKED: ATOM     12  C   UNL     1      36.442  10.717 122.370 -0.67 -0.00    +0.000 C 
DOCKED: ATOM     13  C   UNL     1      37.193  11.558 123.097 -0.57 -0.00    +0.000 C 
DOCKED: BRANCH  11  14
DOCKED: ATOM     14  O   UNL     1      37.037   8.838 121.083 -2.69 -0.00    +0.000 OA
DOCKED: ATOM     15  C   UNL     1      36.739   9.276 122.225 -0.71 -0.00    +0.000 C 
DOCKED: ATOM     16  N   UNL     1      36.674   8.363 123.330 -0.69 -0.00    +0.000 N 
DOCKED: ATOM     17  H   UNL     1      36.349   8.675 124.206 -0.32 -0.00    +0.000 HD
DOCKED: BRANCH  15  17
DOCKED: ATOM     18  O   UNL     1      37.057   7.074 123.171 -1.88 -0.00    +0.000 OA
DOCKED: ATOM     19  H   UNL     1      37.637   7.002 122.396 -0.33 -0.00    +0.000 HD
DOCKED: ENDBRANCH  15  17
DOCKED: ENDBRANCH  11  14
DOCKED: ENDBRANCH   5  12
DOCKED: ENDBRANCH   4   8
DOCKED: ENDBRANCH   1   4
DOCKED: BRANCH   1  19
DOCKED: ATOM     20  C   UNL     1      37.517  19.282 123.553 -0.12 -0.00    +0.000 C 
DOCKED: BRANCH  19  20
DOCKED: ATOM     21  C   UNL     1      38.929  19.858 123.753 -0.07 -0.00    +0.000 C 
DOCKED: BRANCH  20  21
DOCKED: ATOM     22  C   UNL     1      39.929  18.747 123.896 -0.15 -0.00    +0.000 A 
DOCKED: ATOM     23  C   UNL     1      40.813  18.529 124.956 -0.27 -0.00    +0.000 A 
DOCKED: ATOM     24  N   UNL     1      41.611  17.466 124.702 -0.32 -0.00    +0.000 N 
DOCKED: ATOM     25  C   UNL     1      41.257  17.023 123.483 -0.32 -0.00    +0.000 A 
DOCKED: ATOM     26  C   UNL     1      40.241  17.782 122.957 -0.17 -0.00    +0.000 A 
DOCKED: ATOM     27  C   UNL     1      39.719  17.532 121.688 -0.10 -0.00    +0.000 A 
DOCKED: ATOM     28  C   UNL     1      40.262  16.461 120.954 -0.16 -0.00    +0.000 A 
DOCKED: ATOM     29  C   UNL     1      41.304  15.677 121.497 -0.29 -0.00    +0.000 A 
DOCKED: ATOM     30  C   UNL     1      41.814  15.957 122.778 -0.42 -0.00    +0.000 A 
DOCKED: ATOM     31  C   UNL     1      40.872  19.325 126.221 -0.24 -0.00    +0.000 C 
DOCKED: ATOM     32  H   UNL     1      42.307  17.094 125.290 -0.55 -0.00    +0.000 HD
DOCKED: ATOM     33  CM  UNL     1      40.797  17.896 124.022 +0.00 -0.00    +0.000 AC
DOCKED: ATOM     34  CM  UNL     1      40.766  16.739 122.227 +0.00 -0.00    +0.000 AC
DOCKED: ENDBRANCH  20  21
DOCKED: ENDBRANCH  19  20
DOCKED: ENDBRANCH   1  19
DOCKED: TORSDOF 8DOCKED: TER
DOCKED: ENDMDL
________________________________________________________________________________


	BEGINNING GENETIC ALGORITHM DOCKING 18 of 100
Run: 18 Seed: 1985699691 1622491400 [ Run 18 of 100 GA/GALS ]
Beginning LAMARCKIAN GENETIC ALGORITHM (LGA), with a maximum of 2500000 energy evaluations.

Final-Value: -15.406


	FINAL GENETIC ALGORITHM DOCKED STATE
	_______________________________________________


Detailed state:  trans 37.069 16.947 123.731 quatxyzw 0.226900 -0.273277 -0.634227 -0.686726 center 0.698 0.076 -0.072 ntor 8 7.1780 135.7294 27.4281 -59.8425 -129.8986 36.8977 180.0000 -13.9568
State:	 37.069  16.947 123.731   0.312 -0.376 -0.872 -93.257      7.18  135.73   27.43  -59.84 -129.90   36.90  180.00  -13.96

DOCKED: MODEL       18
DOCKED: USER    Run = 18
DOCKED: USER    DPF = ligand_dock.biased.dpf
DOCKED: USER  
DOCKED: USER    Estimated Free Energy of Binding    =  -11.51 kcal/mol  [=(1)+(2)+(3)-(4)]
DOCKED: USER    Estimated Inhibition Constant, Ki   =    3.68 nM (nanomolar)  [Temperature = 298.15 K]
DOCKED: USER    
DOCKED: USER    (1) Final Intermolecular Energy     =  -13.89 kcal/mol
DOCKED: USER        vdW + Hbond + desolv Energy     =  -13.89 kcal/mol
DOCKED: USER        Electrostatic Energy            =   +0.00 kcal/mol
DOCKED: USER    (2) Final Total Internal Energy     =   -1.51 kcal/mol
DOCKED: USER    (3) Torsional Free Energy           =   +2.39 kcal/mol
DOCKED: USER    (4) Unbound System's Energy  [=(2)] =   -1.51 kcal/mol
DOCKED: USER    
DOCKED: USER    
DOCKED: USER    NEWDPF move ligand.dum.pdbqt
DOCKED: USER    NEWDPF about 0.698000 0.076000 -0.072000
DOCKED: USER    NEWDPF tran0 37.068506 16.946789 123.731310
DOCKED: USER    NEWDPF quaternion0 0.226900 -0.273277 -0.634227 -0.686726
DOCKED: USER    NEWDPF axisangle0 0.312140 -0.375940 -0.872489 -93.256981
DOCKED: USER    NEWDPF quat0 0.312140 -0.375940 -0.872489 -93.256981
DOCKED: USER    NEWDPF dihe0 7.18 135.73 27.43 -59.84 -129.90 36.90 180.00 -13.96 
DOCKED: USER  keepresnum = 1 
DOCKED: USER  
DOCKED: REMARK  Name = 
DOCKED: REMARK  9 active torsions:
DOCKED: REMARK  status: ('A' for Active; 'I' for Inactive)
DOCKED: REMARK    1  A    between atoms: C_2  and  C_3
DOCKED: REMARK    2  A    between atoms: C_4  and  C_5
DOCKED: REMARK    3  A    between atoms: C_8  and  C_9
DOCKED: REMARK    4  A    between atoms: C_9  and  N_10
DOCKED: REMARK    5  A    between atoms: N_10  and  C_11
DOCKED: REMARK    6  A    between atoms: C_11  and  C_12
DOCKED: REMARK    7  A    between atoms: C_12  and  C_13
DOCKED: REMARK    8  A    between atoms: C_14  and  C_22
DOCKED: REMARK    9  A    between atoms: N_25  and  O_26
DOCKED: REMARK                            x       y       z     vdW  Elec       q    Type
DOCKED: REMARK                         _______ _______ _______ _____ _____    ______ ____
DOCKED: USER                              x       y       z     vdW  Elec       q    Type
DOCKED: USER                           _______ _______ _______ _____ _____    ______ ____
DOCKED: ROOT
DOCKED: ATOM      1  N   UNL     1      37.605  17.977 123.853 -0.18 -0.00    +0.000 N 
DOCKED: ATOM      2  H   UNL     1      38.108  17.850 122.974 +0.00 -0.00    +0.000 HD
DOCKED: ATOM      3  H   UNL     1      38.094  17.530 124.628 -0.02 -0.00    +0.000 HD
DOCKED: ENDROOT
DOCKED: BRANCH   1   4
DOCKED: ATOM      4  C   UNL     1      36.281  17.352 123.734 -0.29 -0.00    +0.000 C 
DOCKED: BRANCH   4   8
DOCKED: ATOM      5  C   UNL     1      36.828  13.206 122.625 -0.49 -0.00    +0.000 A 
DOCKED: ATOM      6  C   UNL     1      36.185  13.547 123.832 -0.50 -0.00    +0.000 A 
DOCKED: ATOM      7  C   UNL     1      36.005  14.888 124.185 -0.39 -0.00    +0.000 A 
DOCKED: ATOM      8  C   UNL     1      36.443  15.912 123.332 -0.34 -0.00    +0.000 A 
DOCKED: ATOM      9  C   UNL     1      37.080  15.578 122.128 -0.27 -0.00    +0.000 A 
DOCKED: ATOM     10  C   UNL     1      37.259  14.237 121.774 -0.34 -0.00    +0.000 A 
DOCKED: ATOM     11  CM  UNL     1      36.634  14.561 122.980 +0.00 -0.00    +0.000 AC
DOCKED: BRANCH   5  12
DOCKED: ATOM     12  C   UNL     1      36.552  10.741 122.865 -0.69 -0.00    +0.000 C 
DOCKED: ATOM     13  C   UNL     1      37.033  11.800 122.197 -0.59 -0.00    +0.000 C 
DOCKED: BRANCH  11  14
DOCKED: ATOM     14  O   UNL     1      36.919   9.108 121.210 -2.68 -0.00    +0.000 OA
DOCKED: ATOM     15  C   UNL     1      36.761   9.342 122.437 -0.71 -0.00    +0.000 C 
DOCKED: ATOM     16  N   UNL     1      36.765   8.247 123.364 -0.70 -0.00    +0.000 N 
DOCKED: ATOM     17  H   UNL     1      36.547   8.405 124.310 -0.32 -0.00    +0.000 HD
DOCKED: BRANCH  15  17
DOCKED: ATOM     18  O   UNL     1      37.066   6.997 122.938 -1.76 -0.00    +0.000 OA
DOCKED: ATOM     19  H   UNL     1      37.364   7.031 122.016 -0.20 -0.00    +0.000 HD
DOCKED: ENDBRANCH  15  17
DOCKED: ENDBRANCH  11  14
DOCKED: ENDBRANCH   5  12
DOCKED: ENDBRANCH   4   8
DOCKED: ENDBRANCH   1   4
DOCKED: BRANCH   1  19
DOCKED: ATOM     20  C   UNL     1      37.516  19.417 124.143 -0.13 -0.00    +0.000 C 
DOCKED: BRANCH  19  20
DOCKED: ATOM     21  C   UNL     1      37.807  19.736 125.620 -0.12 -0.00    +0.000 C 
DOCKED: BRANCH  20  21
DOCKED: ATOM     22  C   UNL     1      39.131  19.157 126.027 -0.16 -0.00    +0.000 A 
DOCKED: ATOM     23  C   UNL     1      40.265  18.983 125.230 -0.21 -0.00    +0.000 A 
DOCKED: ATOM     24  N   UNL     1      41.248  18.366 125.926 -0.34 -0.00    +0.000 N 
DOCKED: ATOM     25  C   UNL     1      40.740  18.129 127.147 -0.36 -0.00    +0.000 A 
DOCKED: ATOM     26  C   UNL     1      39.451  18.589 127.246 -0.22 -0.00    +0.000 A 
DOCKED: ATOM     27  C   UNL     1      38.703  18.433 128.413 -0.16 -0.00    +0.000 A 
DOCKED: ATOM     28  C   UNL     1      39.314  17.791 129.505 -0.30 -0.00    +0.000 A 
DOCKED: ATOM     29  C   UNL     1      40.643  17.321 129.406 -0.37 -0.00    +0.000 A 
DOCKED: ATOM     30  C   UNL     1      41.371  17.488 128.213 -0.46 -0.00    +0.000 A 
DOCKED: ATOM     31  C   UNL     1      40.412  19.432 123.811 -0.12 -0.00    +0.000 C 
DOCKED: ATOM     32  H   UNL     1      42.151  18.140 125.603 -0.46 -0.00    +0.000 HD
DOCKED: ATOM     33  CM  UNL     1      40.202  18.636 126.302 +0.00 -0.00    +0.000 AC
DOCKED: ATOM     34  CM  UNL     1      40.038  17.958 128.321 +0.00 -0.00    +0.000 AC
DOCKED: ENDBRANCH  20  21
DOCKED: ENDBRANCH  19  20
DOCKED: ENDBRANCH   1  19
DOCKED: TORSDOF 8DOCKED: TER
DOCKED: ENDMDL
________________________________________________________________________________


	BEGINNING GENETIC ALGORITHM DOCKING 19 of 100
Run: 19 Seed: 890812221 101985117 [ Run 19 of 100 GA/GALS ]
Beginning LAMARCKIAN GENETIC ALGORITHM (LGA), with a maximum of 2500000 energy evaluations.

Final-Value: -15.071


	FINAL GENETIC ALGORITHM DOCKED STATE
	_______________________________________________


Detailed state:  trans 38.034 17.075 121.365 quatxyzw -0.197068 -0.143255 0.799644 0.548827 center 0.698 0.076 -0.072 ntor 8 2.0828 155.7551 19.2598 169.9474 -116.0130 29.2887 166.9933 36.7129
State:	 38.034  17.075 121.365  -0.236 -0.171  0.957 113.427      2.08  155.76   19.26  169.95 -116.01   29.29  166.99   36.71

DOCKED: MODEL       19
DOCKED: USER    Run = 19
DOCKED: USER    DPF = ligand_dock.biased.dpf
DOCKED: USER  
DOCKED: USER    Estimated Free Energy of Binding    =  -10.61 kcal/mol  [=(1)+(2)+(3)-(4)]
DOCKED: USER    Estimated Inhibition Constant, Ki   =   16.77 nM (nanomolar)  [Temperature = 298.15 K]
DOCKED: USER    
DOCKED: USER    (1) Final Intermolecular Energy     =  -12.99 kcal/mol
DOCKED: USER        vdW + Hbond + desolv Energy     =  -12.99 kcal/mol
DOCKED: USER        Electrostatic Energy            =   +0.00 kcal/mol
DOCKED: USER    (2) Final Total Internal Energy     =   -2.08 kcal/mol
DOCKED: USER    (3) Torsional Free Energy           =   +2.39 kcal/mol
DOCKED: USER    (4) Unbound System's Energy  [=(2)] =   -2.08 kcal/mol
DOCKED: USER    
DOCKED: USER    
DOCKED: USER    NEWDPF move ligand.dum.pdbqt
DOCKED: USER    NEWDPF about 0.698000 0.076000 -0.072000
DOCKED: USER    NEWDPF tran0 38.033743 17.074951 121.365105
DOCKED: USER    NEWDPF quaternion0 -0.197068 -0.143255 0.799644 0.548827
DOCKED: USER    NEWDPF axisangle0 -0.235745 -0.171371 0.956586 113.426846
DOCKED: USER    NEWDPF quat0 -0.235745 -0.171371 0.956586 113.426846
DOCKED: USER    NEWDPF dihe0 2.08 155.76 19.26 169.95 -116.01 29.29 166.99 36.71 
DOCKED: USER  keepresnum = 1 
DOCKED: USER  
DOCKED: REMARK  Name = 
DOCKED: REMARK  9 active torsions:
DOCKED: REMARK  status: ('A' for Active; 'I' for Inactive)
DOCKED: REMARK    1  A    between atoms: C_2  and  C_3
DOCKED: REMARK    2  A    between atoms: C_4  and  C_5
DOCKED: REMARK    3  A    between atoms: C_8  and  C_9
DOCKED: REMARK    4  A    between atoms: C_9  and  N_10
DOCKED: REMARK    5  A    between atoms: N_10  and  C_11
DOCKED: REMARK    6  A    between atoms: C_11  and  C_12
DOCKED: REMARK    7  A    between atoms: C_12  and  C_13
DOCKED: REMARK    8  A    between atoms: C_14  and  C_22
DOCKED: REMARK    9  A    between atoms: N_25  and  O_26
DOCKED: REMARK                            x       y       z     vdW  Elec       q    Type
DOCKED: REMARK                         _______ _______ _______ _____ _____    ______ ____
DOCKED: USER                              x       y       z     vdW  Elec       q    Type
DOCKED: USER                           _______ _______ _______ _____ _____    ______ ____
DOCKED: ROOT
DOCKED: ATOM      1  N   UNL     1      38.925  17.785 121.624 -0.08 -0.00    +0.000 N 
DOCKED: ATOM      2  H   UNL     1      38.859  18.244 120.715 +0.00 -0.00    +0.000 HD
DOCKED: ATOM      3  H   UNL     1      39.495  16.941 121.572 +0.01 -0.00    +0.000 HD
DOCKED: ENDROOT
DOCKED: BRANCH   1   4
DOCKED: ATOM      4  C   UNL     1      37.576  17.392 122.054 -0.15 -0.00    +0.000 C 
DOCKED: BRANCH   4   8
DOCKED: ATOM      5  C   UNL     1      37.215  13.101 121.635 -0.43 -0.00    +0.000 A 
DOCKED: ATOM      6  C   UNL     1      37.230  13.699 122.911 -0.48 -0.00    +0.000 A 
DOCKED: ATOM      7  C   UNL     1      37.341  15.086 123.042 -0.36 -0.00    +0.000 A 
DOCKED: ATOM      8  C   UNL     1      37.418  15.904 121.906 -0.22 -0.00    +0.000 A 
DOCKED: ATOM      9  C   UNL     1      37.401  15.314 120.633 -0.22 -0.00    +0.000 A 
DOCKED: ATOM     10  C   UNL     1      37.288  13.927 120.501 -0.32 -0.00    +0.000 A 
DOCKED: ATOM     11  CM  UNL     1      37.316  14.505 121.771 +0.00 -0.00    +0.000 AC
DOCKED: BRANCH   5  12
DOCKED: ATOM     12  C   UNL     1      37.040  10.751 122.445 -0.57 -0.00    +0.000 C 
DOCKED: ATOM     13  C   UNL     1      37.086  11.636 121.438 -0.54 -0.00    +0.000 C 
DOCKED: BRANCH  11  14
DOCKED: ATOM     14  O   UNL     1      36.691   8.864 121.082 -2.62 -0.00    +0.000 OA
DOCKED: ATOM     15  C   UNL     1      36.915   9.292 122.245 -0.67 -0.00    +0.000 C 
DOCKED: ATOM     16  N   UNL     1      37.013   8.357 123.328 -0.71 -0.00    +0.000 N 
DOCKED: ATOM     17  H   UNL     1      37.091   8.683 124.253 -0.51 -0.00    +0.000 HD
DOCKED: BRANCH  15  17
DOCKED: ATOM     18  O   UNL     1      36.998   7.025 123.080 -1.83 -0.00    +0.000 OA
DOCKED: ATOM     19  H   UNL     1      36.949   6.874 122.123 -0.15 -0.00    +0.000 HD
DOCKED: ENDBRANCH  15  17
DOCKED: ENDBRANCH  11  14
DOCKED: ENDBRANCH   5  12
DOCKED: ENDBRANCH   4   8
DOCKED: ENDBRANCH   1   4
DOCKED: BRANCH   1  19
DOCKED: ATOM     20  C   UNL     1      39.565  18.706 122.575 -0.10 -0.00    +0.000 C 
DOCKED: BRANCH  19  20
DOCKED: ATOM     21  C   UNL     1      40.368  17.966 123.658 -0.25 -0.00    +0.000 C 
DOCKED: BRANCH  20  21
DOCKED: ATOM     22  C   UNL     1      41.566  17.294 123.052 -0.29 -0.00    +0.000 A 
DOCKED: ATOM     23  C   UNL     1      41.692  15.955 122.676 -0.42 -0.00    +0.000 A 
DOCKED: ATOM     24  N   UNL     1      42.943  15.699 122.228 -0.38 -0.00    +0.000 N 
DOCKED: ATOM     25  C   UNL     1      43.617  16.857 122.338 -0.32 -0.00    +0.000 A 
DOCKED: ATOM     26  C   UNL     1      42.814  17.850 122.842 -0.24 -0.00    +0.000 A 
DOCKED: ATOM     27  C   UNL     1      43.297  19.139 123.072 -0.08 -0.00    +0.000 A 
DOCKED: ATOM     28  C   UNL     1      44.644  19.401 122.761 -0.13 -0.00    +0.000 A 
DOCKED: ATOM     29  C   UNL     1      45.469  18.380 122.238 -0.18 -0.00    +0.000 A 
DOCKED: ATOM     30  C   UNL     1      44.955  17.088 122.022 -0.27 -0.00    +0.000 A 
DOCKED: ATOM     31  C   UNL     1      40.604  14.930 122.722 -0.46 -0.00    +0.000 C 
DOCKED: ATOM     32  H   UNL     1      43.288  14.841 121.891 -0.01 +0.00    +0.000 HD
DOCKED: ATOM     33  CM  UNL     1      42.539  16.698 122.615 +0.00 -0.00    +0.000 AC
DOCKED: ATOM     34  CM  UNL     1      44.133  18.118 122.545 +0.00 -0.00    +0.000 AC
DOCKED: ENDBRANCH  20  21
DOCKED: ENDBRANCH  19  20
DOCKED: ENDBRANCH   1  19
DOCKED: TORSDOF 8DOCKED: TER
DOCKED: ENDMDL
________________________________________________________________________________


	BEGINNING GENETIC ALGORITHM DOCKING 20 of 100
Run: 20 Seed: 1155064139 789624556 [ Run 20 of 100 GA/GALS ]
Beginning LAMARCKIAN GENETIC ALGORITHM (LGA), with a maximum of 2500000 energy evaluations.

Final-Value: -15.914


	FINAL GENETIC ALGORITHM DOCKED STATE
	_______________________________________________


Detailed state:  trans 36.379 18.070 123.566 quatxyzw -0.278838 -0.949450 -0.065446 -0.128493 center 0.698 0.076 -0.072 ntor 8 21.1513 -41.7019 -173.5810 -152.8755 -12.7641 14.9738 -80.7669 -127.5001
State:	 36.379  18.070 123.566  -0.281 -0.957 -0.066 -165.235     21.15  -41.70 -173.58 -152.88  -12.76   14.97  -80.77 -127.50

DOCKED: MODEL       20
DOCKED: USER    Run = 20
DOCKED: USER    DPF = ligand_dock.biased.dpf
DOCKED: USER  
DOCKED: USER    Estimated Free Energy of Binding    =  -11.86 kcal/mol  [=(1)+(2)+(3)-(4)]
DOCKED: USER    Estimated Inhibition Constant, Ki   =    2.03 nM (nanomolar)  [Temperature = 298.15 K]
DOCKED: USER    
DOCKED: USER    (1) Final Intermolecular Energy     =  -14.24 kcal/mol
DOCKED: USER        vdW + Hbond + desolv Energy     =  -14.24 kcal/mol
DOCKED: USER        Electrostatic Energy            =   +0.00 kcal/mol
DOCKED: USER    (2) Final Total Internal Energy     =   -1.67 kcal/mol
DOCKED: USER    (3) Torsional Free Energy           =   +2.39 kcal/mol
DOCKED: USER    (4) Unbound System's Energy  [=(2)] =   -1.67 kcal/mol
DOCKED: USER    
DOCKED: USER    
DOCKED: USER    NEWDPF move ligand.dum.pdbqt
DOCKED: USER    NEWDPF about 0.698000 0.076000 -0.072000
DOCKED: USER    NEWDPF tran0 36.378809 18.070413 123.566266
DOCKED: USER    NEWDPF quaternion0 -0.278838 -0.949450 -0.065446 -0.128493
DOCKED: USER    NEWDPF axisangle0 -0.281169 -0.957387 -0.065993 -165.234980
DOCKED: USER    NEWDPF quat0 -0.281169 -0.957387 -0.065993 -165.234980
DOCKED: USER    NEWDPF dihe0 21.15 -41.70 -173.58 -152.88 -12.76 14.97 -80.77 -127.50 
DOCKED: USER  keepresnum = 1 
DOCKED: USER  
DOCKED: REMARK  Name = 
DOCKED: REMARK  9 active torsions:
DOCKED: REMARK  status: ('A' for Active; 'I' for Inactive)
DOCKED: REMARK    1  A    between atoms: C_2  and  C_3
DOCKED: REMARK    2  A    between atoms: C_4  and  C_5
DOCKED: REMARK    3  A    between atoms: C_8  and  C_9
DOCKED: REMARK    4  A    between atoms: C_9  and  N_10
DOCKED: REMARK    5  A    between atoms: N_10  and  C_11
DOCKED: REMARK    6  A    between atoms: C_11  and  C_12
DOCKED: REMARK    7  A    between atoms: C_12  and  C_13
DOCKED: REMARK    8  A    between atoms: C_14  and  C_22
DOCKED: REMARK    9  A    between atoms: N_25  and  O_26
DOCKED: REMARK                            x       y       z     vdW  Elec       q    Type
DOCKED: REMARK                         _______ _______ _______ _____ _____    ______ ____
DOCKED: USER                              x       y       z     vdW  Elec       q    Type
DOCKED: USER                           _______ _______ _______ _____ _____    ______ ____
DOCKED: ROOT
DOCKED: ATOM      1  N   UNL     1      37.544  18.000 123.538 -0.17 -0.00    +0.000 N 
DOCKED: ATOM      2  H   UNL     1      37.575  17.663 124.501 -0.01 -0.00    +0.000 HD
DOCKED: ATOM      3  H   UNL     1      37.516  19.018 123.502 +0.00 -0.00    +0.000 HD
DOCKED: ENDROOT
DOCKED: BRANCH   1   4
DOCKED: ATOM      4  C   UNL     1      36.323  17.492 122.899 -0.25 -0.00    +0.000 C 
DOCKED: BRANCH   4   8
DOCKED: ATOM      5  C   UNL     1      36.387  13.171 123.105 -0.53 -0.00    +0.000 A 
DOCKED: ATOM      6  C   UNL     1      35.666  13.924 124.053 -0.40 -0.00    +0.000 A 
DOCKED: ATOM      7  C   UNL     1      35.643  15.320 123.980 -0.44 -0.00    +0.000 A 
DOCKED: ATOM      8  C   UNL     1      36.319  15.990 122.950 -0.32 -0.00    +0.000 A 
DOCKED: ATOM      9  C   UNL     1      37.036  15.244 122.001 -0.28 -0.00    +0.000 A 
DOCKED: ATOM     10  C   UNL     1      37.058  13.848 122.073 -0.39 -0.00    +0.000 A 
DOCKED: ATOM     11  CM  UNL     1      36.352  14.583 123.027 +0.00 -0.00    +0.000 AC
DOCKED: BRANCH   5  12
DOCKED: ATOM     12  C   UNL     1      36.834  10.940 122.089 -0.60 -0.00    +0.000 C 
DOCKED: ATOM     13  C   UNL     1      36.434  11.688 123.128 -0.70 -0.00    +0.000 C 
DOCKED: BRANCH  11  14
DOCKED: ATOM     14  O   UNL     1      36.781   8.841 121.026 -2.64 -0.00    +0.000 OA
DOCKED: ATOM     15  C   UNL     1      36.877   9.463 122.116 -0.66 -0.00    +0.000 C 
DOCKED: ATOM     16  N   UNL     1      36.997   8.720 123.338 -0.65 -0.00    +0.000 N 
DOCKED: ATOM     17  H   UNL     1      36.975   9.190 124.202 -0.55 -0.00    +0.000 HD
DOCKED: BRANCH  15  17
DOCKED: ATOM     18  O   UNL     1      37.140   7.373 123.303 -2.11 -0.00    +0.000 OA
DOCKED: ATOM     19  H   UNL     1      37.471   7.105 122.433 -0.23 -0.00    +0.000 HD
DOCKED: ENDBRANCH  15  17
DOCKED: ENDBRANCH  11  14
DOCKED: ENDBRANCH   5  12
DOCKED: ENDBRANCH   4   8
DOCKED: ENDBRANCH   1   4
DOCKED: BRANCH   1  19
DOCKED: ATOM     20  C   UNL     1      38.762  17.556 122.843 -0.18 -0.00    +0.000 C 
DOCKED: BRANCH  19  20
DOCKED: ATOM     21  C   UNL     1      40.003  17.594 123.751 -0.27 -0.00    +0.000 C 
DOCKED: BRANCH  20  21
DOCKED: ATOM     22  C   UNL     1      41.168  16.935 123.070 -0.30 -0.00    +0.000 A 
DOCKED: ATOM     23  C   UNL     1      41.266  15.609 122.644 -0.44 -0.00    +0.000 A 
DOCKED: ATOM     24  N   UNL     1      42.494  15.359 122.134 -0.42 -0.00    +0.000 N 
DOCKED: ATOM     25  C   UNL     1      43.181  16.508 122.253 -0.34 -0.00    +0.000 A 
DOCKED: ATOM     26  C   UNL     1      42.411  17.489 122.825 -0.28 -0.00    +0.000 A 
DOCKED: ATOM     27  C   UNL     1      42.914  18.766 123.076 -0.13 -0.00    +0.000 A 
DOCKED: ATOM     28  C   UNL     1      44.249  19.028 122.716 -0.14 -0.00    +0.000 A 
DOCKED: ATOM     29  C   UNL     1      45.041  18.020 122.122 -0.20 -0.00    +0.000 A 
DOCKED: ATOM     30  C   UNL     1      44.507  16.740 121.886 -0.27 -0.00    +0.000 A 
DOCKED: ATOM     31  C   UNL     1      40.172  14.590 122.703 -0.33 -0.00    +0.000 C 
DOCKED: ATOM     32  H   UNL     1      42.817  14.511 121.752 -0.02 -0.00    +0.000 HD
DOCKED: ATOM     33  CM  UNL     1      42.116  16.347 122.571 +0.00 -0.00    +0.000 AC
DOCKED: ATOM     34  CM  UNL     1      43.717  17.758 122.479 +0.00 -0.00    +0.000 AC
DOCKED: ENDBRANCH  20  21
DOCKED: ENDBRANCH  19  20
DOCKED: ENDBRANCH   1  19
DOCKED: TORSDOF 8DOCKED: TER
DOCKED: ENDMDL
________________________________________________________________________________


	BEGINNING GENETIC ALGORITHM DOCKING 21 of 100
Run: 21 Seed: 606292283 542382743 [ Run 21 of 100 GA/GALS ]
Beginning LAMARCKIAN GENETIC ALGORITHM (LGA), with a maximum of 2500000 energy evaluations.

Final-Value: -15.498


	FINAL GENETIC ALGORITHM DOCKED STATE
	_______________________________________________


Detailed state:  trans 36.043 18.178 123.867 quatxyzw 0.367059 -0.563622 0.616189 -0.409768 center 0.698 0.076 -0.072 ntor 8 10.6226 -68.5871 -180.0000 -57.2031 -91.9983 -155.4290 -154.6061 117.0549
State:	 36.043  18.178 123.867   0.402 -0.618  0.676 -131.620     10.62  -68.59 -180.00  -57.20  -92.00 -155.43 -154.61  117.05

DOCKED: MODEL       21
DOCKED: USER    Run = 21
DOCKED: USER    DPF = ligand_dock.biased.dpf
DOCKED: USER  
DOCKED: USER    Estimated Free Energy of Binding    =  -11.55 kcal/mol  [=(1)+(2)+(3)-(4)]
DOCKED: USER    Estimated Inhibition Constant, Ki   =    3.42 nM (nanomolar)  [Temperature = 298.15 K]
DOCKED: USER    
DOCKED: USER    (1) Final Intermolecular Energy     =  -13.94 kcal/mol
DOCKED: USER        vdW + Hbond + desolv Energy     =  -13.94 kcal/mol
DOCKED: USER        Electrostatic Energy            =   +0.00 kcal/mol
DOCKED: USER    (2) Final Total Internal Energy     =   -1.56 kcal/mol
DOCKED: USER    (3) Torsional Free Energy           =   +2.39 kcal/mol
DOCKED: USER    (4) Unbound System's Energy  [=(2)] =   -1.56 kcal/mol
DOCKED: USER    
DOCKED: USER    
DOCKED: USER    NEWDPF move ligand.dum.pdbqt
DOCKED: USER    NEWDPF about 0.698000 0.076000 -0.072000
DOCKED: USER    NEWDPF tran0 36.042831 18.177747 123.867211
DOCKED: USER    NEWDPF quaternion0 0.367059 -0.563622 0.616189 -0.409768
DOCKED: USER    NEWDPF axisangle0 0.402393 -0.617878 0.675505 -131.619520
DOCKED: USER    NEWDPF quat0 0.402393 -0.617878 0.675505 -131.619520
DOCKED: USER    NEWDPF dihe0 10.62 -68.59 -180.00 -57.20 -92.00 -155.43 -154.61 117.05 
DOCKED: USER  keepresnum = 1 
DOCKED: USER  
DOCKED: REMARK  Name = 
DOCKED: REMARK  9 active torsions:
DOCKED: REMARK  status: ('A' for Active; 'I' for Inactive)
DOCKED: REMARK    1  A    between atoms: C_2  and  C_3
DOCKED: REMARK    2  A    between atoms: C_4  and  C_5
DOCKED: REMARK    3  A    between atoms: C_8  and  C_9
DOCKED: REMARK    4  A    between atoms: C_9  and  N_10
DOCKED: REMARK    5  A    between atoms: N_10  and  C_11
DOCKED: REMARK    6  A    between atoms: C_11  and  C_12
DOCKED: REMARK    7  A    between atoms: C_12  and  C_13
DOCKED: REMARK    8  A    between atoms: C_14  and  C_22
DOCKED: REMARK    9  A    between atoms: N_25  and  O_26
DOCKED: REMARK                            x       y       z     vdW  Elec       q    Type
DOCKED: REMARK                         _______ _______ _______ _____ _____    ______ ____
DOCKED: USER                              x       y       z     vdW  Elec       q    Type
DOCKED: USER                           _______ _______ _______ _____ _____    ______ ____
DOCKED: ROOT
DOCKED: ATOM      1  N   UNL     1      35.907  18.299 122.713 -0.21 -0.00    +0.000 N 
DOCKED: ATOM      2  H   UNL     1      36.084  19.302 122.770 -0.00 -0.00    +0.000 HD
DOCKED: ATOM      3  H   UNL     1      34.927  18.085 122.897 -0.01 -0.00    +0.000 HD
DOCKED: ENDROOT
DOCKED: BRANCH   1   4
DOCKED: ATOM      4  C   UNL     1      36.715  17.618 123.733 -0.25 -0.00    +0.000 C 
DOCKED: BRANCH   4   8
DOCKED: ATOM      5  C   UNL     1      36.366  13.324 123.339 -0.53 -0.00    +0.000 A 
DOCKED: ATOM      6  C   UNL     1      35.296  14.088 123.847 -0.40 -0.00    +0.000 A 
DOCKED: ATOM      7  C   UNL     1      35.410  15.476 123.968 -0.46 -0.00    +0.000 A 
DOCKED: ATOM      8  C   UNL     1      36.583  16.130 123.565 -0.31 -0.00    +0.000 A 
DOCKED: ATOM      9  C   UNL     1      37.651  15.375 123.056 -0.33 -0.00    +0.000 A 
DOCKED: ATOM     10  C   UNL     1      37.536  13.987 122.933 -0.45 -0.00    +0.000 A 
DOCKED: ATOM     11  CM  UNL     1      36.474  14.730 123.452 +0.00 -0.00    +0.000 AC
DOCKED: BRANCH   5  12
DOCKED: ATOM     12  C   UNL     1      37.065  11.156 122.329 -0.57 -0.00    +0.000 C 
DOCKED: ATOM     13  C   UNL     1      36.293  11.851 123.178 -0.69 -0.00    +0.000 C 
DOCKED: BRANCH  11  14
DOCKED: ATOM     14  O   UNL     1      36.840   9.218 121.012 -2.65 -0.00    +0.000 OA
DOCKED: ATOM     15  C   UNL     1      36.987   9.689 122.170 -0.62 -0.00    +0.000 C 
DOCKED: ATOM     16  N   UNL     1      37.048   8.791 123.287 -0.65 -0.00    +0.000 N 
DOCKED: ATOM     17  H   UNL     1      37.065   9.149 124.204 -0.57 -0.00    +0.000 HD
DOCKED: BRANCH  15  17
DOCKED: ATOM     18  O   UNL     1      37.079   7.452 123.083 -2.21 -0.00    +0.000 OA
DOCKED: ATOM     19  H   UNL     1      37.225   7.271 122.142 -0.11 -0.00    +0.000 HD
DOCKED: ENDBRANCH  15  17
DOCKED: ENDBRANCH  11  14
DOCKED: ENDBRANCH   5  12
DOCKED: ENDBRANCH   4   8
DOCKED: ENDBRANCH   1   4
DOCKED: BRANCH   1  19
DOCKED: ATOM     20  C   UNL     1      36.223  17.837 121.353 -0.20 -0.00    +0.000 C 
DOCKED: BRANCH  19  20
DOCKED: ATOM     21  C   UNL     1      34.969  17.415 120.570 -0.13 -0.00    +0.000 C 
DOCKED: BRANCH  20  21
DOCKED: ATOM     22  C   UNL     1      34.427  18.577 119.787 -0.25 -0.00    +0.000 A 
DOCKED: ATOM     23  C   UNL     1      35.152  19.602 119.175 -0.15 -0.00    +0.000 A 
DOCKED: ATOM     24  N   UNL     1      34.318  20.511 118.619 -0.14 -0.00    +0.000 N 
DOCKED: ATOM     25  C   UNL     1      33.073  20.084 118.894 -0.17 -0.00    +0.000 A 
DOCKED: ATOM     26  C   UNL     1      33.099  18.913 119.609 -0.31 -0.00    +0.000 A 
DOCKED: ATOM     27  C   UNL     1      31.927  18.287 120.035 -0.44 -0.00    +0.000 A 
DOCKED: ATOM     28  C   UNL     1      30.700  18.890 119.700 -0.43 -0.00    +0.000 A 
DOCKED: ATOM     29  C   UNL     1      30.674  20.093 118.959 -0.33 -0.00    +0.000 A 
DOCKED: ATOM     30  C   UNL     1      31.873  20.704 118.548 -0.21 -0.00    +0.000 A 
DOCKED: ATOM     31  C   UNL     1      36.643  19.693 119.100 -0.09 -0.00    +0.000 C 
DOCKED: ATOM     32  H   UNL     1      34.571  21.319 118.117 -0.04 -0.00    +0.000 HD
DOCKED: ATOM     33  CM  UNL     1      34.024  19.569 119.198 +0.00 -0.00    +0.000 AC
DOCKED: ATOM     34  CM  UNL     1      31.891  19.496 119.291 +0.00 -0.00    +0.000 AC
DOCKED: ENDBRANCH  20  21
DOCKED: ENDBRANCH  19  20
DOCKED: ENDBRANCH   1  19
DOCKED: TORSDOF 8DOCKED: TER
DOCKED: ENDMDL
________________________________________________________________________________


	BEGINNING GENETIC ALGORITHM DOCKING 22 of 100
Run: 22 Seed: 720292737 1514425910 [ Run 22 of 100 GA/GALS ]
Beginning LAMARCKIAN GENETIC ALGORITHM (LGA), with a maximum of 2500000 energy evaluations.

Final-Value: -16.099


	FINAL GENETIC ALGORITHM DOCKED STATE
	_______________________________________________


Detailed state:  trans 37.483 17.154 123.518 quatxyzw 0.610675 -0.674749 -0.304376 -0.281326 center 0.698 0.076 -0.072 ntor 8 3.7180 -29.6712 -15.5346 -162.8511 167.6125 133.3582 -166.4249 4.9784
State:	 37.483  17.154 123.518   0.636 -0.703 -0.317 -147.321      3.72  -29.67  -15.53 -162.85  167.61  133.36 -166.42    4.98

DOCKED: MODEL       22
DOCKED: USER    Run = 22
DOCKED: USER    DPF = ligand_dock.biased.dpf
DOCKED: USER  
DOCKED: USER    Estimated Free Energy of Binding    =  -11.78 kcal/mol  [=(1)+(2)+(3)-(4)]
DOCKED: USER    Estimated Inhibition Constant, Ki   =    2.31 nM (nanomolar)  [Temperature = 298.15 K]
DOCKED: USER    
DOCKED: USER    (1) Final Intermolecular Energy     =  -14.17 kcal/mol
DOCKED: USER        vdW + Hbond + desolv Energy     =  -14.17 kcal/mol
DOCKED: USER        Electrostatic Energy            =   +0.00 kcal/mol
DOCKED: USER    (2) Final Total Internal Energy     =   -1.93 kcal/mol
DOCKED: USER    (3) Torsional Free Energy           =   +2.39 kcal/mol
DOCKED: USER    (4) Unbound System's Energy  [=(2)] =   -1.93 kcal/mol
DOCKED: USER    
DOCKED: USER    
DOCKED: USER    NEWDPF move ligand.dum.pdbqt
DOCKED: USER    NEWDPF about 0.698000 0.076000 -0.072000
DOCKED: USER    NEWDPF tran0 37.482976 17.154097 123.517548
DOCKED: USER    NEWDPF quaternion0 0.610675 -0.674749 -0.304376 -0.281326
DOCKED: USER    NEWDPF axisangle0 0.636377 -0.703148 -0.317187 -147.321264
DOCKED: USER    NEWDPF quat0 0.636377 -0.703148 -0.317187 -147.321264
DOCKED: USER    NEWDPF dihe0 3.72 -29.67 -15.53 -162.85 167.61 133.36 -166.42 4.98 
DOCKED: USER  keepresnum = 1 
DOCKED: USER  
DOCKED: REMARK  Name = 
DOCKED: REMARK  9 active torsions:
DOCKED: REMARK  status: ('A' for Active; 'I' for Inactive)
DOCKED: REMARK    1  A    between atoms: C_2  and  C_3
DOCKED: REMARK    2  A    between atoms: C_4  and  C_5
DOCKED: REMARK    3  A    between atoms: C_8  and  C_9
DOCKED: REMARK    4  A    between atoms: C_9  and  N_10
DOCKED: REMARK    5  A    between atoms: N_10  and  C_11
DOCKED: REMARK    6  A    between atoms: C_11  and  C_12
DOCKED: REMARK    7  A    between atoms: C_12  and  C_13
DOCKED: REMARK    8  A    between atoms: C_14  and  C_22
DOCKED: REMARK    9  A    between atoms: N_25  and  O_26
DOCKED: REMARK                            x       y       z     vdW  Elec       q    Type
DOCKED: REMARK                         _______ _______ _______ _____ _____    ______ ____
DOCKED: USER                              x       y       z     vdW  Elec       q    Type
DOCKED: USER                           _______ _______ _______ _____ _____    ______ ____
DOCKED: ROOT
DOCKED: ATOM      1  N   UNL     1      37.374  18.164 124.095 -0.18 -0.00    +0.000 N 
DOCKED: ATOM      2  H   UNL     1      38.254  18.010 124.587 -0.01 -0.00    +0.000 HD
DOCKED: ATOM      3  H   UNL     1      36.598  17.705 124.570 -0.01 -0.00    +0.000 HD
DOCKED: ENDROOT
DOCKED: BRANCH   1   4
DOCKED: ATOM      4  C   UNL     1      37.479  17.589 122.747 -0.18 -0.00    +0.000 C 
DOCKED: BRANCH   4   8
DOCKED: ATOM      5  C   UNL     1      37.200  13.277 122.934 -0.51 -0.00    +0.000 A 
DOCKED: ATOM      6  C   UNL     1      38.045  13.901 121.995 -0.40 -0.00    +0.000 A 
DOCKED: ATOM      7  C   UNL     1      38.138  15.295 121.941 -0.28 -0.00    +0.000 A 
DOCKED: ATOM      8  C   UNL     1      37.406  16.091 122.835 -0.27 -0.00    +0.000 A 
DOCKED: ATOM      9  C   UNL     1      36.565  15.474 123.773 -0.34 -0.00    +0.000 A 
DOCKED: ATOM     10  C   UNL     1      36.474  14.080 123.829 -0.43 -0.00    +0.000 A 
DOCKED: ATOM     11  CM  UNL     1      37.304  14.686 122.884 +0.00 -0.00    +0.000 AC
DOCKED: BRANCH   5  12
DOCKED: ATOM     12  C   UNL     1      37.071  10.976 121.985 -0.53 -0.00    +0.000 C 
DOCKED: ATOM     13  C   UNL     1      37.074  11.802 123.042 -0.65 -0.00    +0.000 C 
DOCKED: BRANCH  11  14
DOCKED: ATOM     14  O   UNL     1      36.692   8.847 121.056 -2.62 -0.00    +0.000 OA
DOCKED: ATOM     15  C   UNL     1      36.943   9.508 122.098 -0.64 -0.00    +0.000 C 
DOCKED: ATOM     16  N   UNL     1      37.069   8.819 123.350 -0.64 -0.00    +0.000 N 
DOCKED: ATOM     17  H   UNL     1      37.169   9.332 124.184 -0.59 -0.00    +0.000 HD
DOCKED: BRANCH  15  17
DOCKED: ATOM     18  O   UNL     1      37.049   7.465 123.387 -2.17 -0.00    +0.000 OA
DOCKED: ATOM     19  H   UNL     1      37.004   7.117 122.483 -0.09 -0.00    +0.000 HD
DOCKED: ENDBRANCH  15  17
DOCKED: ENDBRANCH  11  14
DOCKED: ENDBRANCH   5  12
DOCKED: ENDBRANCH   4   8
DOCKED: ENDBRANCH   1   4
DOCKED: BRANCH   1  19
DOCKED: ATOM     20  C   UNL     1      37.095  19.608 124.063 -0.14 -0.00    +0.000 C 
DOCKED: BRANCH  19  20
DOCKED: ATOM     21  C   UNL     1      35.735  19.957 124.692 -0.19 -0.00    +0.000 C 
DOCKED: BRANCH  20  21
DOCKED: ATOM     22  C   UNL     1      34.961  18.704 124.987 -0.25 -0.00    +0.000 A 
DOCKED: ATOM     23  C   UNL     1      34.361  17.839 124.069 -0.35 -0.00    +0.000 A 
DOCKED: ATOM     24  N   UNL     1      33.692  16.852 124.709 -0.36 -0.00    +0.000 N 
DOCKED: ATOM     25  C   UNL     1      33.843  17.097 126.022 -0.36 -0.00    +0.000 A 
DOCKED: ATOM     26  C   UNL     1      34.604  18.220 126.231 -0.26 -0.00    +0.000 A 
DOCKED: ATOM     27  C   UNL     1      34.878  18.693 127.515 -0.15 -0.00    +0.000 A 
DOCKED: ATOM     28  C   UNL     1      34.356  17.974 128.606 -0.17 -0.00    +0.000 A 
DOCKED: ATOM     29  C   UNL     1      33.577  16.815 128.391 -0.32 -0.00    +0.000 A 
DOCKED: ATOM     30  C   UNL     1      33.312  16.366 127.084 -0.36 -0.00    +0.000 A 
DOCKED: ATOM     31  C   UNL     1      34.453  17.945 122.580 -0.35 -0.00    +0.000 C 
DOCKED: ATOM     32  H   UNL     1      33.197  16.107 124.297 +0.01 -0.00    +0.000 HD
DOCKED: ATOM     33  CM  UNL     1      34.273  17.714 125.188 -0.36 -0.00    +0.000 AC
DOCKED: ATOM     34  CM  UNL     1      34.095  17.527 127.308 -0.01 -0.00    +0.000 AC
DOCKED: ENDBRANCH  20  21
DOCKED: ENDBRANCH  19  20
DOCKED: ENDBRANCH   1  19
DOCKED: TORSDOF 8DOCKED: TER
DOCKED: ENDMDL
________________________________________________________________________________


	BEGINNING GENETIC ALGORITHM DOCKING 23 of 100
Run: 23 Seed: 1947849557 1545561770 [ Run 23 of 100 GA/GALS ]
Beginning LAMARCKIAN GENETIC ALGORITHM (LGA), with a maximum of 2500000 energy evaluations.

Final-Value: -15.167


	FINAL GENETIC ALGORITHM DOCKED STATE
	_______________________________________________


Detailed state:  trans 37.209 17.133 123.713 quatxyzw -0.435532 0.201187 0.680657 0.553662 center 0.698 0.076 -0.072 ntor 8 6.5767 -110.4016 53.8182 160.1588 172.4511 -143.8976 -81.9672 21.5185
State:	 37.209  17.133 123.713  -0.523  0.242  0.817 112.763      6.58 -110.40   53.82  160.16  172.45 -143.90  -81.97   21.52

DOCKED: MODEL       23
DOCKED: USER    Run = 23
DOCKED: USER    DPF = ligand_dock.biased.dpf
DOCKED: USER  
DOCKED: USER    Estimated Free Energy of Binding    =  -10.90 kcal/mol  [=(1)+(2)+(3)-(4)]
DOCKED: USER    Estimated Inhibition Constant, Ki   =   10.31 nM (nanomolar)  [Temperature = 298.15 K]
DOCKED: USER    
DOCKED: USER    (1) Final Intermolecular Energy     =  -13.28 kcal/mol
DOCKED: USER        vdW + Hbond + desolv Energy     =  -13.28 kcal/mol
DOCKED: USER        Electrostatic Energy            =   +0.00 kcal/mol
DOCKED: USER    (2) Final Total Internal Energy     =   -1.88 kcal/mol
DOCKED: USER    (3) Torsional Free Energy           =   +2.39 kcal/mol
DOCKED: USER    (4) Unbound System's Energy  [=(2)] =   -1.88 kcal/mol
DOCKED: USER    
DOCKED: USER    
DOCKED: USER    NEWDPF move ligand.dum.pdbqt
DOCKED: USER    NEWDPF about 0.698000 0.076000 -0.072000
DOCKED: USER    NEWDPF tran0 37.209467 17.133205 123.713037
DOCKED: USER    NEWDPF quaternion0 -0.435532 0.201187 0.680657 0.553662
DOCKED: USER    NEWDPF axisangle0 -0.523010 0.241596 0.817369 112.762803
DOCKED: USER    NEWDPF quat0 -0.523010 0.241596 0.817369 112.762803
DOCKED: USER    NEWDPF dihe0 6.58 -110.40 53.82 160.16 172.45 -143.90 -81.97 21.52 
DOCKED: USER  keepresnum = 1 
DOCKED: USER  
DOCKED: REMARK  Name = 
DOCKED: REMARK  9 active torsions:
DOCKED: REMARK  status: ('A' for Active; 'I' for Inactive)
DOCKED: REMARK    1  A    between atoms: C_2  and  C_3
DOCKED: REMARK    2  A    between atoms: C_4  and  C_5
DOCKED: REMARK    3  A    between atoms: C_8  and  C_9
DOCKED: REMARK    4  A    between atoms: C_9  and  N_10
DOCKED: REMARK    5  A    between atoms: N_10  and  C_11
DOCKED: REMARK    6  A    between atoms: C_11  and  C_12
DOCKED: REMARK    7  A    between atoms: C_12  and  C_13
DOCKED: REMARK    8  A    between atoms: C_14  and  C_22
DOCKED: REMARK    9  A    between atoms: N_25  and  O_26
DOCKED: REMARK                            x       y       z     vdW  Elec       q    Type
DOCKED: REMARK                         _______ _______ _______ _____ _____    ______ ____
DOCKED: USER                              x       y       z     vdW  Elec       q    Type
DOCKED: USER                           _______ _______ _______ _____ _____    ______ ____
DOCKED: ROOT
DOCKED: ATOM      1  N   UNL     1      37.737  17.924 124.391 -0.20 -0.00    +0.000 N 
DOCKED: ATOM      2  H   UNL     1      38.424  18.129 123.666 -0.00 -0.00    +0.000 HD
DOCKED: ATOM      3  H   UNL     1      38.020  17.122 124.954 -0.02 -0.00    +0.000 HD
DOCKED: ENDROOT
DOCKED: BRANCH   1   4
DOCKED: ATOM      4  C   UNL     1      36.456  17.597 123.751 -0.26 -0.00    +0.000 C 
DOCKED: BRANCH   4   8
DOCKED: ATOM      5  C   UNL     1      36.188  13.349 122.982 -0.44 -0.00    +0.000 A 
DOCKED: ATOM      6  C   UNL     1      37.206  14.122 122.388 -0.41 -0.00    +0.000 A 
DOCKED: ATOM      7  C   UNL     1      37.293  15.494 122.643 -0.31 -0.00    +0.000 A 
DOCKED: ATOM      8  C   UNL     1      36.382  16.115 123.510 -0.33 -0.00    +0.000 A 
DOCKED: ATOM      9  C   UNL     1      35.369  15.349 124.106 -0.47 -0.00    +0.000 A 
DOCKED: ATOM     10  C   UNL     1      35.283  13.976 123.853 -0.34 -0.00    +0.000 A 
DOCKED: ATOM     11  CM  UNL     1      36.286  14.734 123.247 +0.00 -0.00    +0.000 AC
DOCKED: BRANCH   5  12
DOCKED: ATOM     12  C   UNL     1      37.099  11.074 122.523 -0.54 -0.00    +0.000 C 
DOCKED: ATOM     13  C   UNL     1      36.058  11.888 122.755 -0.62 -0.00    +0.000 C 
DOCKED: BRANCH  11  14
DOCKED: ATOM     14  O   UNL     1      36.726   9.217 121.127 -2.63 -0.00    +0.000 OA
DOCKED: ATOM     15  C   UNL     1      36.964   9.621 122.295 -0.63 -0.00    +0.000 C 
DOCKED: ATOM     16  N   UNL     1      37.070   8.663 123.358 -0.66 -0.00    +0.000 N 
DOCKED: ATOM     17  H   UNL     1      37.159   8.971 124.289 -0.55 -0.00    +0.000 HD
DOCKED: BRANCH  15  17
DOCKED: ATOM     18  O   UNL     1      37.044   7.337 123.084 -2.15 -0.00    +0.000 OA
DOCKED: ATOM     19  H   UNL     1      37.057   7.204 122.124 -0.09 -0.00    +0.000 HD
DOCKED: ENDBRANCH  15  17
DOCKED: ENDBRANCH  11  14
DOCKED: ENDBRANCH   5  12
DOCKED: ENDBRANCH   4   8
DOCKED: ENDBRANCH   1   4
DOCKED: BRANCH   1  19
DOCKED: ATOM     20  C   UNL     1      37.630  19.088 125.285 -0.16 -0.00    +0.000 C 
DOCKED: BRANCH  19  20
DOCKED: ATOM     21  C   UNL     1      38.992  19.752 125.549 -0.13 -0.00    +0.000 C 
DOCKED: BRANCH  20  21
DOCKED: ATOM     22  C   UNL     1      40.090  18.972 124.884 -0.19 -0.00    +0.000 A 
DOCKED: ATOM     23  C   UNL     1      41.058  18.175 125.498 -0.30 -0.00    +0.000 A 
DOCKED: ATOM     24  N   UNL     1      41.924  17.683 124.581 -0.19 -0.00    +0.000 N 
DOCKED: ATOM     25  C   UNL     1      41.526  18.180 123.397 -0.23 -0.00    +0.000 A 
DOCKED: ATOM     26  C   UNL     1      40.417  18.975 123.541 -0.12 -0.00    +0.000 A 
DOCKED: ATOM     27  C   UNL     1      39.833  19.626 122.454 -0.04 -0.00    +0.000 A 
DOCKED: ATOM     28  C   UNL     1      40.414  19.437 121.186 -0.02 -0.00    +0.000 A 
DOCKED: ATOM     29  C   UNL     1      41.552  18.615 121.037 -0.05 -0.00    +0.000 A 
DOCKED: ATOM     30  C   UNL     1      42.122  17.976 122.153 -0.16 -0.00    +0.000 A 
DOCKED: ATOM     31  C   UNL     1      41.135  17.863 126.958 -0.41 -0.00    +0.000 C 
DOCKED: ATOM     32  H   UNL     1      42.687  17.084 124.747 -0.63 -0.00    +0.000 HD
DOCKED: ATOM     33  CM  UNL     1      41.032  18.374 124.387 +0.00 -0.00    +0.000 AC
DOCKED: ATOM     34  CM  UNL     1      40.978  18.801 122.295 +0.00 -0.00    +0.000 AC
DOCKED: ENDBRANCH  20  21
DOCKED: ENDBRANCH  19  20
DOCKED: ENDBRANCH   1  19
DOCKED: TORSDOF 8DOCKED: TER
DOCKED: ENDMDL
________________________________________________________________________________


	BEGINNING GENETIC ALGORITHM DOCKING 24 of 100
Run: 24 Seed: 1580381421 816001886 [ Run 24 of 100 GA/GALS ]
Beginning LAMARCKIAN GENETIC ALGORITHM (LGA), with a maximum of 2500000 energy evaluations.

Final-Value: -15.990


	FINAL GENETIC ALGORITHM DOCKED STATE
	_______________________________________________


Detailed state:  trans 35.569 17.195 123.287 quatxyzw -0.390663 0.533293 -0.682113 -0.312574 center 0.698 0.076 -0.072 ntor 8 13.5726 9.6215 102.7438 14.4625 114.7574 -167.7868 -159.2836 50.7901
State:	 35.569  17.195 123.287  -0.411  0.561 -0.718 -143.571     13.57    9.62  102.74   14.46  114.76 -167.79 -159.28   50.79

DOCKED: MODEL       24
DOCKED: USER    Run = 24
DOCKED: USER    DPF = ligand_dock.biased.dpf
DOCKED: USER  
DOCKED: USER    Estimated Free Energy of Binding    =  -10.87 kcal/mol  [=(1)+(2)+(3)-(4)]
DOCKED: USER    Estimated Inhibition Constant, Ki   =   10.83 nM (nanomolar)  [Temperature = 298.15 K]
DOCKED: USER    
DOCKED: USER    (1) Final Intermolecular Energy     =  -13.25 kcal/mol
DOCKED: USER        vdW + Hbond + desolv Energy     =  -13.25 kcal/mol
DOCKED: USER        Electrostatic Energy            =   +0.00 kcal/mol
DOCKED: USER    (2) Final Total Internal Energy     =   -2.74 kcal/mol
DOCKED: USER    (3) Torsional Free Energy           =   +2.39 kcal/mol
DOCKED: USER    (4) Unbound System's Energy  [=(2)] =   -2.74 kcal/mol
DOCKED: USER    
DOCKED: USER    
DOCKED: USER    NEWDPF move ligand.dum.pdbqt
DOCKED: USER    NEWDPF about 0.698000 0.076000 -0.072000
DOCKED: USER    NEWDPF tran0 35.569262 17.195295 123.287446
DOCKED: USER    NEWDPF quaternion0 -0.390663 0.533293 -0.682113 -0.312574
DOCKED: USER    NEWDPF axisangle0 -0.411271 0.561424 -0.718094 -143.571205
DOCKED: USER    NEWDPF quat0 -0.411271 0.561424 -0.718094 -143.571205
DOCKED: USER    NEWDPF dihe0 13.57 9.62 102.74 14.46 114.76 -167.79 -159.28 50.79 
DOCKED: USER  keepresnum = 1 
DOCKED: USER  
DOCKED: REMARK  Name = 
DOCKED: REMARK  9 active torsions:
DOCKED: REMARK  status: ('A' for Active; 'I' for Inactive)
DOCKED: REMARK    1  A    between atoms: C_2  and  C_3
DOCKED: REMARK    2  A    between atoms: C_4  and  C_5
DOCKED: REMARK    3  A    between atoms: C_8  and  C_9
DOCKED: REMARK    4  A    between atoms: C_9  and  N_10
DOCKED: REMARK    5  A    between atoms: N_10  and  C_11
DOCKED: REMARK    6  A    between atoms: C_11  and  C_12
DOCKED: REMARK    7  A    between atoms: C_12  and  C_13
DOCKED: REMARK    8  A    between atoms: C_14  and  C_22
DOCKED: REMARK    9  A    between atoms: N_25  and  O_26
DOCKED: REMARK                            x       y       z     vdW  Elec       q    Type
DOCKED: REMARK                         _______ _______ _______ _____ _____    ______ ____
DOCKED: USER                              x       y       z     vdW  Elec       q    Type
DOCKED: USER                           _______ _______ _______ _____ _____    ______ ____
DOCKED: ROOT
DOCKED: ATOM      1  N   UNL     1      35.871  18.005 122.501 -0.22 -0.00    +0.000 N 
DOCKED: ATOM      2  H   UNL     1      34.970  18.475 122.598 -0.01 -0.00    +0.000 HD
DOCKED: ATOM      3  H   UNL     1      35.820  17.241 121.828 -0.00 -0.00    +0.000 HD
DOCKED: ENDROOT
DOCKED: BRANCH   1   4
DOCKED: ATOM      4  C   UNL     1      36.249  17.435 123.801 -0.28 -0.00    +0.000 C 
DOCKED: BRANCH   4   8
DOCKED: ATOM      5  C   UNL     1      36.692  13.141 123.516 -0.54 -0.00    +0.000 A 
DOCKED: ATOM      6  C   UNL     1      35.427  13.718 123.744 -0.33 -0.00    +0.000 A 
DOCKED: ATOM      7  C   UNL     1      35.287  15.107 123.829 -0.50 -0.00    +0.000 A 
DOCKED: ATOM      8  C   UNL     1      36.399  15.945 123.669 -0.34 -0.00    +0.000 A 
DOCKED: ATOM      9  C   UNL     1      37.661  15.376 123.440 -0.28 -0.00    +0.000 A 
DOCKED: ATOM     10  C   UNL     1      37.802  13.987 123.353 -0.36 -0.00    +0.000 A 
DOCKED: ATOM     11  CM  UNL     1      36.545  14.545 123.592 +0.00 -0.00    +0.000 AC
DOCKED: BRANCH   5  12
DOCKED: ATOM     12  C   UNL     1      36.641  10.972 122.291 -0.65 -0.00    +0.000 C 
DOCKED: ATOM     13  C   UNL     1      36.896  11.676 123.404 -0.69 -0.00    +0.000 C 
DOCKED: BRANCH  11  14
DOCKED: ATOM     14  O   UNL     1      37.058   9.018 121.047 -2.72 -0.00    +0.000 OA
DOCKED: ATOM     15  C   UNL     1      36.843   9.512 122.185 -0.67 -0.00    +0.000 C 
DOCKED: ATOM     16  N   UNL     1      36.775   8.642 123.324 -0.65 -0.00    +0.000 N 
DOCKED: ATOM     17  H   UNL     1      36.512   9.002 124.201 -0.40 -0.00    +0.000 HD
DOCKED: BRANCH  15  17
DOCKED: ATOM     18  O   UNL     1      37.072   7.326 123.193 -2.13 -0.00    +0.000 OA
DOCKED: ATOM     19  H   UNL     1      37.510   7.176 122.341 -0.20 -0.00    +0.000 HD
DOCKED: ENDBRANCH  15  17
DOCKED: ENDBRANCH  11  14
DOCKED: ENDBRANCH   5  12
DOCKED: ENDBRANCH   4   8
DOCKED: ENDBRANCH   1   4
DOCKED: BRANCH   1  19
DOCKED: ATOM     20  C   UNL     1      36.861  18.976 122.010 -0.15 -0.00    +0.000 C 
DOCKED: BRANCH  19  20
DOCKED: ATOM     21  C   UNL     1      37.400  18.610 120.617 -0.09 -0.00    +0.000 C 
DOCKED: BRANCH  20  21
DOCKED: ATOM     22  C   UNL     1      38.093  17.279 120.659 -0.08 -0.00    +0.000 A 
DOCKED: ATOM     23  C   UNL     1      37.631  16.062 120.153 -0.16 -0.00    +0.000 A 
DOCKED: ATOM     24  N   UNL     1      38.500  15.064 120.438 -0.23 -0.00    +0.000 N 
DOCKED: ATOM     25  C   UNL     1      39.496  15.634 121.137 -0.22 -0.00    +0.000 A 
DOCKED: ATOM     26  C   UNL     1      39.281  16.979 121.299 -0.11 -0.00    +0.000 A 
DOCKED: ATOM     27  C   UNL     1      40.168  17.784 122.016 -0.11 -0.00    +0.000 A 
DOCKED: ATOM     28  C   UNL     1      41.308  17.174 122.569 -0.24 -0.00    +0.000 A 
DOCKED: ATOM     29  C   UNL     1      41.532  15.789 122.399 -0.41 -0.00    +0.000 A 
DOCKED: ATOM     30  C   UNL     1      40.617  15.002 121.675 -0.29 -0.00    +0.000 A 
DOCKED: ATOM     31  C   UNL     1      36.369  15.863 119.375 -0.16 -0.00    +0.000 C 
DOCKED: ATOM     32  H   UNL     1      38.419  14.116 120.183 -0.04 -0.00    +0.000 HD
DOCKED: ATOM     33  CM  UNL     1      38.597  16.167 120.727 +0.00 -0.00    +0.000 AC
DOCKED: ATOM     34  CM  UNL     1      40.401  16.393 121.849 +0.00 -0.00    +0.000 AC
DOCKED: ENDBRANCH  20  21
DOCKED: ENDBRANCH  19  20
DOCKED: ENDBRANCH   1  19
DOCKED: TORSDOF 8DOCKED: TER
DOCKED: ENDMDL
________________________________________________________________________________


	BEGINNING GENETIC ALGORITHM DOCKING 25 of 100
Run: 25 Seed: 2110002290 1158589603 [ Run 25 of 100 GA/GALS ]
Beginning LAMARCKIAN GENETIC ALGORITHM (LGA), with a maximum of 2500000 energy evaluations.

Final-Value: -16.281


	FINAL GENETIC ALGORITHM DOCKED STATE
	_______________________________________________


Detailed state:  trans 36.231 17.311 122.924 quatxyzw 0.208941 -0.547156 0.775164 0.236824 center 0.698 0.076 -0.072 ntor 8 27.5436 -48.1773 154.3526 -175.7112 122.7979 168.7343 -147.6827 62.1300
State:	 36.231  17.311 122.924   0.215 -0.563  0.798 152.602     27.54  -48.18  154.35 -175.71  122.80  168.73 -147.68   62.13

DOCKED: MODEL       25
DOCKED: USER    Run = 25
DOCKED: USER    DPF = ligand_dock.biased.dpf
DOCKED: USER  
DOCKED: USER    Estimated Free Energy of Binding    =  -11.07 kcal/mol  [=(1)+(2)+(3)-(4)]
DOCKED: USER    Estimated Inhibition Constant, Ki   =    7.63 nM (nanomolar)  [Temperature = 298.15 K]
DOCKED: USER    
DOCKED: USER    (1) Final Intermolecular Energy     =  -13.46 kcal/mol
DOCKED: USER        vdW + Hbond + desolv Energy     =  -13.46 kcal/mol
DOCKED: USER        Electrostatic Energy            =   +0.00 kcal/mol
DOCKED: USER    (2) Final Total Internal Energy     =   -2.82 kcal/mol
DOCKED: USER    (3) Torsional Free Energy           =   +2.39 kcal/mol
DOCKED: USER    (4) Unbound System's Energy  [=(2)] =   -2.82 kcal/mol
DOCKED: USER    
DOCKED: USER    
DOCKED: USER    NEWDPF move ligand.dum.pdbqt
DOCKED: USER    NEWDPF about 0.698000 0.076000 -0.072000
DOCKED: USER    NEWDPF tran0 36.230535 17.311344 122.924368
DOCKED: USER    NEWDPF quaternion0 0.208941 -0.547156 0.775164 0.236824
DOCKED: USER    NEWDPF axisangle0 0.215059 -0.563177 0.797861 152.601725
DOCKED: USER    NEWDPF quat0 0.215059 -0.563177 0.797861 152.601725
DOCKED: USER    NEWDPF dihe0 27.54 -48.18 154.35 -175.71 122.80 168.73 -147.68 62.13 
DOCKED: USER  keepresnum = 1 
DOCKED: USER  
DOCKED: REMARK  Name = 
DOCKED: REMARK  9 active torsions:
DOCKED: REMARK  status: ('A' for Active; 'I' for Inactive)
DOCKED: REMARK    1  A    between atoms: C_2  and  C_3
DOCKED: REMARK    2  A    between atoms: C_4  and  C_5
DOCKED: REMARK    3  A    between atoms: C_8  and  C_9
DOCKED: REMARK    4  A    between atoms: C_9  and  N_10
DOCKED: REMARK    5  A    between atoms: N_10  and  C_11
DOCKED: REMARK    6  A    between atoms: C_11  and  C_12
DOCKED: REMARK    7  A    between atoms: C_12  and  C_13
DOCKED: REMARK    8  A    between atoms: C_14  and  C_22
DOCKED: REMARK    9  A    between atoms: N_25  and  O_26
DOCKED: REMARK                            x       y       z     vdW  Elec       q    Type
DOCKED: REMARK                         _______ _______ _______ _____ _____    ______ ____
DOCKED: USER                              x       y       z     vdW  Elec       q    Type
DOCKED: USER                           _______ _______ _______ _____ _____    ______ ____
DOCKED: ROOT
DOCKED: ATOM      1  N   UNL     1      36.969  17.906 122.243 -0.14 -0.00    +0.000 N 
DOCKED: ATOM      2  H   UNL     1      36.301  18.670 122.138 +0.00 -0.00    +0.000 HD
DOCKED: ATOM      3  H   UNL     1      36.796  17.167 121.563 +0.00 -0.00    +0.000 HD
DOCKED: ENDROOT
DOCKED: BRANCH   1   4
DOCKED: ATOM      4  C   UNL     1      36.820  17.328 123.585 -0.26 -0.00    +0.000 C 
DOCKED: BRANCH   4   8
DOCKED: ATOM      5  C   UNL     1      36.564  13.016 123.369 -0.56 -0.00    +0.000 A 
DOCKED: ATOM      6  C   UNL     1      35.431  13.786 123.699 -0.35 -0.00    +0.000 A 
DOCKED: ATOM      7  C   UNL     1      35.516  15.180 123.762 -0.47 -0.00    +0.000 A 
DOCKED: ATOM      8  C   UNL     1      36.724  15.832 123.478 -0.33 -0.00    +0.000 A 
DOCKED: ATOM      9  C   UNL     1      37.854  15.070 123.146 -0.33 -0.00    +0.000 A 
DOCKED: ATOM     10  C   UNL     1      37.770  13.676 123.081 -0.47 -0.00    +0.000 A 
DOCKED: ATOM     11  CM  UNL     1      36.643  14.426 123.423 +0.00 -0.00    +0.000 AC
DOCKED: BRANCH   5  12
DOCKED: ATOM     12  C   UNL     1      37.030  10.841 122.244 -0.56 -0.00    +0.000 C 
DOCKED: ATOM     13  C   UNL     1      36.526  11.535 123.276 -0.70 -0.00    +0.000 C 
DOCKED: BRANCH  11  14
DOCKED: ATOM     14  O   UNL     1      36.893   8.838 121.016 -2.66 -0.00    +0.000 OA
DOCKED: ATOM     15  C   UNL     1      36.988   9.367 122.154 -0.65 -0.00    +0.000 C 
DOCKED: ATOM     16  N   UNL     1      37.026   8.525 123.315 -0.69 -0.00    +0.000 N 
DOCKED: ATOM     17  H   UNL     1      37.002   8.926 124.214 -0.53 -0.00    +0.000 HD
DOCKED: BRANCH  15  17
DOCKED: ATOM     18  O   UNL     1      37.092   7.179 123.178 -1.97 -0.00    +0.000 OA
DOCKED: ATOM     19  H   UNL     1      37.529   6.960 122.340 -0.29 -0.00    +0.000 HD
DOCKED: ENDBRANCH  15  17
DOCKED: ENDBRANCH  11  14
DOCKED: ENDBRANCH   5  12
DOCKED: ENDBRANCH   4   8
DOCKED: ENDBRANCH   1   4
DOCKED: BRANCH   1  19
DOCKED: ATOM     20  C   UNL     1      38.325  18.427 122.010 -0.09 -0.00    +0.000 C 
DOCKED: BRANCH  19  20
DOCKED: ATOM     21  C   UNL     1      38.879  18.026 120.632 -0.06 -0.00    +0.000 C 
DOCKED: BRANCH  20  21
DOCKED: ATOM     22  C   UNL     1      38.790  16.539 120.447 -0.12 -0.00    +0.000 A 
DOCKED: ATOM     23  C   UNL     1      39.697  15.571 120.885 -0.21 -0.00    +0.000 A 
DOCKED: ATOM     24  N   UNL     1      39.317  14.339 120.474 -0.22 -0.00    +0.000 N 
DOCKED: ATOM     25  C   UNL     1      38.192  14.520 119.762 -0.25 -0.00    +0.000 A 
DOCKED: ATOM     26  C   UNL     1      37.843  15.846 119.717 -0.16 -0.00    +0.000 A 
DOCKED: ATOM     27  C   UNL     1      36.722  16.287 119.012 -0.14 -0.00    +0.000 A 
DOCKED: ATOM     28  C   UNL     1      35.943  15.323 118.346 -0.15 -0.00    +0.000 A 
DOCKED: ATOM     29  C   UNL     1      36.300  13.957 118.397 -0.33 -0.00    +0.000 A 
DOCKED: ATOM     30  C   UNL     1      37.439  13.543 119.112 -0.37 -0.00    +0.000 A 
DOCKED: ATOM     31  C   UNL     1      40.911  15.827 121.719 -0.33 -0.00    +0.000 C 
DOCKED: ATOM     32  H   UNL     1      39.772  13.486 120.660 -0.08 -0.00    +0.000 HD
DOCKED: ATOM     33  CM  UNL     1      38.786  15.331 120.264 +0.00 -0.00    +0.000 AC
DOCKED: ATOM     34  CM  UNL     1      37.074  14.912 119.058 +0.00 -0.00    +0.000 AC
DOCKED: ENDBRANCH  20  21
DOCKED: ENDBRANCH  19  20
DOCKED: ENDBRANCH   1  19
DOCKED: TORSDOF 8DOCKED: TER
DOCKED: ENDMDL
________________________________________________________________________________


	BEGINNING GENETIC ALGORITHM DOCKING 26 of 100
Run: 26 Seed: 87276731 2104575999 [ Run 26 of 100 GA/GALS ]
Beginning LAMARCKIAN GENETIC ALGORITHM (LGA), with a maximum of 2500000 energy evaluations.

Final-Value: -16.040


	FINAL GENETIC ALGORITHM DOCKED STATE
	_______________________________________________


Detailed state:  trans 37.516 17.022 123.720 quatxyzw -0.559855 0.680126 0.379520 0.282764 center 0.698 0.076 -0.072 ntor 8 6.4161 -0.5378 117.7733 -168.7407 172.7145 -9.3052 180.0000 -2.1764
State:	 37.516  17.022 123.720  -0.584  0.709  0.396 147.149      6.42   -0.54  117.77 -168.74  172.71   -9.31  180.00   -2.18

DOCKED: MODEL       26
DOCKED: USER    Run = 26
DOCKED: USER    DPF = ligand_dock.biased.dpf
DOCKED: USER  
DOCKED: USER    Estimated Free Energy of Binding    =  -11.79 kcal/mol  [=(1)+(2)+(3)-(4)]
DOCKED: USER    Estimated Inhibition Constant, Ki   =    2.27 nM (nanomolar)  [Temperature = 298.15 K]
DOCKED: USER    
DOCKED: USER    (1) Final Intermolecular Energy     =  -14.18 kcal/mol
DOCKED: USER        vdW + Hbond + desolv Energy     =  -14.18 kcal/mol
DOCKED: USER        Electrostatic Energy            =   +0.00 kcal/mol
DOCKED: USER    (2) Final Total Internal Energy     =   -1.86 kcal/mol
DOCKED: USER    (3) Torsional Free Energy           =   +2.39 kcal/mol
DOCKED: USER    (4) Unbound System's Energy  [=(2)] =   -1.86 kcal/mol
DOCKED: USER    
DOCKED: USER    
DOCKED: USER    NEWDPF move ligand.dum.pdbqt
DOCKED: USER    NEWDPF about 0.698000 0.076000 -0.072000
DOCKED: USER    NEWDPF tran0 37.516436 17.022163 123.719798
DOCKED: USER    NEWDPF quaternion0 -0.559855 0.680126 0.379520 0.282764
DOCKED: USER    NEWDPF axisangle0 -0.583675 0.709063 0.395667 147.149483
DOCKED: USER    NEWDPF quat0 -0.583675 0.709063 0.395667 147.149483
DOCKED: USER    NEWDPF dihe0 6.42 -0.54 117.77 -168.74 172.71 -9.31 180.00 -2.18 
DOCKED: USER  keepresnum = 1 
DOCKED: USER  
DOCKED: REMARK  Name = 
DOCKED: REMARK  9 active torsions:
DOCKED: REMARK  status: ('A' for Active; 'I' for Inactive)
DOCKED: REMARK    1  A    between atoms: C_2  and  C_3
DOCKED: REMARK    2  A    between atoms: C_4  and  C_5
DOCKED: REMARK    3  A    between atoms: C_8  and  C_9
DOCKED: REMARK    4  A    between atoms: C_9  and  N_10
DOCKED: REMARK    5  A    between atoms: N_10  and  C_11
DOCKED: REMARK    6  A    between atoms: C_11  and  C_12
DOCKED: REMARK    7  A    between atoms: C_12  and  C_13
DOCKED: REMARK    8  A    between atoms: C_14  and  C_22
DOCKED: REMARK    9  A    between atoms: N_25  and  O_26
DOCKED: REMARK                            x       y       z     vdW  Elec       q    Type
DOCKED: REMARK                         _______ _______ _______ _____ _____    ______ ____
DOCKED: USER                              x       y       z     vdW  Elec       q    Type
DOCKED: USER                           _______ _______ _______ _____ _____    ______ ____
DOCKED: ROOT
DOCKED: ATOM      1  N   UNL     1      37.598  17.992 124.366 -0.20 -0.00    +0.000 N 
DOCKED: ATOM      2  H   UNL     1      38.505  17.704 124.734 -0.02 -0.00    +0.000 HD
DOCKED: ATOM      3  H   UNL     1      36.833  17.588 124.906 -0.02 -0.00    +0.000 HD
DOCKED: ENDROOT
DOCKED: BRANCH   1   4
DOCKED: ATOM      4  C   UNL     1      37.475  17.511 122.983 -0.20 -0.00    +0.000 C 
DOCKED: BRANCH   4   8
DOCKED: ATOM      5  C   UNL     1      37.315  13.189 123.063 -0.52 -0.00    +0.000 A 
DOCKED: ATOM      6  C   UNL     1      36.210  13.956 123.484 -0.49 -0.00    +0.000 A 
DOCKED: ATOM      7  C   UNL     1      36.263  15.353 123.451 -0.39 -0.00    +0.000 A 
DOCKED: ATOM      8  C   UNL     1      37.409  16.010 122.980 -0.28 -0.00    +0.000 A 
DOCKED: ATOM      9  C   UNL     1      38.510  15.251 122.557 -0.33 -0.00    +0.000 A 
DOCKED: ATOM     10  C   UNL     1      38.457  13.854 122.587 -0.35 -0.00    +0.000 A 
DOCKED: ATOM     11  CM  UNL     1      37.361  14.602 123.021 +0.00 -0.00    +0.000 AC
DOCKED: BRANCH   5  12
DOCKED: ATOM     12  C   UNL     1      37.000  10.961 121.991 -0.56 -0.00    +0.000 C 
DOCKED: ATOM     13  C   UNL     1      37.307  11.705 123.065 -0.51 -0.00    +0.000 C 
DOCKED: BRANCH  11  14
DOCKED: ATOM     14  O   UNL     1      36.985   8.879 120.894 -2.70 -0.00    +0.000 OA
DOCKED: ATOM     15  C   UNL     1      36.991   9.483 121.998 -0.64 -0.00    +0.000 C 
DOCKED: ATOM     16  N   UNL     1      36.964   8.721 123.214 -0.67 -0.00    +0.000 N 
DOCKED: ATOM     17  H   UNL     1      36.871   9.181 124.079 -0.50 -0.00    +0.000 HD
DOCKED: BRANCH  15  17
DOCKED: ATOM     18  O   UNL     1      37.064   7.371 123.172 -2.16 -0.00    +0.000 OA
DOCKED: ATOM     19  H   UNL     1      37.250   7.088 122.263 -0.16 -0.00    +0.000 HD
DOCKED: ENDBRANCH  15  17
DOCKED: ENDBRANCH  11  14
DOCKED: ENDBRANCH   5  12
DOCKED: ENDBRANCH   4   8
DOCKED: ENDBRANCH   1   4
DOCKED: BRANCH   1  19
DOCKED: ATOM     20  C   UNL     1      37.493  19.456 124.457 -0.13 -0.00    +0.000 C 
DOCKED: BRANCH  19  20
DOCKED: ATOM     21  C   UNL     1      36.117  19.915 124.970 -0.17 -0.00    +0.000 C 
DOCKED: BRANCH  20  21
DOCKED: ATOM     22  C   UNL     1      35.213  18.732 125.166 -0.23 -0.00    +0.000 A 
DOCKED: ATOM     23  C   UNL     1      34.535  18.008 124.183 -0.33 -0.00    +0.000 A 
DOCKED: ATOM     24  N   UNL     1      33.760  17.051 124.743 -0.38 -0.00    +0.000 N 
DOCKED: ATOM     25  C   UNL     1      33.923  17.178 126.071 -0.36 -0.00    +0.000 A 
DOCKED: ATOM     26  C   UNL     1      34.794  18.195 126.368 -0.23 -0.00    +0.000 A 
DOCKED: ATOM     27  C   UNL     1      35.103  18.537 127.685 -0.14 -0.00    +0.000 A 
DOCKED: ATOM     28  C   UNL     1      34.497  17.795 128.716 -0.16 -0.00    +0.000 A 
DOCKED: ATOM     29  C   UNL     1      33.603  16.744 128.411 -0.32 -0.00    +0.000 A 
DOCKED: ATOM     30  C   UNL     1      33.307  16.427 127.072 -0.37 -0.00    +0.000 A 
DOCKED: ATOM     31  C   UNL     1      34.654  18.217 122.707 -0.28 -0.00    +0.000 C 
DOCKED: ATOM     32  H   UNL     1      33.194  16.396 124.274 +0.03 -0.00    +0.000 HD
DOCKED: ATOM     33  CM  UNL     1      34.423  17.808 125.288 -0.40 -0.00    +0.000 AC
DOCKED: ATOM     34  CM  UNL     1      34.204  17.479 127.387 -0.01 -0.00    +0.000 AC
DOCKED: ENDBRANCH  20  21
DOCKED: ENDBRANCH  19  20
DOCKED: ENDBRANCH   1  19
DOCKED: TORSDOF 8DOCKED: TER
DOCKED: ENDMDL
________________________________________________________________________________


	BEGINNING GENETIC ALGORITHM DOCKING 27 of 100
Run: 27 Seed: 2040899460 1432574839 [ Run 27 of 100 GA/GALS ]
Beginning LAMARCKIAN GENETIC ALGORITHM (LGA), with a maximum of 2500000 energy evaluations.

Final-Value: -15.187


	FINAL GENETIC ALGORITHM DOCKED STATE
	_______________________________________________


Detailed state:  trans 38.363 17.208 122.037 quatxyzw 0.639620 -0.679039 -0.272271 -0.235925 center 0.698 0.076 -0.072 ntor 8 167.1749 179.9408 -177.0718 -179.3770 180.0000 74.1352 180.0000 16.9483
State:	 38.363  17.208 122.037   0.658 -0.699 -0.280 -152.708    167.17  179.94 -177.07 -179.38  180.00   74.14  180.00   16.95

DOCKED: MODEL       27
DOCKED: USER    Run = 27
DOCKED: USER    DPF = ligand_dock.biased.dpf
DOCKED: USER  
DOCKED: USER    Estimated Free Energy of Binding    =  -10.95 kcal/mol  [=(1)+(2)+(3)-(4)]
DOCKED: USER    Estimated Inhibition Constant, Ki   =    9.36 nM (nanomolar)  [Temperature = 298.15 K]
DOCKED: USER    
DOCKED: USER    (1) Final Intermolecular Energy     =  -13.34 kcal/mol
DOCKED: USER        vdW + Hbond + desolv Energy     =  -13.34 kcal/mol
DOCKED: USER        Electrostatic Energy            =   +0.00 kcal/mol
DOCKED: USER    (2) Final Total Internal Energy     =   -1.85 kcal/mol
DOCKED: USER    (3) Torsional Free Energy           =   +2.39 kcal/mol
DOCKED: USER    (4) Unbound System's Energy  [=(2)] =   -1.85 kcal/mol
DOCKED: USER    
DOCKED: USER    
DOCKED: USER    NEWDPF move ligand.dum.pdbqt
DOCKED: USER    NEWDPF about 0.698000 0.076000 -0.072000
DOCKED: USER    NEWDPF tran0 38.362743 17.207845 122.036818
DOCKED: USER    NEWDPF quaternion0 0.639620 -0.679039 -0.272271 -0.235925
DOCKED: USER    NEWDPF axisangle0 0.658200 -0.698764 -0.280180 -152.707638
DOCKED: USER    NEWDPF quat0 0.658200 -0.698764 -0.280180 -152.707638
DOCKED: USER    NEWDPF dihe0 167.17 179.94 -177.07 -179.38 180.00 74.14 180.00 16.95 
DOCKED: USER  keepresnum = 1 
DOCKED: USER  
DOCKED: REMARK  Name = 
DOCKED: REMARK  9 active torsions:
DOCKED: REMARK  status: ('A' for Active; 'I' for Inactive)
DOCKED: REMARK    1  A    between atoms: C_2  and  C_3
DOCKED: REMARK    2  A    between atoms: C_4  and  C_5
DOCKED: REMARK    3  A    between atoms: C_8  and  C_9
DOCKED: REMARK    4  A    between atoms: C_9  and  N_10
DOCKED: REMARK    5  A    between atoms: N_10  and  C_11
DOCKED: REMARK    6  A    between atoms: C_11  and  C_12
DOCKED: REMARK    7  A    between atoms: C_12  and  C_13
DOCKED: REMARK    8  A    between atoms: C_14  and  C_22
DOCKED: REMARK    9  A    between atoms: N_25  and  O_26
DOCKED: REMARK                            x       y       z     vdW  Elec       q    Type
DOCKED: REMARK                         _______ _______ _______ _____ _____    ______ ____
DOCKED: USER                              x       y       z     vdW  Elec       q    Type
DOCKED: USER                           _______ _______ _______ _____ _____    ______ ____
DOCKED: ROOT
DOCKED: ATOM      1  N   UNL     1      38.159  18.199 122.621 -0.11 -0.00    +0.000 N 
DOCKED: ATOM      2  H   UNL     1      38.978  18.051 123.212 +0.00 -0.00    +0.000 HD
DOCKED: ATOM      3  H   UNL     1      37.344  17.710 122.988 +0.00 -0.00    +0.000 HD
DOCKED: ENDROOT
DOCKED: BRANCH   1   4
DOCKED: ATOM      4  C   UNL     1      38.440  17.664 121.282 -0.09 -0.00    +0.000 C 
DOCKED: BRANCH   4   8
DOCKED: ATOM      5  C   UNL     1      37.402  13.465 121.198 -0.40 -0.00    +0.000 A 
DOCKED: ATOM      6  C   UNL     1      37.438  14.219 120.008 -0.31 -0.00    +0.000 A 
DOCKED: ATOM      7  C   UNL     1      37.780  15.575 120.038 -0.19 -0.00    +0.000 A 
DOCKED: ATOM      8  C   UNL     1      38.112  16.198 121.250 -0.16 -0.00    +0.000 A 
DOCKED: ATOM      9  C   UNL     1      38.081  15.450 122.437 -0.30 -0.00    +0.000 A 
DOCKED: ATOM     10  C   UNL     1      37.741  14.094 122.408 -0.42 -0.00    +0.000 A 
DOCKED: ATOM     11  CM  UNL     1      37.758  14.833 121.223 +0.00 -0.00    +0.000 AC
DOCKED: BRANCH   5  12
DOCKED: ATOM     12  C   UNL     1      37.376  11.197 122.232 -0.20 -0.00    +0.000 C 
DOCKED: ATOM     13  C   UNL     1      37.059  12.022 121.222 -0.55 -0.00    +0.000 C 
DOCKED: BRANCH  11  14
DOCKED: ATOM     14  O   UNL     1      36.697   9.211 121.168 -2.63 -0.00    +0.000 OA
DOCKED: ATOM     15  C   UNL     1      37.034   9.760 122.250 -0.60 -0.00    +0.000 C 
DOCKED: ATOM     16  N   UNL     1      37.048   8.982 123.455 -0.59 -0.00    +0.000 N 
DOCKED: ATOM     17  H   UNL     1      37.215   9.420 124.320 -0.57 -0.00    +0.000 HD
DOCKED: BRANCH  15  17
DOCKED: ATOM     18  O   UNL     1      36.831   7.646 123.404 -2.16 -0.00    +0.000 OA
DOCKED: ATOM     19  H   UNL     1      37.070   7.246 124.255 -0.52 -0.00    +0.000 HD
DOCKED: ENDBRANCH  15  17
DOCKED: ENDBRANCH  11  14
DOCKED: ENDBRANCH   5  12
DOCKED: ENDBRANCH   4   8
DOCKED: ENDBRANCH   1   4
DOCKED: BRANCH   1  19
DOCKED: ATOM     20  C   UNL     1      37.849  19.637 122.591 -0.09 -0.00    +0.000 C 
DOCKED: BRANCH  19  20
DOCKED: ATOM     21  C   UNL     1      36.343  19.915 122.732 -0.17 -0.00    +0.000 C 
DOCKED: BRANCH  20  21
DOCKED: ATOM     22  C   UNL     1      35.595  18.632 122.959 -0.22 -0.00    +0.000 A 
DOCKED: ATOM     23  C   UNL     1      35.086  17.762 121.993 -0.29 -0.00    +0.000 A 
DOCKED: ATOM     24  N   UNL     1      34.412  16.743 122.575 -0.39 -0.00    +0.000 N 
DOCKED: ATOM     25  C   UNL     1      34.470  16.973 123.898 -0.42 -0.00    +0.000 A 
DOCKED: ATOM     26  C   UNL     1      35.176  18.117 124.171 -0.29 -0.00    +0.000 A 
DOCKED: ATOM     27  C   UNL     1      35.350  18.579 125.476 -0.22 -0.00    +0.000 A 
DOCKED: ATOM     28  C   UNL     1      34.784  17.825 126.521 -0.18 -0.00    +0.000 A 
DOCKED: ATOM     29  C   UNL     1      34.061  16.644 126.240 -0.30 -0.00    +0.000 A 
DOCKED: ATOM     30  C   UNL     1      33.897  16.207 124.913 -0.29 -0.00    +0.000 A 
DOCKED: ATOM     31  C   UNL     1      35.270  17.894 120.515 -0.25 -0.00    +0.000 C 
DOCKED: ATOM     32  H   UNL     1      33.970  15.989 122.122 +0.00 -0.00    +0.000 HD
DOCKED: ATOM     33  CM  UNL     1      34.931  17.617 123.101 -0.04 -0.00    +0.000 AC
DOCKED: ATOM     34  CM  UNL     1      34.623  17.390 125.203 -0.40 -0.00    +0.000 AC
DOCKED: ENDBRANCH  20  21
DOCKED: ENDBRANCH  19  20
DOCKED: ENDBRANCH   1  19
DOCKED: TORSDOF 8DOCKED: TER
DOCKED: ENDMDL
________________________________________________________________________________


	BEGINNING GENETIC ALGORITHM DOCKING 28 of 100
Run: 28 Seed: 1395313895 1220179358 [ Run 28 of 100 GA/GALS ]
Beginning LAMARCKIAN GENETIC ALGORITHM (LGA), with a maximum of 2500000 energy evaluations.

Final-Value: -15.241


	FINAL GENETIC ALGORITHM DOCKED STATE
	_______________________________________________


Detailed state:  trans 35.728 17.618 123.586 quatxyzw 0.160084 -0.321746 -0.223952 0.905924 center 0.698 0.076 -0.072 ntor 8 3.3203 128.2143 11.6722 -35.9067 8.4723 -144.6993 -178.8355 -87.3834
State:	 35.728  17.618 123.586   0.378 -0.760 -0.529 50.104      3.32  128.21   11.67  -35.91    8.47 -144.70 -178.84  -87.38

DOCKED: MODEL       28
DOCKED: USER    Run = 28
DOCKED: USER    DPF = ligand_dock.biased.dpf
DOCKED: USER  
DOCKED: USER    Estimated Free Energy of Binding    =  -11.35 kcal/mol  [=(1)+(2)+(3)-(4)]
DOCKED: USER    Estimated Inhibition Constant, Ki   =    4.80 nM (nanomolar)  [Temperature = 298.15 K]
DOCKED: USER    
DOCKED: USER    (1) Final Intermolecular Energy     =  -13.74 kcal/mol
DOCKED: USER        vdW + Hbond + desolv Energy     =  -13.74 kcal/mol
DOCKED: USER        Electrostatic Energy            =   +0.00 kcal/mol
DOCKED: USER    (2) Final Total Internal Energy     =   -1.51 kcal/mol
DOCKED: USER    (3) Torsional Free Energy           =   +2.39 kcal/mol
DOCKED: USER    (4) Unbound System's Energy  [=(2)] =   -1.51 kcal/mol
DOCKED: USER    
DOCKED: USER    
DOCKED: USER    NEWDPF move ligand.dum.pdbqt
DOCKED: USER    NEWDPF about 0.698000 0.076000 -0.072000
DOCKED: USER    NEWDPF tran0 35.728316 17.617851 123.586288
DOCKED: USER    NEWDPF quaternion0 0.160084 -0.321746 -0.223952 0.905924
DOCKED: USER    NEWDPF axisangle0 0.378055 -0.759838 -0.528886 50.104041
DOCKED: USER    NEWDPF quat0 0.378055 -0.759838 -0.528886 50.104041
DOCKED: USER    NEWDPF dihe0 3.32 128.21 11.67 -35.91 8.47 -144.70 -178.84 -87.38 
DOCKED: USER  keepresnum = 1 
DOCKED: USER  
DOCKED: REMARK  Name = 
DOCKED: REMARK  9 active torsions:
DOCKED: REMARK  status: ('A' for Active; 'I' for Inactive)
DOCKED: REMARK    1  A    between atoms: C_2  and  C_3
DOCKED: REMARK    2  A    between atoms: C_4  and  C_5
DOCKED: REMARK    3  A    between atoms: C_8  and  C_9
DOCKED: REMARK    4  A    between atoms: C_9  and  N_10
DOCKED: REMARK    5  A    between atoms: N_10  and  C_11
DOCKED: REMARK    6  A    between atoms: C_11  and  C_12
DOCKED: REMARK    7  A    between atoms: C_12  and  C_13
DOCKED: REMARK    8  A    between atoms: C_14  and  C_22
DOCKED: REMARK    9  A    between atoms: N_25  and  O_26
DOCKED: REMARK                            x       y       z     vdW  Elec       q    Type
DOCKED: REMARK                         _______ _______ _______ _____ _____    ______ ____
DOCKED: USER                              x       y       z     vdW  Elec       q    Type
DOCKED: USER                           _______ _______ _______ _____ _____    ______ ____
DOCKED: ROOT
DOCKED: ATOM      1  N   UNL     1      34.632  17.707 123.980 -0.35 -0.00    +0.000 N 
DOCKED: ATOM      2  H   UNL     1      34.283  17.116 123.226 -0.02 -0.00    +0.000 HD
DOCKED: ATOM      3  H   UNL     1      34.701  18.681 123.687 -0.01 -0.00    +0.000 HD
DOCKED: ENDROOT
DOCKED: BRANCH   1   4
DOCKED: ATOM      4  C   UNL     1      35.979  17.253 124.353 -0.31 -0.00    +0.000 C 
DOCKED: BRANCH   4   8
DOCKED: ATOM      5  C   UNL     1      36.656  13.215 122.957 -0.52 -0.00    +0.000 A 
DOCKED: ATOM      6  C   UNL     1      35.634  13.490 123.887 -0.39 -0.00    +0.000 A 
DOCKED: ATOM      7  C   UNL     1      35.414  14.798 124.332 -0.42 -0.00    +0.000 A 
DOCKED: ATOM      8  C   UNL     1      36.194  15.856 123.842 -0.36 -0.00    +0.000 A 
DOCKED: ATOM      9  C   UNL     1      37.211  15.587 122.914 -0.32 -0.00    +0.000 A 
DOCKED: ATOM     10  C   UNL     1      37.430  14.280 122.468 -0.40 -0.00    +0.000 A 
DOCKED: ATOM     11  CM  UNL     1      36.423  14.537 123.400 +0.00 -0.00    +0.000 AC
DOCKED: BRANCH   5  12
DOCKED: ATOM     12  C   UNL     1      36.378  10.738 122.961 -0.70 -0.00    +0.000 C 
DOCKED: ATOM     13  C   UNL     1      36.924  11.849 122.443 -0.62 -0.00    +0.000 C 
DOCKED: BRANCH  11  14
DOCKED: ATOM     14  O   UNL     1      36.810   9.228 121.208 -2.66 -0.00    +0.000 OA
DOCKED: ATOM     15  C   UNL     1      36.650   9.379 122.447 -0.73 -0.00    +0.000 C 
DOCKED: ATOM     16  N   UNL     1      36.710   8.231 123.306 -0.71 -0.00    +0.000 N 
DOCKED: ATOM     17  H   UNL     1      36.491   8.321 124.261 -0.30 -0.00    +0.000 HD
DOCKED: BRANCH  15  17
DOCKED: ATOM     18  O   UNL     1      37.067   7.025 122.804 -1.74 -0.00    +0.000 OA
DOCKED: ATOM     19  H   UNL     1      37.298   7.119 121.867 -0.16 -0.00    +0.000 HD
DOCKED: ENDBRANCH  15  17
DOCKED: ENDBRANCH  11  14
DOCKED: ENDBRANCH   5  12
DOCKED: ENDBRANCH   4   8
DOCKED: ENDBRANCH   1   4
DOCKED: BRANCH   1  19
DOCKED: ATOM     20  C   UNL     1      33.691  17.641 125.109 -0.36 -0.00    +0.000 C 
DOCKED: BRANCH  19  20
DOCKED: ATOM     21  C   UNL     1      33.399  19.026 125.711 -0.27 -0.00    +0.000 C 
DOCKED: BRANCH  20  21
DOCKED: ATOM     22  C   UNL     1      32.687  18.883 127.026 -0.23 -0.00    +0.000 A 
DOCKED: ATOM     23  C   UNL     1      33.106  18.164 128.147 -0.21 -0.00    +0.000 A 
DOCKED: ATOM     24  N   UNL     1      32.169  18.210 129.122 -0.19 -0.00    +0.000 N 
DOCKED: ATOM     25  C   UNL     1      31.152  18.931 128.621 -0.21 -0.00    +0.000 A 
DOCKED: ATOM     26  C   UNL     1      31.426  19.353 127.344 -0.23 -0.00    +0.000 A 
DOCKED: ATOM     27  C   UNL     1      30.508  20.098 126.603 -0.15 -0.00    +0.000 A 
DOCKED: ATOM     28  C   UNL     1      29.280  20.418 127.211 -0.38 -0.00    +0.000 A 
DOCKED: ATOM     29  C   UNL     1      28.999  19.988 128.527 -0.36 -0.00    +0.000 A 
DOCKED: ATOM     30  C   UNL     1      29.943  19.233 129.247 -0.28 -0.00    +0.000 A 
DOCKED: ATOM     31  C   UNL     1      34.417  17.458 128.291 -0.16 -0.00    +0.000 C 
DOCKED: ATOM     32  H   UNL     1      32.223  17.800 130.016 +0.00 -0.00    +0.000 HD
DOCKED: ATOM     33  CM  UNL     1      32.111  18.692 128.086 +0.00 -0.00    +0.000 AC
DOCKED: ATOM     34  CM  UNL     1      30.218  19.670 127.926 +0.00 -0.00    +0.000 AC
DOCKED: ENDBRANCH  20  21
DOCKED: ENDBRANCH  19  20
DOCKED: ENDBRANCH   1  19
DOCKED: TORSDOF 8DOCKED: TER
DOCKED: ENDMDL
________________________________________________________________________________


	BEGINNING GENETIC ALGORITHM DOCKING 29 of 100
Run: 29 Seed: 897651056 379153856 [ Run 29 of 100 GA/GALS ]
Beginning LAMARCKIAN GENETIC ALGORITHM (LGA), with a maximum of 2500000 energy evaluations.

Final-Value: -15.087


	FINAL GENETIC ALGORITHM DOCKED STATE
	_______________________________________________


Detailed state:  trans 37.411 17.407 122.911 quatxyzw -0.280376 -0.055404 -0.211399 -0.934682 center 0.698 0.076 -0.072 ntor 8 2.9244 -80.5449 -166.6158 161.5078 101.4475 163.9858 -19.8307 -74.6162
State:	 37.411  17.407 122.911  -0.789 -0.156 -0.595 -41.646      2.92  -80.54 -166.62  161.51  101.45  163.99  -19.83  -74.62

DOCKED: MODEL       29
DOCKED: USER    Run = 29
DOCKED: USER    DPF = ligand_dock.biased.dpf
DOCKED: USER  
DOCKED: USER    Estimated Free Energy of Binding    =  -10.49 kcal/mol  [=(1)+(2)+(3)-(4)]
DOCKED: USER    Estimated Inhibition Constant, Ki   =   20.40 nM (nanomolar)  [Temperature = 298.15 K]
DOCKED: USER    
DOCKED: USER    (1) Final Intermolecular Energy     =  -12.88 kcal/mol
DOCKED: USER        vdW + Hbond + desolv Energy     =  -12.88 kcal/mol
DOCKED: USER        Electrostatic Energy            =   +0.00 kcal/mol
DOCKED: USER    (2) Final Total Internal Energy     =   -2.21 kcal/mol
DOCKED: USER    (3) Torsional Free Energy           =   +2.39 kcal/mol
DOCKED: USER    (4) Unbound System's Energy  [=(2)] =   -2.21 kcal/mol
DOCKED: USER    
DOCKED: USER    
DOCKED: USER    NEWDPF move ligand.dum.pdbqt
DOCKED: USER    NEWDPF about 0.698000 0.076000 -0.072000
DOCKED: USER    NEWDPF tran0 37.411439 17.407319 122.910788
DOCKED: USER    NEWDPF quaternion0 -0.280376 -0.055404 -0.211399 -0.934682
DOCKED: USER    NEWDPF axisangle0 -0.788713 -0.155855 -0.594677 -41.646468
DOCKED: USER    NEWDPF quat0 -0.788713 -0.155855 -0.594677 -41.646468
DOCKED: USER    NEWDPF dihe0 2.92 -80.54 -166.62 161.51 101.45 163.99 -19.83 -74.62 
DOCKED: USER  keepresnum = 1 
DOCKED: USER  
DOCKED: REMARK  Name = 
DOCKED: REMARK  9 active torsions:
DOCKED: REMARK  status: ('A' for Active; 'I' for Inactive)
DOCKED: REMARK    1  A    between atoms: C_2  and  C_3
DOCKED: REMARK    2  A    between atoms: C_4  and  C_5
DOCKED: REMARK    3  A    between atoms: C_8  and  C_9
DOCKED: REMARK    4  A    between atoms: C_9  and  N_10
DOCKED: REMARK    5  A    between atoms: N_10  and  C_11
DOCKED: REMARK    6  A    between atoms: C_11  and  C_12
DOCKED: REMARK    7  A    between atoms: C_12  and  C_13
DOCKED: REMARK    8  A    between atoms: C_14  and  C_22
DOCKED: REMARK    9  A    between atoms: N_25  and  O_26
DOCKED: REMARK                            x       y       z     vdW  Elec       q    Type
DOCKED: REMARK                         _______ _______ _______ _____ _____    ______ ____
DOCKED: USER                              x       y       z     vdW  Elec       q    Type
DOCKED: USER                           _______ _______ _______ _____ _____    ______ ____
DOCKED: ROOT
DOCKED: ATOM      1  N   UNL     1      36.758  18.076 122.211 -0.14 -0.00    +0.000 N 
DOCKED: ATOM      2  H   UNL     1      36.718  17.344 121.502 +0.00 -0.00    +0.000 HD
DOCKED: ATOM      3  H   UNL     1      37.601  18.641 122.113 +0.00 -0.00    +0.000 HD
DOCKED: ENDROOT
DOCKED: BRANCH   1   4
DOCKED: ATOM      4  C   UNL     1      36.788  17.448 123.538 -0.25 -0.00    +0.000 C 
DOCKED: BRANCH   4   8
DOCKED: ATOM      5  C   UNL     1      36.330  13.160 123.204 -0.54 -0.00    +0.000 A 
DOCKED: ATOM      6  C   UNL     1      35.334  13.942 123.821 -0.36 -0.00    +0.000 A 
DOCKED: ATOM      7  C   UNL     1      35.482  15.328 123.922 -0.46 -0.00    +0.000 A 
DOCKED: ATOM      8  C   UNL     1      36.615  15.962 123.393 -0.33 -0.00    +0.000 A 
DOCKED: ATOM      9  C   UNL     1      37.609  15.188 122.775 -0.34 -0.00    +0.000 A 
DOCKED: ATOM     10  C   UNL     1      37.461  13.802 122.672 -0.45 -0.00    +0.000 A 
DOCKED: ATOM     11  CM  UNL     1      36.472  14.563 123.298 +0.00 -0.00    +0.000 AC
DOCKED: BRANCH   5  12
DOCKED: ATOM     12  C   UNL     1      37.059  10.945 122.323 -0.56 -0.00    +0.000 C 
DOCKED: ATOM     13  C   UNL     1      36.218  11.687 123.059 -0.69 -0.00    +0.000 C 
DOCKED: BRANCH  11  14
DOCKED: ATOM     14  O   UNL     1      36.689   9.007 121.040 -2.61 -0.00    +0.000 OA
DOCKED: ATOM     15  C   UNL     1      36.941   9.479 122.180 -0.65 -0.00    +0.000 C 
DOCKED: ATOM     16  N   UNL     1      37.077   8.585 123.293 -0.68 -0.00    +0.000 N 
DOCKED: ATOM     17  H   UNL     1      37.177   8.946 124.203 -0.56 -0.00    +0.000 HD
DOCKED: BRANCH  15  17
DOCKED: ATOM     18  O   UNL     1      37.066   7.245 123.094 -2.06 -0.00    +0.000 OA
DOCKED: ATOM     19  H   UNL     1      37.007   7.058 122.144 -0.11 -0.00    +0.000 HD
DOCKED: ENDBRANCH  15  17
DOCKED: ENDBRANCH  11  14
DOCKED: ENDBRANCH   5  12
DOCKED: ENDBRANCH   4   8
DOCKED: ENDBRANCH   1   4
DOCKED: BRANCH   1  19
DOCKED: ATOM     20  C   UNL     1      35.597  18.964 122.042 -0.22 -0.00    +0.000 C 
DOCKED: BRANCH  19  20
DOCKED: ATOM     21  C   UNL     1      34.428  18.270 121.322 -0.32 -0.00    +0.000 C 
DOCKED: BRANCH  20  21
DOCKED: ATOM     22  C   UNL     1      34.725  18.137 119.855 -0.23 -0.00    +0.000 A 
DOCKED: ATOM     23  C   UNL     1      34.160  18.861 118.804 -0.20 -0.00    +0.000 A 
DOCKED: ATOM     24  N   UNL     1      34.624  18.416 117.613 -0.10 -0.00    +0.000 N 
DOCKED: ATOM     25  C   UNL     1      35.459  17.403 117.900 -0.11 -0.00    +0.000 A 
DOCKED: ATOM     26  C   UNL     1      35.542  17.198 119.254 -0.13 -0.00    +0.000 A 
DOCKED: ATOM     27  C   UNL     1      36.328  16.181 119.796 -0.13 -0.00    +0.000 A 
DOCKED: ATOM     28  C   UNL     1      37.052  15.365 118.907 -0.20 -0.00    +0.000 A 
DOCKED: ATOM     29  C   UNL     1      36.971  15.579 117.513 -0.16 -0.00    +0.000 A 
DOCKED: ATOM     30  C   UNL     1      36.165  16.610 116.995 -0.10 -0.00    +0.000 A 
DOCKED: ATOM     31  C   UNL     1      33.197  19.997 118.944 -0.19 -0.00    +0.000 C 
DOCKED: ATOM     32  H   UNL     1      34.397  18.765 116.720 +0.00 -0.00    +0.000 HD
DOCKED: ATOM     33  CM  UNL     1      34.893  18.016 118.651 +0.00 -0.00    +0.000 AC
DOCKED: ATOM     34  CM  UNL     1      36.253  16.390 118.394 +0.00 -0.00    +0.000 AC
DOCKED: ENDBRANCH  20  21
DOCKED: ENDBRANCH  19  20
DOCKED: ENDBRANCH   1  19
DOCKED: TORSDOF 8DOCKED: TER
DOCKED: ENDMDL
________________________________________________________________________________


	BEGINNING GENETIC ALGORITHM DOCKING 30 of 100
Run: 30 Seed: 937962903 1626532108 [ Run 30 of 100 GA/GALS ]
Beginning LAMARCKIAN GENETIC ALGORITHM (LGA), with a maximum of 2500000 energy evaluations.

Final-Value: -16.456


	FINAL GENETIC ALGORITHM DOCKED STATE
	_______________________________________________


Detailed state:  trans 35.943 18.102 123.004 quatxyzw -0.008842 -0.822084 -0.251837 0.510566 center 0.698 0.076 -0.072 ntor 8 2.6484 -37.6836 -179.5614 11.2823 35.9408 -66.7712 149.8830 -107.4931
State:	 35.943  18.102 123.004  -0.010 -0.956 -0.293 118.597      2.65  -37.68 -179.56   11.28   35.94  -66.77  149.88 -107.49

DOCKED: MODEL       30
DOCKED: USER    Run = 30
DOCKED: USER    DPF = ligand_dock.biased.dpf
DOCKED: USER  
DOCKED: USER    Estimated Free Energy of Binding    =  -12.25 kcal/mol  [=(1)+(2)+(3)-(4)]
DOCKED: USER    Estimated Inhibition Constant, Ki   =    1.04 nM (nanomolar)  [Temperature = 298.15 K]
DOCKED: USER    
DOCKED: USER    (1) Final Intermolecular Energy     =  -14.64 kcal/mol
DOCKED: USER        vdW + Hbond + desolv Energy     =  -14.64 kcal/mol
DOCKED: USER        Electrostatic Energy            =   +0.00 kcal/mol
DOCKED: USER    (2) Final Total Internal Energy     =   -1.82 kcal/mol
DOCKED: USER    (3) Torsional Free Energy           =   +2.39 kcal/mol
DOCKED: USER    (4) Unbound System's Energy  [=(2)] =   -1.82 kcal/mol
DOCKED: USER    
DOCKED: USER    
DOCKED: USER    NEWDPF move ligand.dum.pdbqt
DOCKED: USER    NEWDPF about 0.698000 0.076000 -0.072000
DOCKED: USER    NEWDPF tran0 35.943162 18.101742 123.003973
DOCKED: USER    NEWDPF quaternion0 -0.008842 -0.822084 -0.251837 0.510566
DOCKED: USER    NEWDPF axisangle0 -0.010284 -0.956091 -0.292889 118.596922
DOCKED: USER    NEWDPF quat0 -0.010284 -0.956091 -0.292889 118.596922
DOCKED: USER    NEWDPF dihe0 2.65 -37.68 -179.56 11.28 35.94 -66.77 149.88 -107.49 
DOCKED: USER  keepresnum = 1 
DOCKED: USER  
DOCKED: REMARK  Name = 
DOCKED: REMARK  9 active torsions:
DOCKED: REMARK  status: ('A' for Active; 'I' for Inactive)
DOCKED: REMARK    1  A    between atoms: C_2  and  C_3
DOCKED: REMARK    2  A    between atoms: C_4  and  C_5
DOCKED: REMARK    3  A    between atoms: C_8  and  C_9
DOCKED: REMARK    4  A    between atoms: C_9  and  N_10
DOCKED: REMARK    5  A    between atoms: N_10  and  C_11
DOCKED: REMARK    6  A    between atoms: C_11  and  C_12
DOCKED: REMARK    7  A    between atoms: C_12  and  C_13
DOCKED: REMARK    8  A    between atoms: C_14  and  C_22
DOCKED: REMARK    9  A    between atoms: N_25  and  O_26
DOCKED: REMARK                            x       y       z     vdW  Elec       q    Type
DOCKED: REMARK                         _______ _______ _______ _____ _____    ______ ____
DOCKED: USER                              x       y       z     vdW  Elec       q    Type
DOCKED: USER                           _______ _______ _______ _____ _____    ______ ____
DOCKED: ROOT
DOCKED: ATOM      1  N   UNL     1      36.084  18.243 124.155 -0.22 -0.00    +0.000 N 
DOCKED: ATOM      2  H   UNL     1      35.261  17.673 124.353 -0.00 -0.00    +0.000 HD
DOCKED: ATOM      3  H   UNL     1      35.828  19.214 123.977 -0.00 -0.00    +0.000 HD
DOCKED: ENDROOT
DOCKED: BRANCH   1   4
DOCKED: ATOM      4  C   UNL     1      36.740  17.721 122.949 -0.21 -0.00    +0.000 C 
DOCKED: BRANCH   4   8
DOCKED: ATOM      5  C   UNL     1      36.620  13.398 123.034 -0.51 -0.00    +0.000 A 
DOCKED: ATOM      6  C   UNL     1      35.781  14.156 123.876 -0.49 -0.00    +0.000 A 
DOCKED: ATOM      7  C   UNL     1      35.819  15.553 123.842 -0.42 -0.00    +0.000 A 
DOCKED: ATOM      8  C   UNL     1      36.676  16.220 122.954 -0.28 -0.00    +0.000 A 
DOCKED: ATOM      9  C   UNL     1      37.511  15.469 122.112 -0.27 -0.00    +0.000 A 
DOCKED: ATOM     10  C   UNL     1      37.472  14.072 122.145 -0.40 -0.00    +0.000 A 
DOCKED: ATOM     11  CM  UNL     1      36.647  14.811 122.994 +0.00 -0.00    +0.000 AC
DOCKED: BRANCH   5  12
DOCKED: ATOM     12  C   UNL     1      37.043  11.176 121.987 -0.55 -0.00    +0.000 C 
DOCKED: ATOM     13  C   UNL     1      36.611  11.914 123.022 -0.68 -0.00    +0.000 C 
DOCKED: BRANCH  11  14
DOCKED: ATOM     14  O   UNL     1      37.054   9.106 120.867 -2.73 -0.00    +0.000 OA
DOCKED: ATOM     15  C   UNL     1      37.031   9.698 121.978 -0.60 -0.00    +0.000 C 
DOCKED: ATOM     16  N   UNL     1      36.967   8.923 123.183 -0.66 -0.00    +0.000 N 
DOCKED: ATOM     17  H   UNL     1      36.851   9.373 124.051 -0.50 -0.00    +0.000 HD
DOCKED: BRANCH  15  17
DOCKED: ATOM     18  O   UNL     1      37.065   7.573 123.129 -2.27 -0.00    +0.000 OA
DOCKED: ATOM     19  H   UNL     1      37.216   7.296 122.212 -0.11 -0.00    +0.000 HD
DOCKED: ENDBRANCH  15  17
DOCKED: ENDBRANCH  11  14
DOCKED: ENDBRANCH   5  12
DOCKED: ENDBRANCH   4   8
DOCKED: ENDBRANCH   1   4
DOCKED: BRANCH   1  19
DOCKED: ATOM     20  C   UNL     1      36.972  18.217 125.327 -0.14 -0.00    +0.000 C 
DOCKED: BRANCH  19  20
DOCKED: ATOM     21  C   UNL     1      38.068  19.294 125.256 -0.15 -0.00    +0.000 C 
DOCKED: BRANCH  20  21
DOCKED: ATOM     22  C   UNL     1      39.372  18.745 125.760 -0.20 -0.00    +0.000 A 
DOCKED: ATOM     23  C   UNL     1      40.471  18.332 125.003 -0.27 -0.00    +0.000 A 
DOCKED: ATOM     24  N   UNL     1      41.441  17.831 125.802 -0.33 -0.00    +0.000 N 
DOCKED: ATOM     25  C   UNL     1      40.958  17.900 127.054 -0.37 -0.00    +0.000 A 
DOCKED: ATOM     26  C   UNL     1      39.698  18.444 127.069 -0.23 -0.00    +0.000 A 
DOCKED: ATOM     27  C   UNL     1      38.977  18.596 128.254 -0.20 -0.00    +0.000 A 
DOCKED: ATOM     28  C   UNL     1      39.586  18.178 129.452 -0.26 -0.00    +0.000 A 
DOCKED: ATOM     29  C   UNL     1      40.885  17.623 129.437 -0.39 -0.00    +0.000 A 
DOCKED: ATOM     30  C   UNL     1      41.585  17.477 128.226 -0.47 -0.00    +0.000 A 
DOCKED: ATOM     31  C   UNL     1      40.600  18.446 123.517 -0.20 -0.00    +0.000 C 
DOCKED: ATOM     32  H   UNL     1      42.320  17.486 125.523 -0.53 -0.00    +0.000 HD
DOCKED: ATOM     33  CM  UNL     1      40.421  18.237 126.127 +0.00 -0.00    +0.000 AC
DOCKED: ATOM     34  CM  UNL     1      40.282  18.036 128.248 +0.00 -0.00    +0.000 AC
DOCKED: ENDBRANCH  20  21
DOCKED: ENDBRANCH  19  20
DOCKED: ENDBRANCH   1  19
DOCKED: TORSDOF 8DOCKED: TER
DOCKED: ENDMDL
________________________________________________________________________________


	BEGINNING GENETIC ALGORITHM DOCKING 31 of 100
Run: 31 Seed: 706651746 208171687 [ Run 31 of 100 GA/GALS ]
Beginning LAMARCKIAN GENETIC ALGORITHM (LGA), with a maximum of 2500000 energy evaluations.

Final-Value: -15.132


	FINAL GENETIC ALGORITHM DOCKED STATE
	_______________________________________________


Detailed state:  trans 36.052 18.195 122.699 quatxyzw 0.437113 0.532400 -0.579504 -0.435497 center 0.698 0.076 -0.072 ntor 8 -0.8646 -7.4604 -13.3622 -15.2821 172.6091 -147.3002 -141.0894 104.9907
State:	 36.052  18.195 122.699   0.486  0.591 -0.644 -128.366     -0.86   -7.46  -13.36  -15.28  172.61 -147.30 -141.09  104.99

DOCKED: MODEL       31
DOCKED: USER    Run = 31
DOCKED: USER    DPF = ligand_dock.biased.dpf
DOCKED: USER  
DOCKED: USER    Estimated Free Energy of Binding    =  -10.22 kcal/mol  [=(1)+(2)+(3)-(4)]
DOCKED: USER    Estimated Inhibition Constant, Ki   =   32.22 nM (nanomolar)  [Temperature = 298.15 K]
DOCKED: USER    
DOCKED: USER    (1) Final Intermolecular Energy     =  -12.61 kcal/mol
DOCKED: USER        vdW + Hbond + desolv Energy     =  -12.61 kcal/mol
DOCKED: USER        Electrostatic Energy            =   +0.00 kcal/mol
DOCKED: USER    (2) Final Total Internal Energy     =   -2.53 kcal/mol
DOCKED: USER    (3) Torsional Free Energy           =   +2.39 kcal/mol
DOCKED: USER    (4) Unbound System's Energy  [=(2)] =   -2.53 kcal/mol
DOCKED: USER    
DOCKED: USER    
DOCKED: USER    NEWDPF move ligand.dum.pdbqt
DOCKED: USER    NEWDPF about 0.698000 0.076000 -0.072000
DOCKED: USER    NEWDPF tran0 36.052399 18.195412 122.699012
DOCKED: USER    NEWDPF quaternion0 0.437113 0.532400 -0.579504 -0.435497
DOCKED: USER    NEWDPF axisangle0 0.485578 0.591430 -0.643758 -128.366194
DOCKED: USER    NEWDPF quat0 0.485578 0.591430 -0.643758 -128.366194
DOCKED: USER    NEWDPF dihe0 -0.86 -7.46 -13.36 -15.28 172.61 -147.30 -141.09 104.99 
DOCKED: USER  keepresnum = 1 
DOCKED: USER  
DOCKED: REMARK  Name = 
DOCKED: REMARK  9 active torsions:
DOCKED: REMARK  status: ('A' for Active; 'I' for Inactive)
DOCKED: REMARK    1  A    between atoms: C_2  and  C_3
DOCKED: REMARK    2  A    between atoms: C_4  and  C_5
DOCKED: REMARK    3  A    between atoms: C_8  and  C_9
DOCKED: REMARK    4  A    between atoms: C_9  and  N_10
DOCKED: REMARK    5  A    between atoms: N_10  and  C_11
DOCKED: REMARK    6  A    between atoms: C_11  and  C_12
DOCKED: REMARK    7  A    between atoms: C_12  and  C_13
DOCKED: REMARK    8  A    between atoms: C_14  and  C_22
DOCKED: REMARK    9  A    between atoms: N_25  and  O_26
DOCKED: REMARK                            x       y       z     vdW  Elec       q    Type
DOCKED: REMARK                         _______ _______ _______ _____ _____    ______ ____
DOCKED: USER                              x       y       z     vdW  Elec       q    Type
DOCKED: USER                           _______ _______ _______ _____ _____    ______ ____
DOCKED: ROOT
DOCKED: ATOM      1  N   UNL     1      36.857  18.432 123.512 -0.16 -0.00    +0.000 N 
DOCKED: ATOM      2  H   UNL     1      36.675  19.433 123.441 +0.00 -0.00    +0.000 HD
DOCKED: ATOM      3  H   UNL     1      37.528  18.126 122.808 +0.00 -0.00    +0.000 HD
DOCKED: ENDROOT
DOCKED: BRANCH   1   4
DOCKED: ATOM      4  C   UNL     1      35.601  17.705 123.282 -0.31 -0.00    +0.000 C 
DOCKED: BRANCH   4   8
DOCKED: ATOM      5  C   UNL     1      36.322  13.444 123.107 -0.50 -0.00    +0.000 A 
DOCKED: ATOM      6  C   UNL     1      36.868  14.304 122.134 -0.32 -0.00    +0.000 A 
DOCKED: ATOM      7  C   UNL     1      36.638  15.682 122.197 -0.26 -0.00    +0.000 A 
DOCKED: ATOM      8  C   UNL     1      35.878  16.229 123.241 -0.34 -0.00    +0.000 A 
DOCKED: ATOM      9  C   UNL     1      35.335  15.376 124.214 -0.47 -0.00    +0.000 A 
DOCKED: ATOM     10  C   UNL     1      35.566  13.999 124.153 -0.38 -0.00    +0.000 A 
DOCKED: ATOM     11  CM  UNL     1      36.101  14.839 123.174 +0.00 -0.00    +0.000 AC
DOCKED: BRANCH   5  12
DOCKED: ATOM     12  C   UNL     1      36.623  11.245 121.973 -0.62 -0.00    +0.000 C 
DOCKED: ATOM     13  C   UNL     1      36.545  11.977 123.095 -0.68 -0.00    +0.000 C 
DOCKED: BRANCH  11  14
DOCKED: ATOM     14  O   UNL     1      37.064   9.217 120.863 -2.74 -0.00    +0.000 OA
DOCKED: ATOM     15  C   UNL     1      36.843   9.784 121.965 -0.63 -0.00    +0.000 C 
DOCKED: ATOM     16  N   UNL     1      36.787   8.992 123.161 -0.65 -0.00    +0.000 N 
DOCKED: ATOM     17  H   UNL     1      36.520   9.407 124.012 -0.40 -0.00    +0.000 HD
DOCKED: BRANCH  15  17
DOCKED: ATOM     18  O   UNL     1      37.100   7.675 123.119 -2.31 -0.00    +0.000 OA
DOCKED: ATOM     19  H   UNL     1      37.326   7.424 122.210 -0.11 -0.00    +0.000 HD
DOCKED: ENDBRANCH  15  17
DOCKED: ENDBRANCH  11  14
DOCKED: ENDBRANCH   5  12
DOCKED: ENDBRANCH   4   8
DOCKED: ENDBRANCH   1   4
DOCKED: BRANCH   1  19
DOCKED: ATOM     20  C   UNL     1      37.430  18.147 124.837 -0.16 -0.00    +0.000 C 
DOCKED: BRANCH  19  20
DOCKED: ATOM     21  C   UNL     1      38.965  18.048 124.803 -0.21 -0.00    +0.000 C 
DOCKED: BRANCH  20  21
DOCKED: ATOM     22  C   UNL     1      39.465  18.188 123.394 -0.15 -0.00    +0.000 A 
DOCKED: ATOM     23  C   UNL     1      39.577  19.359 122.643 -0.05 -0.00    +0.000 A 
DOCKED: ATOM     24  N   UNL     1      40.005  19.084 121.389 -0.04 -0.00    +0.000 N 
DOCKED: ATOM     25  C   UNL     1      40.143  17.749 121.332 -0.08 -0.00    +0.000 A 
DOCKED: ATOM     26  C   UNL     1      39.817  17.166 122.532 -0.18 -0.00    +0.000 A 
DOCKED: ATOM     27  C   UNL     1      39.857  15.783 122.712 -0.30 -0.00    +0.000 A 
DOCKED: ATOM     28  C   UNL     1      40.254  14.990 121.620 -0.31 -0.00    +0.000 A 
DOCKED: ATOM     29  C   UNL     1      40.594  15.589 120.387 -0.11 -0.00    +0.000 A 
DOCKED: ATOM     30  C   UNL     1      40.539  16.987 120.233 -0.10 -0.00    +0.000 A 
DOCKED: ATOM     31  C   UNL     1      39.299  20.743 123.137 -0.04 -0.00    +0.000 C 
DOCKED: ATOM     32  H   UNL     1      40.179  19.731 120.667 +0.00 -0.00    +0.000 HD
DOCKED: ATOM     33  CM  UNL     1      39.808  18.334 122.231 +0.00 -0.00    +0.000 AC
DOCKED: ATOM     34  CM  UNL     1      40.201  16.378 121.469 +0.00 -0.00    +0.000 AC
DOCKED: ENDBRANCH  20  21
DOCKED: ENDBRANCH  19  20
DOCKED: ENDBRANCH   1  19
DOCKED: TORSDOF 8DOCKED: TER
DOCKED: ENDMDL
________________________________________________________________________________


	BEGINNING GENETIC ALGORITHM DOCKING 32 of 100
Run: 32 Seed: 764485616 1593970600 [ Run 32 of 100 GA/GALS ]
Beginning LAMARCKIAN GENETIC ALGORITHM (LGA), with a maximum of 2500000 energy evaluations.

Final-Value: -15.107


	FINAL GENETIC ALGORITHM DOCKED STATE
	_______________________________________________


Detailed state:  trans 39.049 18.249 121.977 quatxyzw -0.069410 0.188444 -0.252797 0.946449 center 0.698 0.076 -0.072 ntor 8 1.8640 -157.4528 -52.1133 23.1613 92.6921 173.2358 -160.4459 -161.6369
State:	 39.049  18.249 121.977  -0.215  0.584 -0.783 37.671      1.86 -157.45  -52.11   23.16   92.69  173.24 -160.45 -161.64

DOCKED: MODEL       32
DOCKED: USER    Run = 32
DOCKED: USER    DPF = ligand_dock.biased.dpf
DOCKED: USER  
DOCKED: USER    Estimated Free Energy of Binding    =  -10.28 kcal/mol  [=(1)+(2)+(3)-(4)]
DOCKED: USER    Estimated Inhibition Constant, Ki   =   29.39 nM (nanomolar)  [Temperature = 298.15 K]
DOCKED: USER    
DOCKED: USER    (1) Final Intermolecular Energy     =  -12.66 kcal/mol
DOCKED: USER        vdW + Hbond + desolv Energy     =  -12.66 kcal/mol
DOCKED: USER        Electrostatic Energy            =   +0.00 kcal/mol
DOCKED: USER    (2) Final Total Internal Energy     =   -2.45 kcal/mol
DOCKED: USER    (3) Torsional Free Energy           =   +2.39 kcal/mol
DOCKED: USER    (4) Unbound System's Energy  [=(2)] =   -2.45 kcal/mol
DOCKED: USER    
DOCKED: USER    
DOCKED: USER    NEWDPF move ligand.dum.pdbqt
DOCKED: USER    NEWDPF about 0.698000 0.076000 -0.072000
DOCKED: USER    NEWDPF tran0 39.049064 18.249432 121.977258
DOCKED: USER    NEWDPF quaternion0 -0.069410 0.188444 -0.252797 0.946449
DOCKED: USER    NEWDPF axisangle0 -0.214989 0.583681 -0.783004 37.671308
DOCKED: USER    NEWDPF quat0 -0.214989 0.583681 -0.783004 37.671308
DOCKED: USER    NEWDPF dihe0 1.86 -157.45 -52.11 23.16 92.69 173.24 -160.45 -161.64 
DOCKED: USER  keepresnum = 1 
DOCKED: USER  
DOCKED: REMARK  Name = 
DOCKED: REMARK  9 active torsions:
DOCKED: REMARK  status: ('A' for Active; 'I' for Inactive)
DOCKED: REMARK    1  A    between atoms: C_2  and  C_3
DOCKED: REMARK    2  A    between atoms: C_4  and  C_5
DOCKED: REMARK    3  A    between atoms: C_8  and  C_9
DOCKED: REMARK    4  A    between atoms: C_9  and  N_10
DOCKED: REMARK    5  A    between atoms: N_10  and  C_11
DOCKED: REMARK    6  A    between atoms: C_11  and  C_12
DOCKED: REMARK    7  A    between atoms: C_12  and  C_13
DOCKED: REMARK    8  A    between atoms: C_14  and  C_22
DOCKED: REMARK    9  A    between atoms: N_25  and  O_26
DOCKED: REMARK                            x       y       z     vdW  Elec       q    Type
DOCKED: REMARK                         _______ _______ _______ _____ _____    ______ ____
DOCKED: USER                              x       y       z     vdW  Elec       q    Type
DOCKED: USER                           _______ _______ _______ _____ _____    ______ ____
DOCKED: ROOT
DOCKED: ATOM      1  N   UNL     1      38.039  18.350 121.400 -0.07 -0.00    +0.000 N 
DOCKED: ATOM      2  H   UNL     1      38.525  18.424 120.506 +0.00 -0.00    +0.000 HD
DOCKED: ATOM      3  H   UNL     1      37.969  19.257 121.860 +0.00 -0.00    +0.000 HD
DOCKED: ENDROOT
DOCKED: BRANCH   1   4
DOCKED: ATOM      4  C   UNL     1      38.801  17.455 122.280 -0.15 -0.00    +0.000 C 
DOCKED: BRANCH   4   8
DOCKED: ATOM      5  C   UNL     1      37.394  13.382 121.906 -0.43 -0.00    +0.000 A 
DOCKED: ATOM      6  C   UNL     1      37.056  14.157 123.033 -0.45 -0.00    +0.000 A 
DOCKED: ATOM      7  C   UNL     1      37.507  15.476 123.147 -0.32 -0.00    +0.000 A 
DOCKED: ATOM      8  C   UNL     1      38.286  16.051 122.133 -0.22 -0.00    +0.000 A 
DOCKED: ATOM      9  C   UNL     1      38.624  15.284 121.008 -0.24 -0.00    +0.000 A 
DOCKED: ATOM     10  C   UNL     1      38.171  13.967 120.892 -0.34 -0.00    +0.000 A 
DOCKED: ATOM     11  CM  UNL     1      37.840  14.719 122.020 +0.00 -0.00    +0.000 AC
DOCKED: BRANCH   5  12
DOCKED: ATOM     12  C   UNL     1      37.438  10.940 122.403 -0.03 -0.00    +0.000 C 
DOCKED: ATOM     13  C   UNL     1      36.932  11.983 121.727 -0.57 -0.00    +0.000 C 
DOCKED: BRANCH  11  14
DOCKED: ATOM     14  O   UNL     1      36.691   9.159 121.058 -2.61 -0.00    +0.000 OA
DOCKED: ATOM     15  C   UNL     1      36.976   9.548 122.220 -0.63 -0.00    +0.000 C 
DOCKED: ATOM     16  N   UNL     1      36.817   8.641 123.320 -0.66 -0.00    +0.000 N 
DOCKED: ATOM     17  H   UNL     1      36.943   8.961 124.243 -0.51 -0.00    +0.000 HD
DOCKED: BRANCH  15  17
DOCKED: ATOM     18  O   UNL     1      36.493   7.346 123.092 -1.84 -0.00    +0.000 OA
DOCKED: ATOM     19  H   UNL     1      36.435   7.190 122.137 -0.04 -0.00    +0.000 HD
DOCKED: ENDBRANCH  15  17
DOCKED: ENDBRANCH  11  14
DOCKED: ENDBRANCH   5  12
DOCKED: ENDBRANCH   4   8
DOCKED: ENDBRANCH   1   4
DOCKED: BRANCH   1  19
DOCKED: ATOM     20  C   UNL     1      36.673  17.860 121.157 -0.16 -0.00    +0.000 C 
DOCKED: BRANCH  19  20
DOCKED: ATOM     21  C   UNL     1      35.601  18.882 121.572 -0.23 -0.00    +0.000 C 
DOCKED: BRANCH  20  21
DOCKED: ATOM     22  C   UNL     1      35.324  18.777 123.044 -0.17 -0.00    +0.000 A 
DOCKED: ATOM     23  C   UNL     1      35.569  19.739 124.027 -0.14 -0.00    +0.000 A 
DOCKED: ATOM     24  N   UNL     1      35.252  19.261 125.253 -0.20 -0.00    +0.000 N 
DOCKED: ATOM     25  C   UNL     1      34.829  18.001 125.058 -0.31 -0.00    +0.000 A 
DOCKED: ATOM     26  C   UNL     1      34.865  17.667 123.727 -0.34 -0.00    +0.000 A 
DOCKED: ATOM     27  C   UNL     1      34.497  16.398 123.278 -0.41 -0.00    +0.000 A 
DOCKED: ATOM     28  C   UNL     1      34.074  15.459 124.237 -0.50 -0.00    +0.000 A 
DOCKED: ATOM     29  C   UNL     1      34.033  15.804 125.606 -0.30 -0.00    +0.000 A 
DOCKED: ATOM     30  C   UNL     1      34.415  17.090 126.030 -0.28 -0.00    +0.000 A 
DOCKED: ATOM     31  C   UNL     1      36.083  21.122 123.786 -0.16 -0.00    +0.000 C 
DOCKED: ATOM     32  H   UNL     1      35.317  19.740 126.111 +0.00 -0.00    +0.000 HD
DOCKED: ATOM     33  CM  UNL     1      35.171  18.708 124.255 -0.17 -0.00    +0.000 AC
DOCKED: ATOM     34  CM  UNL     1      34.452  16.737 124.657 -0.19 -0.00    +0.000 AC
DOCKED: ENDBRANCH  20  21
DOCKED: ENDBRANCH  19  20
DOCKED: ENDBRANCH   1  19
DOCKED: TORSDOF 8DOCKED: TER
DOCKED: ENDMDL
________________________________________________________________________________


	BEGINNING GENETIC ALGORITHM DOCKING 33 of 100
Run: 33 Seed: 1930719953 937590256 [ Run 33 of 100 GA/GALS ]
Beginning LAMARCKIAN GENETIC ALGORITHM (LGA), with a maximum of 2500000 energy evaluations.

Final-Value: -15.828


	FINAL GENETIC ALGORITHM DOCKED STATE
	_______________________________________________


Detailed state:  trans 37.641 16.951 123.345 quatxyzw 0.622126 -0.669684 -0.369242 -0.167759 center 0.698 0.076 -0.072 ntor 8 3.7075 169.1951 160.8820 179.6081 -160.3939 113.6976 174.7613 3.7790
State:	 37.641  16.951 123.345   0.631 -0.679 -0.375 -160.685      3.71  169.20  160.88  179.61 -160.39  113.70  174.76    3.78

DOCKED: MODEL       33
DOCKED: USER    Run = 33
DOCKED: USER    DPF = ligand_dock.biased.dpf
DOCKED: USER  
DOCKED: USER    Estimated Free Energy of Binding    =  -11.45 kcal/mol  [=(1)+(2)+(3)-(4)]
DOCKED: USER    Estimated Inhibition Constant, Ki   =    4.05 nM (nanomolar)  [Temperature = 298.15 K]
DOCKED: USER    
DOCKED: USER    (1) Final Intermolecular Energy     =  -13.84 kcal/mol
DOCKED: USER        vdW + Hbond + desolv Energy     =  -13.84 kcal/mol
DOCKED: USER        Electrostatic Energy            =   +0.00 kcal/mol
DOCKED: USER    (2) Final Total Internal Energy     =   -1.99 kcal/mol
DOCKED: USER    (3) Torsional Free Energy           =   +2.39 kcal/mol
DOCKED: USER    (4) Unbound System's Energy  [=(2)] =   -1.99 kcal/mol
DOCKED: USER    
DOCKED: USER    
DOCKED: USER    NEWDPF move ligand.dum.pdbqt
DOCKED: USER    NEWDPF about 0.698000 0.076000 -0.072000
DOCKED: USER    NEWDPF tran0 37.641081 16.951483 123.345281
DOCKED: USER    NEWDPF quaternion0 0.622126 -0.669684 -0.369242 -0.167759
DOCKED: USER    NEWDPF axisangle0 0.631070 -0.679311 -0.374550 -160.684947
DOCKED: USER    NEWDPF quat0 0.631070 -0.679311 -0.374550 -160.684947
DOCKED: USER    NEWDPF dihe0 3.71 169.20 160.88 179.61 -160.39 113.70 174.76 3.78 
DOCKED: USER  keepresnum = 1 
DOCKED: USER  
DOCKED: REMARK  Name = 
DOCKED: REMARK  9 active torsions:
DOCKED: REMARK  status: ('A' for Active; 'I' for Inactive)
DOCKED: REMARK    1  A    between atoms: C_2  and  C_3
DOCKED: REMARK    2  A    between atoms: C_4  and  C_5
DOCKED: REMARK    3  A    between atoms: C_8  and  C_9
DOCKED: REMARK    4  A    between atoms: C_9  and  N_10
DOCKED: REMARK    5  A    between atoms: N_10  and  C_11
DOCKED: REMARK    6  A    between atoms: C_11  and  C_12
DOCKED: REMARK    7  A    between atoms: C_12  and  C_13
DOCKED: REMARK    8  A    between atoms: C_14  and  C_22
DOCKED: REMARK    9  A    between atoms: N_25  and  O_26
DOCKED: REMARK                            x       y       z     vdW  Elec       q    Type
DOCKED: REMARK                         _______ _______ _______ _____ _____    ______ ____
DOCKED: USER                              x       y       z     vdW  Elec       q    Type
DOCKED: USER                           _______ _______ _______ _____ _____    ______ ____
DOCKED: ROOT
DOCKED: ATOM      1  N   UNL     1      37.557  17.807 124.136 -0.21 -0.00    +0.000 N 
DOCKED: ATOM      2  H   UNL     1      38.377  17.462 124.636 -0.02 -0.00    +0.000 HD
DOCKED: ATOM      3  H   UNL     1      36.711  17.324 124.436 -0.01 -0.00    +0.000 HD
DOCKED: ENDROOT
DOCKED: BRANCH   1   4
DOCKED: ATOM      4  C   UNL     1      37.737  17.551 122.701 -0.18 -0.00    +0.000 C 
DOCKED: BRANCH   4   8
DOCKED: ATOM      5  C   UNL     1      37.187  13.340 121.880 -0.43 -0.00    +0.000 A 
DOCKED: ATOM      6  C   UNL     1      37.806  14.180 120.934 -0.33 -0.00    +0.000 A 
DOCKED: ATOM      7  C   UNL     1      37.988  15.540 121.205 -0.21 -0.00    +0.000 A 
DOCKED: ATOM      8  C   UNL     1      37.575  16.082 122.431 -0.24 -0.00    +0.000 A 
DOCKED: ATOM      9  C   UNL     1      36.960  15.248 123.377 -0.36 -0.00    +0.000 A 
DOCKED: ATOM     10  C   UNL     1      36.780  13.888 123.107 -0.48 -0.00    +0.000 A 
DOCKED: ATOM     11  CM  UNL     1      37.382  14.713 122.155 +0.00 -0.00    +0.000 AC
DOCKED: BRANCH   5  12
DOCKED: ATOM     12  C   UNL     1      37.180  10.950 122.586 -0.43 -0.00    +0.000 C 
DOCKED: ATOM     13  C   UNL     1      36.981  11.889 121.649 -0.57 -0.00    +0.000 C 
DOCKED: BRANCH  11  14
DOCKED: ATOM     14  O   UNL     1      36.694   9.122 121.185 -2.63 -0.00    +0.000 OA
DOCKED: ATOM     15  C   UNL     1      36.976   9.505 122.351 -0.64 -0.00    +0.000 C 
DOCKED: ATOM     16  N   UNL     1      37.063   8.535 123.404 -0.68 -0.00    +0.000 N 
DOCKED: ATOM     17  H   UNL     1      37.187   8.831 124.335 -0.55 -0.00    +0.000 HD
DOCKED: BRANCH  15  17
DOCKED: ATOM     18  O   UNL     1      36.973   7.214 123.121 -2.00 -0.00    +0.000 OA
DOCKED: ATOM     19  H   UNL     1      36.912   7.091 122.161 -0.09 -0.00    +0.000 HD
DOCKED: ENDBRANCH  15  17
DOCKED: ENDBRANCH  11  14
DOCKED: ENDBRANCH   5  12
DOCKED: ENDBRANCH   4   8
DOCKED: ENDBRANCH   1   4
DOCKED: BRANCH   1  19
DOCKED: ATOM     20  C   UNL     1      37.390  19.239 124.430 -0.15 -0.00    +0.000 C 
DOCKED: BRANCH  19  20
DOCKED: ATOM     21  C   UNL     1      35.912  19.637 124.582 -0.20 -0.00    +0.000 C 
DOCKED: BRANCH  20  21
DOCKED: ATOM     22  C   UNL     1      35.086  18.441 124.959 -0.26 -0.00    +0.000 A 
DOCKED: ATOM     23  C   UNL     1      34.469  17.529 124.101 -0.38 -0.00    +0.000 A 
DOCKED: ATOM     24  N   UNL     1      33.752  16.621 124.803 -0.39 -0.00    +0.000 N 
DOCKED: ATOM     25  C   UNL     1      33.891  16.963 126.095 -0.36 -0.00    +0.000 A 
DOCKED: ATOM     26  C   UNL     1      34.690  18.071 126.230 -0.25 -0.00    +0.000 A 
DOCKED: ATOM     27  C   UNL     1      34.961  18.633 127.478 -0.15 -0.00    +0.000 A 
DOCKED: ATOM     28  C   UNL     1      34.393  18.022 128.612 -0.16 -0.00    +0.000 A 
DOCKED: ATOM     29  C   UNL     1      33.575  16.879 128.473 -0.31 -0.00    +0.000 A 
DOCKED: ATOM     30  C   UNL     1      33.315  16.338 127.201 -0.37 -0.00    +0.000 A 
DOCKED: ATOM     31  C   UNL     1      34.590  17.513 122.610 -0.40 -0.00    +0.000 C 
DOCKED: ATOM     32  H   UNL     1      33.236  15.865 124.441 -0.03 -0.00    +0.000 HD
DOCKED: ATOM     33  CM  UNL     1      34.358  17.496 125.223 -0.37 -0.00    +0.000 AC
DOCKED: ATOM     34  CM  UNL     1      34.137  17.484 127.348 -0.01 -0.00    +0.000 AC
DOCKED: ENDBRANCH  20  21
DOCKED: ENDBRANCH  19  20
DOCKED: ENDBRANCH   1  19
DOCKED: TORSDOF 8DOCKED: TER
DOCKED: ENDMDL
________________________________________________________________________________


	BEGINNING GENETIC ALGORITHM DOCKING 34 of 100
Run: 34 Seed: 2089115857 1612716265 [ Run 34 of 100 GA/GALS ]
Beginning LAMARCKIAN GENETIC ALGORITHM (LGA), with a maximum of 2500000 energy evaluations.

Final-Value: -15.176


	FINAL GENETIC ALGORITHM DOCKED STATE
	_______________________________________________


Detailed state:  trans 36.736 17.024 124.084 quatxyzw -0.623627 0.351511 0.520393 0.465532 center 0.698 0.076 -0.072 ntor 8 13.6764 124.4357 -168.0721 -164.4034 111.1093 -177.8097 -68.2309 12.2547
State:	 36.736  17.024 124.084  -0.705  0.397  0.588 124.511     13.68  124.44 -168.07 -164.40  111.11 -177.81  -68.23   12.25

DOCKED: MODEL       34
DOCKED: USER    Run = 34
DOCKED: USER    DPF = ligand_dock.biased.dpf
DOCKED: USER  
DOCKED: USER    Estimated Free Energy of Binding    =  -11.14 kcal/mol  [=(1)+(2)+(3)-(4)]
DOCKED: USER    Estimated Inhibition Constant, Ki   =    6.82 nM (nanomolar)  [Temperature = 298.15 K]
DOCKED: USER    
DOCKED: USER    (1) Final Intermolecular Energy     =  -13.53 kcal/mol
DOCKED: USER        vdW + Hbond + desolv Energy     =  -13.53 kcal/mol
DOCKED: USER        Electrostatic Energy            =   +0.00 kcal/mol
DOCKED: USER    (2) Final Total Internal Energy     =   -1.65 kcal/mol
DOCKED: USER    (3) Torsional Free Energy           =   +2.39 kcal/mol
DOCKED: USER    (4) Unbound System's Energy  [=(2)] =   -1.65 kcal/mol
DOCKED: USER    
DOCKED: USER    
DOCKED: USER    NEWDPF move ligand.dum.pdbqt
DOCKED: USER    NEWDPF about 0.698000 0.076000 -0.072000
DOCKED: USER    NEWDPF tran0 36.735592 17.023921 124.084006
DOCKED: USER    NEWDPF quaternion0 -0.623627 0.351511 0.520393 0.465532
DOCKED: USER    NEWDPF axisangle0 -0.704639 0.397174 0.587994 124.510678
DOCKED: USER    NEWDPF quat0 -0.704639 0.397174 0.587994 124.510678
DOCKED: USER    NEWDPF dihe0 13.68 124.44 -168.07 -164.40 111.11 -177.81 -68.23 12.25 
DOCKED: USER  keepresnum = 1 
DOCKED: USER  
DOCKED: REMARK  Name = 
DOCKED: REMARK  9 active torsions:
DOCKED: REMARK  status: ('A' for Active; 'I' for Inactive)
DOCKED: REMARK    1  A    between atoms: C_2  and  C_3
DOCKED: REMARK    2  A    between atoms: C_4  and  C_5
DOCKED: REMARK    3  A    between atoms: C_8  and  C_9
DOCKED: REMARK    4  A    between atoms: C_9  and  N_10
DOCKED: REMARK    5  A    between atoms: N_10  and  C_11
DOCKED: REMARK    6  A    between atoms: C_11  and  C_12
DOCKED: REMARK    7  A    between atoms: C_12  and  C_13
DOCKED: REMARK    8  A    between atoms: C_14  and  C_22
DOCKED: REMARK    9  A    between atoms: N_25  and  O_26
DOCKED: REMARK                            x       y       z     vdW  Elec       q    Type
DOCKED: REMARK                         _______ _______ _______ _____ _____    ______ ____
DOCKED: USER                              x       y       z     vdW  Elec       q    Type
DOCKED: USER                           _______ _______ _______ _____ _____    ______ ____
DOCKED: ROOT
DOCKED: ATOM      1  N   UNL     1      36.777  17.803 124.953 -0.20 -0.00    +0.000 N 
DOCKED: ATOM      2  H   UNL     1      37.754  18.018 124.752 -0.01 -0.00    +0.000 HD
DOCKED: ATOM      3  H   UNL     1      36.694  16.991 125.565 +0.06 -0.00    +0.000 HD
DOCKED: ENDROOT
DOCKED: BRANCH   1   4
DOCKED: ATOM      4  C   UNL     1      36.092  17.489 123.692 -0.29 -0.00    +0.000 C 
DOCKED: BRANCH   4   8
DOCKED: ATOM      5  C   UNL     1      36.833  13.388 122.530 -0.47 -0.00    +0.000 A 
DOCKED: ATOM      6  C   UNL     1      37.624  14.434 122.015 -0.36 -0.00    +0.000 A 
DOCKED: ATOM      7  C   UNL     1      37.386  15.758 122.397 -0.27 -0.00    +0.000 A 
DOCKED: ATOM      8  C   UNL     1      36.369  16.061 123.315 -0.33 -0.00    +0.000 A 
DOCKED: ATOM      9  C   UNL     1      35.581  15.023 123.833 -0.48 -0.00    +0.000 A 
DOCKED: ATOM     10  C   UNL     1      35.820  13.699 123.453 -0.48 -0.00    +0.000 A 
DOCKED: ATOM     11  CM  UNL     1      36.602  14.727 122.923 +0.00 -0.00    +0.000 AC
DOCKED: BRANCH   5  12
DOCKED: ATOM     12  C   UNL     1      36.457  10.939 122.795 -0.69 -0.00    +0.000 C 
DOCKED: ATOM     13  C   UNL     1      37.051  11.966 122.168 -0.59 -0.00    +0.000 C 
DOCKED: BRANCH  11  14
DOCKED: ATOM     14  O   UNL     1      36.771   9.224 121.214 -2.64 -0.00    +0.000 OA
DOCKED: ATOM     15  C   UNL     1      36.679   9.523 122.433 -0.72 -0.00    +0.000 C 
DOCKED: ATOM     16  N   UNL     1      36.767   8.483 123.417 -0.66 -0.00    +0.000 N 
DOCKED: ATOM     17  H   UNL     1      36.600   8.689 124.365 -0.35 -0.00    +0.000 HD
DOCKED: BRANCH  15  17
DOCKED: ATOM     18  O   UNL     1      37.076   7.218 123.044 -2.01 -0.00    +0.000 OA
DOCKED: ATOM     19  H   UNL     1      37.416   7.223 122.136 -0.16 -0.00    +0.000 HD
DOCKED: ENDBRANCH  15  17
DOCKED: ENDBRANCH  11  14
DOCKED: ENDBRANCH   5  12
DOCKED: ENDBRANCH   4   8
DOCKED: ENDBRANCH   1   4
DOCKED: BRANCH   1  19
DOCKED: ATOM     20  C   UNL     1      36.171  18.952 125.644 -0.19 -0.00    +0.000 C 
DOCKED: BRANCH  19  20
DOCKED: ATOM     21  C   UNL     1      37.214  19.809 126.382 -0.12 -0.00    +0.000 C 
DOCKED: BRANCH  20  21
DOCKED: ATOM     22  C   UNL     1      37.841  19.020 127.496 -0.13 -0.00    +0.000 A 
DOCKED: ATOM     23  C   UNL     1      37.260  18.654 128.712 -0.13 -0.00    +0.000 A 
DOCKED: ATOM     24  N   UNL     1      38.154  18.006 129.493 -0.21 -0.00    +0.000 N 
DOCKED: ATOM     25  C   UNL     1      39.301  17.978 128.794 -0.26 -0.00    +0.000 A 
DOCKED: ATOM     26  C   UNL     1      39.153  18.592 127.576 -0.19 -0.00    +0.000 A 
DOCKED: ATOM     27  C   UNL     1      40.215  18.712 126.679 -0.27 -0.00    +0.000 A 
DOCKED: ATOM     28  C   UNL     1      41.458  18.173 127.058 -0.34 -0.00    +0.000 A 
DOCKED: ATOM     29  C   UNL     1      41.610  17.537 128.310 -0.48 -0.00    +0.000 A 
DOCKED: ATOM     30  C   UNL     1      40.521  17.435 129.195 -0.41 -0.00    +0.000 A 
DOCKED: ATOM     31  C   UNL     1      35.840  18.903 129.110 -0.12 -0.00    +0.000 C 
DOCKED: ATOM     32  H   UNL     1      37.996  17.631 130.390 -0.01 -0.00    +0.000 HD
DOCKED: ATOM     33  CM  UNL     1      38.335  18.436 128.449 +0.00 -0.00    +0.000 AC
DOCKED: ATOM     34  CM  UNL     1      40.376  18.071 127.936 +0.00 -0.00    +0.000 AC
DOCKED: ENDBRANCH  20  21
DOCKED: ENDBRANCH  19  20
DOCKED: ENDBRANCH   1  19
DOCKED: TORSDOF 8DOCKED: TER
DOCKED: ENDMDL
________________________________________________________________________________


	BEGINNING GENETIC ALGORITHM DOCKING 35 of 100
Run: 35 Seed: 95519510 1805939545 [ Run 35 of 100 GA/GALS ]
Beginning LAMARCKIAN GENETIC ALGORITHM (LGA), with a maximum of 2500000 energy evaluations.

Final-Value: -15.560


	FINAL GENETIC ALGORITHM DOCKED STATE
	_______________________________________________


Detailed state:  trans 38.369 17.975 122.895 quatxyzw 0.091457 0.287413 -0.248694 0.920424 center 0.698 0.076 -0.072 ntor 8 6.7619 -61.2354 -180.0000 -1.1914 129.6281 -179.3968 176.4697 -149.9307
State:	 38.369  17.975 122.895   0.234  0.735 -0.636 46.024      6.76  -61.24 -180.00   -1.19  129.63 -179.40  176.47 -149.93

DOCKED: MODEL       35
DOCKED: USER    Run = 35
DOCKED: USER    DPF = ligand_dock.biased.dpf
DOCKED: USER  
DOCKED: USER    Estimated Free Energy of Binding    =  -10.94 kcal/mol  [=(1)+(2)+(3)-(4)]
DOCKED: USER    Estimated Inhibition Constant, Ki   =    9.53 nM (nanomolar)  [Temperature = 298.15 K]
DOCKED: USER    
DOCKED: USER    (1) Final Intermolecular Energy     =  -13.33 kcal/mol
DOCKED: USER        vdW + Hbond + desolv Energy     =  -13.33 kcal/mol
DOCKED: USER        Electrostatic Energy            =   +0.00 kcal/mol
DOCKED: USER    (2) Final Total Internal Energy     =   -2.23 kcal/mol
DOCKED: USER    (3) Torsional Free Energy           =   +2.39 kcal/mol
DOCKED: USER    (4) Unbound System's Energy  [=(2)] =   -2.23 kcal/mol
DOCKED: USER    
DOCKED: USER    
DOCKED: USER    NEWDPF move ligand.dum.pdbqt
DOCKED: USER    NEWDPF about 0.698000 0.076000 -0.072000
DOCKED: USER    NEWDPF tran0 38.369146 17.974781 122.895418
DOCKED: USER    NEWDPF quaternion0 0.091457 0.287413 -0.248694 0.920424
DOCKED: USER    NEWDPF axisangle0 0.233953 0.735220 -0.636174 46.023720
DOCKED: USER    NEWDPF quat0 0.233953 0.735220 -0.636174 46.023720
DOCKED: USER    NEWDPF dihe0 6.76 -61.24 -180.00 -1.19 129.63 -179.40 176.47 -149.93 
DOCKED: USER  keepresnum = 1 
DOCKED: USER  
DOCKED: REMARK  Name = 
DOCKED: REMARK  9 active torsions:
DOCKED: REMARK  status: ('A' for Active; 'I' for Inactive)
DOCKED: REMARK    1  A    between atoms: C_2  and  C_3
DOCKED: REMARK    2  A    between atoms: C_4  and  C_5
DOCKED: REMARK    3  A    between atoms: C_8  and  C_9
DOCKED: REMARK    4  A    between atoms: C_9  and  N_10
DOCKED: REMARK    5  A    between atoms: N_10  and  C_11
DOCKED: REMARK    6  A    between atoms: C_11  and  C_12
DOCKED: REMARK    7  A    between atoms: C_12  and  C_13
DOCKED: REMARK    8  A    between atoms: C_14  and  C_22
DOCKED: REMARK    9  A    between atoms: N_25  and  O_26
DOCKED: REMARK                            x       y       z     vdW  Elec       q    Type
DOCKED: REMARK                         _______ _______ _______ _____ _____    ______ ____
DOCKED: USER                              x       y       z     vdW  Elec       q    Type
DOCKED: USER                           _______ _______ _______ _____ _____    ______ ____
DOCKED: ROOT
DOCKED: ATOM      1  N   UNL     1      37.563  17.959 122.050 -0.11 -0.00    +0.000 N 
DOCKED: ATOM      2  H   UNL     1      38.274  17.787 121.338 +0.01 -0.00    +0.000 HD
DOCKED: ATOM      3  H   UNL     1      37.468  18.955 122.245 +0.00 -0.00    +0.000 HD
DOCKED: ENDROOT
DOCKED: BRANCH   1   4
DOCKED: ATOM      4  C   UNL     1      37.970  17.292 123.294 -0.22 -0.00    +0.000 C 
DOCKED: BRANCH   4   8
DOCKED: ATOM      5  C   UNL     1      37.002  13.079 123.159 -0.54 -0.00    +0.000 A 
DOCKED: ATOM      6  C   UNL     1      36.137  13.994 123.793 -0.48 -0.00    +0.000 A 
DOCKED: ATOM      7  C   UNL     1      36.451  15.356 123.830 -0.36 -0.00    +0.000 A 
DOCKED: ATOM      8  C   UNL     1      37.619  15.833 123.218 -0.29 -0.00    +0.000 A 
DOCKED: ATOM      9  C   UNL     1      38.481  14.927 122.583 -0.36 -0.00    +0.000 A 
DOCKED: ATOM     10  C   UNL     1      38.167  13.565 122.545 -0.37 -0.00    +0.000 A 
DOCKED: ATOM     11  CM  UNL     1      37.310  14.458 123.188 +0.00 -0.00    +0.000 AC
DOCKED: BRANCH   5  12
DOCKED: ATOM     12  C   UNL     1      37.237  10.811 122.153 -0.26 -0.00    +0.000 C 
DOCKED: ATOM     13  C   UNL     1      36.711  11.626 123.080 -0.69 -0.00    +0.000 C 
DOCKED: BRANCH  11  14
DOCKED: ATOM     14  O   UNL     1      36.687   8.864 120.951 -2.61 -0.00    +0.000 OA
DOCKED: ATOM     15  C   UNL     1      36.943   9.364 122.077 -0.66 -0.00    +0.000 C 
DOCKED: ATOM     16  N   UNL     1      36.915   8.524 123.240 -0.69 -0.00    +0.000 N 
DOCKED: ATOM     17  H   UNL     1      37.017   8.920 124.135 -0.51 -0.00    +0.000 HD
DOCKED: BRANCH  15  17
DOCKED: ATOM     18  O   UNL     1      36.746   7.186 123.108 -1.90 -0.00    +0.000 OA
DOCKED: ATOM     19  H   UNL     1      36.768   6.948 122.168 -0.09 -0.00    +0.000 HD
DOCKED: ENDBRANCH  15  17
DOCKED: ENDBRANCH  11  14
DOCKED: ENDBRANCH   5  12
DOCKED: ENDBRANCH   4   8
DOCKED: ENDBRANCH   1   4
DOCKED: BRANCH   1  19
DOCKED: ATOM     20  C   UNL     1      36.268  17.469 121.555 -0.21 -0.00    +0.000 C 
DOCKED: BRANCH  19  20
DOCKED: ATOM     21  C   UNL     1      35.106  18.409 121.921 -0.29 -0.00    +0.000 C 
DOCKED: BRANCH  20  21
DOCKED: ATOM     22  C   UNL     1      35.195  18.809 123.365 -0.16 -0.00    +0.000 A 
DOCKED: ATOM     23  C   UNL     1      35.856  19.916 123.902 -0.15 -0.00    +0.000 A 
DOCKED: ATOM     24  N   UNL     1      35.775  19.913 125.253 -0.15 -0.00    +0.000 N 
DOCKED: ATOM     25  C   UNL     1      35.089  18.803 125.577 -0.22 -0.00    +0.000 A 
DOCKED: ATOM     26  C   UNL     1      34.725  18.101 124.455 -0.31 -0.00    +0.000 A 
DOCKED: ATOM     27  C   UNL     1      34.026  16.897 124.537 -0.36 -0.00    +0.000 A 
DOCKED: ATOM     28  C   UNL     1      33.691  16.417 125.817 -0.33 -0.00    +0.000 A 
DOCKED: ATOM     29  C   UNL     1      34.061  17.142 126.972 -0.26 -0.00    +0.000 A 
DOCKED: ATOM     30  C   UNL     1      34.771  18.351 126.857 -0.20 -0.00    +0.000 A 
DOCKED: ATOM     31  C   UNL     1      36.540  20.990 123.117 -0.15 -0.00    +0.000 C 
DOCKED: ATOM     32  H   UNL     1      36.142  20.586 125.871 +0.00 -0.00    +0.000 HD
DOCKED: ATOM     33  CM  UNL     1      35.342  19.134 124.534 -0.10 -0.00    +0.000 AC
DOCKED: ATOM     34  CM  UNL     1      34.394  17.619 125.703 -0.30 -0.00    +0.000 AC
DOCKED: ENDBRANCH  20  21
DOCKED: ENDBRANCH  19  20
DOCKED: ENDBRANCH   1  19
DOCKED: TORSDOF 8DOCKED: TER
DOCKED: ENDMDL
________________________________________________________________________________


	BEGINNING GENETIC ALGORITHM DOCKING 36 of 100
Run: 36 Seed: 1027876685 1787414486 [ Run 36 of 100 GA/GALS ]
Beginning LAMARCKIAN GENETIC ALGORITHM (LGA), with a maximum of 2500000 energy evaluations.

Final-Value: -15.441


	FINAL GENETIC ALGORITHM DOCKED STATE
	_______________________________________________


Detailed state:  trans 38.140 17.433 121.421 quatxyzw -0.597844 0.009714 0.578101 0.555237 center 0.698 0.076 -0.072 ntor 8 16.6766 153.8508 -136.8940 159.8873 -70.0251 139.8504 59.2730 55.8761
State:	 38.140  17.433 121.421  -0.719  0.012  0.695 112.546     16.68  153.85 -136.89  159.89  -70.03  139.85   59.27   55.88

DOCKED: MODEL       36
DOCKED: USER    Run = 36
DOCKED: USER    DPF = ligand_dock.biased.dpf
DOCKED: USER  
DOCKED: USER    Estimated Free Energy of Binding    =  -11.08 kcal/mol  [=(1)+(2)+(3)-(4)]
DOCKED: USER    Estimated Inhibition Constant, Ki   =    7.56 nM (nanomolar)  [Temperature = 298.15 K]
DOCKED: USER    
DOCKED: USER    (1) Final Intermolecular Energy     =  -13.47 kcal/mol
DOCKED: USER        vdW + Hbond + desolv Energy     =  -13.47 kcal/mol
DOCKED: USER        Electrostatic Energy            =   +0.00 kcal/mol
DOCKED: USER    (2) Final Total Internal Energy     =   -1.97 kcal/mol
DOCKED: USER    (3) Torsional Free Energy           =   +2.39 kcal/mol
DOCKED: USER    (4) Unbound System's Energy  [=(2)] =   -1.97 kcal/mol
DOCKED: USER    
DOCKED: USER    
DOCKED: USER    NEWDPF move ligand.dum.pdbqt
DOCKED: USER    NEWDPF about 0.698000 0.076000 -0.072000
DOCKED: USER    NEWDPF tran0 38.139812 17.432775 121.421485
DOCKED: USER    NEWDPF quaternion0 -0.597844 0.009714 0.578101 0.555237
DOCKED: USER    NEWDPF axisangle0 -0.718828 0.011680 0.695090 112.545920
DOCKED: USER    NEWDPF quat0 -0.718828 0.011680 0.695090 112.545920
DOCKED: USER    NEWDPF dihe0 16.68 153.85 -136.89 159.89 -70.03 139.85 59.27 55.88 
DOCKED: USER  keepresnum = 1 
DOCKED: USER  
DOCKED: REMARK  Name = 
DOCKED: REMARK  9 active torsions:
DOCKED: REMARK  status: ('A' for Active; 'I' for Inactive)
DOCKED: REMARK    1  A    between atoms: C_2  and  C_3
DOCKED: REMARK    2  A    between atoms: C_4  and  C_5
DOCKED: REMARK    3  A    between atoms: C_8  and  C_9
DOCKED: REMARK    4  A    between atoms: C_9  and  N_10
DOCKED: REMARK    5  A    between atoms: N_10  and  C_11
DOCKED: REMARK    6  A    between atoms: C_11  and  C_12
DOCKED: REMARK    7  A    between atoms: C_12  and  C_13
DOCKED: REMARK    8  A    between atoms: C_14  and  C_22
DOCKED: REMARK    9  A    between atoms: N_25  and  O_26
DOCKED: REMARK                            x       y       z     vdW  Elec       q    Type
DOCKED: REMARK                         _______ _______ _______ _____ _____    ______ ____
DOCKED: USER                              x       y       z     vdW  Elec       q    Type
DOCKED: USER                           _______ _______ _______ _____ _____    ______ ____
DOCKED: ROOT
DOCKED: ATOM      1  N   UNL     1      38.336  18.009 122.419 -0.11 -0.00    +0.000 N 
DOCKED: ATOM      2  H   UNL     1      38.923  18.692 121.941 +0.00 -0.00    +0.000 HD
DOCKED: ATOM      3  H   UNL     1      38.870  17.183 122.686 +0.00 -0.00    +0.000 HD
DOCKED: ENDROOT
DOCKED: BRANCH   1   4
DOCKED: ATOM      4  C   UNL     1      37.271  17.579 121.503 -0.14 -0.00    +0.000 C 
DOCKED: BRANCH   4   8
DOCKED: ATOM      5  C   UNL     1      37.241  13.268 121.150 -0.41 -0.00    +0.000 A 
DOCKED: ATOM      6  C   UNL     1      37.070  14.082 120.012 -0.28 -0.00    +0.000 A 
DOCKED: ATOM      7  C   UNL     1      37.086  15.475 120.129 -0.19 -0.00    +0.000 A 
DOCKED: ATOM      8  C   UNL     1      37.293  16.082 121.377 -0.19 -0.00    +0.000 A 
DOCKED: ATOM      9  C   UNL     1      37.467  15.275 122.512 -0.32 -0.00    +0.000 A 
DOCKED: ATOM     10  C   UNL     1      37.453  13.882 122.395 -0.43 -0.00    +0.000 A 
DOCKED: ATOM     11  CM  UNL     1      37.268  14.677 121.263 +0.00 -0.00    +0.000 AC
DOCKED: BRANCH   5  12
DOCKED: ATOM     12  C   UNL     1      37.011  10.990 122.135 -0.56 -0.00    +0.000 C 
DOCKED: ATOM     13  C   UNL     1      37.245  11.785 121.080 -0.51 -0.00    +0.000 C 
DOCKED: BRANCH  11  14
DOCKED: ATOM     14  O   UNL     1      37.065   8.971 120.928 -2.72 -0.00    +0.000 OA
DOCKED: ATOM     15  C   UNL     1      37.018   9.514 122.062 -0.63 -0.00    +0.000 C 
DOCKED: ATOM     16  N   UNL     1      36.949   8.687 123.232 -0.67 -0.00    +0.000 N 
DOCKED: ATOM     17  H   UNL     1      36.815   9.097 124.117 -0.48 -0.00    +0.000 HD
DOCKED: BRANCH  15  17
DOCKED: ATOM     18  O   UNL     1      37.066   7.342 123.121 -2.16 -0.00    +0.000 OA
DOCKED: ATOM     19  H   UNL     1      37.447   7.119 122.258 -0.20 -0.00    +0.000 HD
DOCKED: ENDBRANCH  15  17
DOCKED: ENDBRANCH  11  14
DOCKED: ENDBRANCH   5  12
DOCKED: ENDBRANCH   4   8
DOCKED: ENDBRANCH   1   4
DOCKED: BRANCH   1  19
DOCKED: ATOM     20  C   UNL     1      37.801  18.618 123.646 -0.15 -0.00    +0.000 C 
DOCKED: BRANCH  19  20
DOCKED: ATOM     21  C   UNL     1      36.333  19.052 123.495 -0.20 -0.00    +0.000 C 
DOCKED: BRANCH  20  21
DOCKED: ATOM     22  C   UNL     1      35.452  18.229 124.390 -0.26 -0.00    +0.000 A 
DOCKED: ATOM     23  C   UNL     1      34.545  17.236 124.012 -0.39 -0.00    +0.000 A 
DOCKED: ATOM     24  N   UNL     1      33.879  16.762 125.090 -0.43 -0.00    +0.000 N 
DOCKED: ATOM     25  C   UNL     1      34.339  17.460 126.142 -0.31 -0.00    +0.000 A 
DOCKED: ATOM     26  C   UNL     1      35.292  18.368 125.756 -0.23 -0.00    +0.000 A 
DOCKED: ATOM     27  C   UNL     1      35.900  19.229 126.670 -0.14 -0.00    +0.000 A 
DOCKED: ATOM     28  C   UNL     1      35.512  19.135 128.019 -0.11 -0.00    +0.000 A 
DOCKED: ATOM     29  C   UNL     1      34.534  18.197 128.418 -0.15 -0.00    +0.000 A 
DOCKED: ATOM     30  C   UNL     1      33.934  17.345 127.472 -0.27 -0.00    +0.000 A 
DOCKED: ATOM     31  C   UNL     1      34.338  16.726 122.621 -0.35 -0.00    +0.000 C 
DOCKED: ATOM     32  H   UNL     1      33.198  16.050 125.101 -0.02 -0.00    +0.000 HD
DOCKED: ATOM     33  CM  UNL     1      34.675  17.584 125.078 -0.44 -0.00    +0.000 AC
DOCKED: ATOM     34  CM  UNL     1      34.918  18.288 127.079 -0.03 -0.00    +0.000 AC
DOCKED: ENDBRANCH  20  21
DOCKED: ENDBRANCH  19  20
DOCKED: ENDBRANCH   1  19
DOCKED: TORSDOF 8DOCKED: TER
DOCKED: ENDMDL
________________________________________________________________________________


	BEGINNING GENETIC ALGORITHM DOCKING 37 of 100
Run: 37 Seed: 59875144 457111721 [ Run 37 of 100 GA/GALS ]
Beginning LAMARCKIAN GENETIC ALGORITHM (LGA), with a maximum of 2500000 energy evaluations.

Final-Value: -15.879


	FINAL GENETIC ALGORITHM DOCKED STATE
	_______________________________________________


Detailed state:  trans 37.544 17.890 123.278 quatxyzw 0.245177 0.499558 -0.051731 0.829249 center 0.698 0.076 -0.072 ntor 8 46.2298 -19.5872 126.3708 -179.7604 -81.0916 153.7599 -77.4484 -115.7800
State:	 37.544  17.890 123.278   0.439  0.894 -0.093 67.957     46.23  -19.59  126.37 -179.76  -81.09  153.76  -77.45 -115.78

DOCKED: MODEL       37
DOCKED: USER    Run = 37
DOCKED: USER    DPF = ligand_dock.biased.dpf
DOCKED: USER  
DOCKED: USER    Estimated Free Energy of Binding    =  -11.38 kcal/mol  [=(1)+(2)+(3)-(4)]
DOCKED: USER    Estimated Inhibition Constant, Ki   =    4.54 nM (nanomolar)  [Temperature = 298.15 K]
DOCKED: USER    
DOCKED: USER    (1) Final Intermolecular Energy     =  -13.77 kcal/mol
DOCKED: USER        vdW + Hbond + desolv Energy     =  -13.77 kcal/mol
DOCKED: USER        Electrostatic Energy            =   +0.00 kcal/mol
DOCKED: USER    (2) Final Total Internal Energy     =   -2.11 kcal/mol
DOCKED: USER    (3) Torsional Free Energy           =   +2.39 kcal/mol
DOCKED: USER    (4) Unbound System's Energy  [=(2)] =   -2.11 kcal/mol
DOCKED: USER    
DOCKED: USER    
DOCKED: USER    NEWDPF move ligand.dum.pdbqt
DOCKED: USER    NEWDPF about 0.698000 0.076000 -0.072000
DOCKED: USER    NEWDPF tran0 37.543697 17.890302 123.278311
DOCKED: USER    NEWDPF quaternion0 0.245177 0.499558 -0.051731 0.829249
DOCKED: USER    NEWDPF axisangle0 0.438694 0.893856 -0.092562 67.956733
DOCKED: USER    NEWDPF quat0 0.438694 0.893856 -0.092562 67.956733
DOCKED: USER    NEWDPF dihe0 46.23 -19.59 126.37 -179.76 -81.09 153.76 -77.45 -115.78 
DOCKED: USER  keepresnum = 1 
DOCKED: USER  
DOCKED: REMARK  Name = 
DOCKED: REMARK  9 active torsions:
DOCKED: REMARK  status: ('A' for Active; 'I' for Inactive)
DOCKED: REMARK    1  A    between atoms: C_2  and  C_3
DOCKED: REMARK    2  A    between atoms: C_4  and  C_5
DOCKED: REMARK    3  A    between atoms: C_8  and  C_9
DOCKED: REMARK    4  A    between atoms: C_9  and  N_10
DOCKED: REMARK    5  A    between atoms: N_10  and  C_11
DOCKED: REMARK    6  A    between atoms: C_11  and  C_12
DOCKED: REMARK    7  A    between atoms: C_12  and  C_13
DOCKED: REMARK    8  A    between atoms: C_14  and  C_22
DOCKED: REMARK    9  A    between atoms: N_25  and  O_26
DOCKED: REMARK                            x       y       z     vdW  Elec       q    Type
DOCKED: REMARK                         _______ _______ _______ _____ _____    ______ ____
DOCKED: USER                              x       y       z     vdW  Elec       q    Type
DOCKED: USER                           _______ _______ _______ _____ _____    ______ ____
DOCKED: ROOT
DOCKED: ATOM      1  N   UNL     1      37.340  17.985 122.132 -0.12 -0.00    +0.000 N 
DOCKED: ATOM      2  H   UNL     1      38.192  17.469 121.910 +0.00 -0.00    +0.000 HD
DOCKED: ATOM      3  H   UNL     1      37.533  18.977 122.271 +0.00 -0.00    +0.000 HD
DOCKED: ENDROOT
DOCKED: BRANCH   1   4
DOCKED: ATOM      4  C   UNL     1      36.779  17.456 123.382 -0.24 -0.00    +0.000 C 
DOCKED: BRANCH   4   8
DOCKED: ATOM      5  C   UNL     1      36.755  13.131 123.321 -0.54 -0.00    +0.000 A 
DOCKED: ATOM      6  C   UNL     1      35.565  13.852 123.542 -0.44 -0.00    +0.000 A 
DOCKED: ATOM      7  C   UNL     1      35.575  15.250 123.555 -0.45 -0.00    +0.000 A 
DOCKED: ATOM      8  C   UNL     1      36.767  15.954 123.328 -0.31 -0.00    +0.000 A 
DOCKED: ATOM      9  C   UNL     1      37.954  15.241 123.105 -0.32 -0.00    +0.000 A 
DOCKED: ATOM     10  C   UNL     1      37.944  13.843 123.090 -0.45 -0.00    +0.000 A 
DOCKED: ATOM     11  CM  UNL     1      36.760  14.545 123.324 +0.00 -0.00    +0.000 AC
DOCKED: BRANCH   5  12
DOCKED: ATOM     12  C   UNL     1      36.894  10.934 122.153 -0.59 -0.00    +0.000 C 
DOCKED: ATOM     13  C   UNL     1      36.798  11.648 123.285 -0.69 -0.00    +0.000 C 
DOCKED: BRANCH  11  14
DOCKED: ATOM     14  O   UNL     1      36.959   8.882 121.001 -2.68 -0.00    +0.000 OA
DOCKED: ATOM     15  C   UNL     1      36.934   9.457 122.121 -0.65 -0.00    +0.000 C 
DOCKED: ATOM     16  N   UNL     1      36.921   8.662 123.315 -0.66 -0.00    +0.000 N 
DOCKED: ATOM     17  H   UNL     1      36.804   9.095 124.192 -0.49 -0.00    +0.000 HD
DOCKED: BRANCH  15  17
DOCKED: ATOM     18  O   UNL     1      37.066   7.317 123.239 -2.11 -0.00    +0.000 OA
DOCKED: ATOM     19  H   UNL     1      37.802   7.104 122.645 -0.44 -0.00    +0.000 HD
DOCKED: ENDBRANCH  15  17
DOCKED: ENDBRANCH  11  14
DOCKED: ENDBRANCH   5  12
DOCKED: ENDBRANCH   4   8
DOCKED: ENDBRANCH   1   4
DOCKED: BRANCH   1  19
DOCKED: ATOM     20  C   UNL     1      36.403  17.860 121.005 -0.18 -0.00    +0.000 C 
DOCKED: BRANCH  19  20
DOCKED: ATOM     21  C   UNL     1      37.123  17.801 119.647 -0.10 -0.00    +0.000 C 
DOCKED: BRANCH  20  21
DOCKED: ATOM     22  C   UNL     1      37.159  16.389 119.137 -0.13 -0.00    +0.000 A 
DOCKED: ATOM     23  C   UNL     1      38.125  15.415 119.398 -0.18 -0.00    +0.000 A 
DOCKED: ATOM     24  N   UNL     1      37.858  14.281 118.709 -0.27 -0.00    +0.000 N 
DOCKED: ATOM     25  C   UNL     1      36.746  14.536 117.998 -0.29 -0.00    +0.000 A 
DOCKED: ATOM     26  C   UNL     1      36.295  15.811 118.226 -0.17 -0.00    +0.000 A 
DOCKED: ATOM     27  C   UNL     1      35.167  16.318 117.580 -0.14 -0.00    +0.000 A 
DOCKED: ATOM     28  C   UNL     1      34.489  15.473 116.681 -0.20 -0.00    +0.000 A 
DOCKED: ATOM     29  C   UNL     1      34.951  14.158 116.450 -0.30 -0.00    +0.000 A 
DOCKED: ATOM     30  C   UNL     1      36.096  13.677 117.112 -0.30 -0.00    +0.000 A 
DOCKED: ATOM     31  C   UNL     1      39.286  15.564 120.328 -0.21 -0.00    +0.000 C 
DOCKED: ATOM     32  H   UNL     1      38.373  13.442 118.726 -0.12 -0.00    +0.000 HD
DOCKED: ATOM     33  CM  UNL     1      37.257  15.255 118.694 +0.00 -0.00    +0.000 AC
DOCKED: ATOM     34  CM  UNL     1      35.624  14.995 117.341 +0.00 -0.00    +0.000 AC
DOCKED: ENDBRANCH  20  21
DOCKED: ENDBRANCH  19  20
DOCKED: ENDBRANCH   1  19
DOCKED: TORSDOF 8DOCKED: TER
DOCKED: ENDMDL
________________________________________________________________________________


	BEGINNING GENETIC ALGORITHM DOCKING 38 of 100
Run: 38 Seed: 2075589960 382793203 [ Run 38 of 100 GA/GALS ]
Beginning LAMARCKIAN GENETIC ALGORITHM (LGA), with a maximum of 2500000 energy evaluations.

Final-Value: -16.552


	FINAL GENETIC ALGORITHM DOCKED STATE
	_______________________________________________


Detailed state:  trans 35.219 18.302 123.337 quatxyzw 0.194203 0.930851 0.158222 -0.266021 center 0.698 0.076 -0.072 ntor 8 3.1847 -40.1966 -0.3960 178.3161 19.8531 160.0729 156.2330 -133.7438
State:	 35.219  18.302 123.337   0.201  0.966  0.164 -149.145      3.18  -40.20   -0.40  178.32   19.85  160.07  156.23 -133.74

DOCKED: MODEL       38
DOCKED: USER    Run = 38
DOCKED: USER    DPF = ligand_dock.biased.dpf
DOCKED: USER  
DOCKED: USER    Estimated Free Energy of Binding    =  -11.99 kcal/mol  [=(1)+(2)+(3)-(4)]
DOCKED: USER    Estimated Inhibition Constant, Ki   =    1.62 nM (nanomolar)  [Temperature = 298.15 K]
DOCKED: USER    
DOCKED: USER    (1) Final Intermolecular Energy     =  -14.38 kcal/mol
DOCKED: USER        vdW + Hbond + desolv Energy     =  -14.38 kcal/mol
DOCKED: USER        Electrostatic Energy            =   +0.00 kcal/mol
DOCKED: USER    (2) Final Total Internal Energy     =   -2.17 kcal/mol
DOCKED: USER    (3) Torsional Free Energy           =   +2.39 kcal/mol
DOCKED: USER    (4) Unbound System's Energy  [=(2)] =   -2.17 kcal/mol
DOCKED: USER    
DOCKED: USER    
DOCKED: USER    NEWDPF move ligand.dum.pdbqt
DOCKED: USER    NEWDPF about 0.698000 0.076000 -0.072000
DOCKED: USER    NEWDPF tran0 35.219431 18.301502 123.336616
DOCKED: USER    NEWDPF quaternion0 0.194203 0.930851 0.158222 -0.266021
DOCKED: USER    NEWDPF axisangle0 0.201462 0.965646 0.164137 -149.144793
DOCKED: USER    NEWDPF quat0 0.201462 0.965646 0.164137 -149.144793
DOCKED: USER    NEWDPF dihe0 3.18 -40.20 -0.40 178.32 19.85 160.07 156.23 -133.74 
DOCKED: USER  keepresnum = 1 
DOCKED: USER  
DOCKED: REMARK  Name = 
DOCKED: REMARK  9 active torsions:
DOCKED: REMARK  status: ('A' for Active; 'I' for Inactive)
DOCKED: REMARK    1  A    between atoms: C_2  and  C_3
DOCKED: REMARK    2  A    between atoms: C_4  and  C_5
DOCKED: REMARK    3  A    between atoms: C_8  and  C_9
DOCKED: REMARK    4  A    between atoms: C_9  and  N_10
DOCKED: REMARK    5  A    between atoms: N_10  and  C_11
DOCKED: REMARK    6  A    between atoms: C_11  and  C_12
DOCKED: REMARK    7  A    between atoms: C_12  and  C_13
DOCKED: REMARK    8  A    between atoms: C_14  and  C_22
DOCKED: REMARK    9  A    between atoms: N_25  and  O_26
DOCKED: REMARK                            x       y       z     vdW  Elec       q    Type
DOCKED: REMARK                         _______ _______ _______ _____ _____    ______ ____
DOCKED: USER                              x       y       z     vdW  Elec       q    Type
DOCKED: USER                           _______ _______ _______ _____ _____    ______ ____
DOCKED: ROOT
DOCKED: ATOM      1  N   UNL     1      36.027  18.320 124.180 -0.22 -0.00    +0.000 N 
DOCKED: ATOM      2  H   UNL     1      35.356  17.975 124.868 -0.01 -0.00    +0.000 HD
DOCKED: ATOM      3  H   UNL     1      35.973  19.334 124.086 -0.00 -0.00    +0.000 HD
DOCKED: ENDROOT
DOCKED: BRANCH   1   4
DOCKED: ATOM      4  C   UNL     1      35.710  17.729 122.874 -0.29 -0.00    +0.000 C 
DOCKED: BRANCH   4   8
DOCKED: ATOM      5  C   UNL     1      36.221  13.435 122.985 -0.44 -0.00    +0.000 A 
DOCKED: ATOM      6  C   UNL     1      37.008  14.229 122.127 -0.35 -0.00    +0.000 A 
DOCKED: ATOM      7  C   UNL     1      36.845  15.617 122.098 -0.26 -0.00    +0.000 A 
DOCKED: ATOM      8  C   UNL     1      35.909  16.240 122.937 -0.32 -0.00    +0.000 A 
DOCKED: ATOM      9  C   UNL     1      35.125  15.454 123.795 -0.49 -0.00    +0.000 A 
DOCKED: ATOM     10  C   UNL     1      35.289  14.066 123.826 -0.40 -0.00    +0.000 A 
DOCKED: ATOM     11  CM  UNL     1      36.066  14.840 122.961 +0.00 -0.00    +0.000 AC
DOCKED: BRANCH   5  12
DOCKED: ATOM     12  C   UNL     1      36.878  11.207 122.081 -0.59 -0.00    +0.000 C 
DOCKED: ATOM     13  C   UNL     1      36.362  11.959 123.064 -0.68 -0.00    +0.000 C 
DOCKED: BRANCH  11  14
DOCKED: ATOM     14  O   UNL     1      37.062   9.079 121.092 -2.72 -0.00    +0.000 OA
DOCKED: ATOM     15  C   UNL     1      37.014   9.738 122.164 -0.60 -0.00    +0.000 C 
DOCKED: ATOM     16  N   UNL     1      37.068   9.040 123.416 -0.59 -0.00    +0.000 N 
DOCKED: ATOM     17  H   UNL     1      36.934   9.533 124.258 -0.51 -0.00    +0.000 HD
DOCKED: BRANCH  15  17
DOCKED: ATOM     18  O   UNL     1      37.300   7.706 123.442 -2.22 -0.00    +0.000 OA
DOCKED: ATOM     19  H   UNL     1      37.457   7.387 122.540 -0.17 -0.00    +0.000 HD
DOCKED: ENDBRANCH  15  17
DOCKED: ENDBRANCH  11  14
DOCKED: ENDBRANCH   5  12
DOCKED: ENDBRANCH   4   8
DOCKED: ENDBRANCH   1   4
DOCKED: BRANCH   1  19
DOCKED: ATOM     20  C   UNL     1      37.385  17.979 124.631 -0.18 -0.00    +0.000 C 
DOCKED: BRANCH  19  20
DOCKED: ATOM     21  C   UNL     1      38.462  18.843 123.952 -0.14 -0.00    +0.000 C 
DOCKED: BRANCH  20  21
DOCKED: ATOM     22  C   UNL     1      39.785  18.132 123.966 -0.20 -0.00    +0.000 A 
DOCKED: ATOM     23  C   UNL     1      40.775  18.195 124.949 -0.30 -0.00    +0.000 A 
DOCKED: ATOM     24  N   UNL     1      41.859  17.472 124.583 -0.26 -0.00    +0.000 N 
DOCKED: ATOM     25  C   UNL     1      41.574  16.972 123.369 -0.33 -0.00    +0.000 A 
DOCKED: ATOM     26  C   UNL     1      40.323  17.357 122.956 -0.21 -0.00    +0.000 A 
DOCKED: ATOM     27  C   UNL     1      39.812  16.982 121.713 -0.14 -0.00    +0.000 A 
DOCKED: ATOM     28  C   UNL     1      40.620  16.180 120.885 -0.18 -0.00    +0.000 A 
DOCKED: ATOM     29  C   UNL     1      41.906  15.779 121.312 -0.26 -0.00    +0.000 A 
DOCKED: ATOM     30  C   UNL     1      42.396  16.178 122.570 -0.41 -0.00    +0.000 A 
DOCKED: ATOM     31  C   UNL     1      40.668  18.926 126.249 -0.29 -0.00    +0.000 C 
DOCKED: ATOM     32  H   UNL     1      42.686  17.340 125.101 -0.61 -0.00    +0.000 HD
DOCKED: ATOM     33  CM  UNL     1      40.895  17.621 123.985 +0.00 -0.00    +0.000 AC
DOCKED: ATOM     34  CM  UNL     1      41.106  16.574 122.135 +0.00 -0.00    +0.000 AC
DOCKED: ENDBRANCH  20  21
DOCKED: ENDBRANCH  19  20
DOCKED: ENDBRANCH   1  19
DOCKED: TORSDOF 8DOCKED: TER
DOCKED: ENDMDL
________________________________________________________________________________


	BEGINNING GENETIC ALGORITHM DOCKING 39 of 100
Run: 39 Seed: 762288578 882351480 [ Run 39 of 100 GA/GALS ]
Beginning LAMARCKIAN GENETIC ALGORITHM (LGA), with a maximum of 2500000 energy evaluations.

Final-Value: -14.146


	FINAL GENETIC ALGORITHM DOCKED STATE
	_______________________________________________


Detailed state:  trans 37.688 17.451 124.265 quatxyzw -0.001630 0.888625 0.451005 0.083289 center 0.698 0.076 -0.072 ntor 8 5.9893 -151.9469 78.4368 49.9436 -70.7776 -164.5255 178.1445 -73.4394
State:	 37.688  17.451 124.265  -0.002  0.892  0.453 170.445      5.99 -151.95   78.44   49.94  -70.78 -164.53  178.14  -73.44

DOCKED: MODEL       39
DOCKED: USER    Run = 39
DOCKED: USER    DPF = ligand_dock.biased.dpf
DOCKED: USER  
DOCKED: USER    Estimated Free Energy of Binding    =  -10.33 kcal/mol  [=(1)+(2)+(3)-(4)]
DOCKED: USER    Estimated Inhibition Constant, Ki   =   26.68 nM (nanomolar)  [Temperature = 298.15 K]
DOCKED: USER    
DOCKED: USER    (1) Final Intermolecular Energy     =  -12.72 kcal/mol
DOCKED: USER        vdW + Hbond + desolv Energy     =  -12.72 kcal/mol
DOCKED: USER        Electrostatic Energy            =   +0.00 kcal/mol
DOCKED: USER    (2) Final Total Internal Energy     =   -1.43 kcal/mol
DOCKED: USER    (3) Torsional Free Energy           =   +2.39 kcal/mol
DOCKED: USER    (4) Unbound System's Energy  [=(2)] =   -1.43 kcal/mol
DOCKED: USER    
DOCKED: USER    
DOCKED: USER    NEWDPF move ligand.dum.pdbqt
DOCKED: USER    NEWDPF about 0.698000 0.076000 -0.072000
DOCKED: USER    NEWDPF tran0 37.687853 17.451373 124.264773
DOCKED: USER    NEWDPF quaternion0 -0.001630 0.888625 0.451005 0.083289
DOCKED: USER    NEWDPF axisangle0 -0.001636 0.891723 0.452578 170.444686
DOCKED: USER    NEWDPF quat0 -0.001636 0.891723 0.452578 170.444686
DOCKED: USER    NEWDPF dihe0 5.99 -151.95 78.44 49.94 -70.78 -164.53 178.14 -73.44 
DOCKED: USER  keepresnum = 1 
DOCKED: USER  
DOCKED: REMARK  Name = 
DOCKED: REMARK  9 active torsions:
DOCKED: REMARK  status: ('A' for Active; 'I' for Inactive)
DOCKED: REMARK    1  A    between atoms: C_2  and  C_3
DOCKED: REMARK    2  A    between atoms: C_4  and  C_5
DOCKED: REMARK    3  A    between atoms: C_8  and  C_9
DOCKED: REMARK    4  A    between atoms: C_9  and  N_10
DOCKED: REMARK    5  A    between atoms: N_10  and  C_11
DOCKED: REMARK    6  A    between atoms: C_11  and  C_12
DOCKED: REMARK    7  A    between atoms: C_12  and  C_13
DOCKED: REMARK    8  A    between atoms: C_14  and  C_22
DOCKED: REMARK    9  A    between atoms: N_25  and  O_26
DOCKED: REMARK                            x       y       z     vdW  Elec       q    Type
DOCKED: REMARK                         _______ _______ _______ _____ _____    ______ ____
DOCKED: USER                              x       y       z     vdW  Elec       q    Type
DOCKED: USER                           _______ _______ _______ _____ _____    ______ ____
DOCKED: ROOT
DOCKED: ATOM      1  N   UNL     1      38.740  17.687 124.714 -0.20 -0.00    +0.000 N 
DOCKED: ATOM      2  H   UNL     1      38.801  16.757 125.130 +0.05 -0.00    +0.000 HD
DOCKED: ATOM      3  H   UNL     1      38.237  18.332 125.322 -0.01 -0.00    +0.000 HD
DOCKED: ENDROOT
DOCKED: BRANCH   1   4
DOCKED: ATOM      4  C   UNL     1      38.001  17.591 123.449 -0.21 -0.00    +0.000 C 
DOCKED: BRANCH   4   8
DOCKED: ATOM      5  C   UNL     1      37.071  13.467 122.531 -0.47 -0.00    +0.000 A 
DOCKED: ATOM      6  C   UNL     1      38.340  14.001 122.229 -0.39 -0.00    +0.000 A 
DOCKED: ATOM      7  C   UNL     1      38.639  15.333 122.532 -0.32 -0.00    +0.000 A 
DOCKED: ATOM      8  C   UNL     1      37.688  16.150 123.160 -0.27 -0.00    +0.000 A 
DOCKED: ATOM      9  C   UNL     1      36.424  15.622 123.465 -0.36 -0.00    +0.000 A 
DOCKED: ATOM     10  C   UNL     1      36.125  14.290 123.164 -0.42 -0.00    +0.000 A 
DOCKED: ATOM     11  CM  UNL     1      37.381  14.810 122.846 +0.00 -0.00    +0.000 AC
DOCKED: BRANCH   5  12
DOCKED: ATOM     12  C   UNL     1      37.399  11.002 122.693 -0.18 -0.00    +0.000 C 
DOCKED: ATOM     13  C   UNL     1      36.706  12.058 122.242 -0.61 -0.00    +0.000 C 
DOCKED: BRANCH  11  14
DOCKED: ATOM     14  O   UNL     1      36.701   9.301 121.224 -2.55 -0.00    +0.000 OA
DOCKED: ATOM     15  C   UNL     1      37.033   9.600 122.401 -0.61 -0.00    +0.000 C 
DOCKED: ATOM     16  N   UNL     1      37.018   8.583 123.413 -0.66 -0.00    +0.000 N 
DOCKED: ATOM     17  H   UNL     1      37.181   8.824 124.353 -0.54 -0.00    +0.000 HD
DOCKED: BRANCH  15  17
DOCKED: ATOM     18  O   UNL     1      36.779   7.293 123.076 -2.01 -0.00    +0.000 OA
DOCKED: ATOM     19  H   UNL     1      36.734   7.213 122.111 -0.06 -0.00    +0.000 HD
DOCKED: ENDBRANCH  15  17
DOCKED: ENDBRANCH  11  14
DOCKED: ENDBRANCH   5  12
DOCKED: ENDBRANCH   4   8
DOCKED: ENDBRANCH   1   4
DOCKED: BRANCH   1  19
DOCKED: ATOM     20  C   UNL     1      40.101  18.212 124.525 -0.27 -0.00    +0.000 C 
DOCKED: BRANCH  19  20
DOCKED: ATOM     21  C   UNL     1      40.213  19.699 124.899 -0.14 -0.00    +0.000 C 
DOCKED: BRANCH  20  21
DOCKED: ATOM     22  C   UNL     1      41.085  19.868 126.111 -0.16 -0.00    +0.000 A 
DOCKED: ATOM     23  C   UNL     1      42.010  20.883 126.359 -0.11 -0.00    +0.000 A 
DOCKED: ATOM     24  N   UNL     1      42.658  20.665 127.527 -0.16 -0.00    +0.000 N 
DOCKED: ATOM     25  C   UNL     1      42.168  19.511 128.009 -0.21 -0.00    +0.000 A 
DOCKED: ATOM     26  C   UNL     1      41.212  18.991 127.172 -0.28 -0.00    +0.000 A 
DOCKED: ATOM     27  C   UNL     1      40.575  17.781 127.446 -0.35 -0.00    +0.000 A 
DOCKED: ATOM     28  C   UNL     1      40.935  17.101 128.625 -0.41 -0.00    +0.000 A 
DOCKED: ATOM     29  C   UNL     1      41.914  17.638 129.489 -0.43 -0.00    +0.000 A 
DOCKED: ATOM     30  C   UNL     1      42.544  18.859 129.183 -0.29 -0.00    +0.000 A 
DOCKED: ATOM     31  C   UNL     1      42.253  22.075 125.488 -0.07 -0.00    +0.000 C 
DOCKED: ATOM     32  H   UNL     1      43.347  21.236 127.939 -0.01 -0.00    +0.000 HD
DOCKED: ATOM     33  CM  UNL     1      41.853  20.006 127.051 +0.00 -0.00    +0.000 AC
DOCKED: ATOM     34  CM  UNL     1      41.558  18.314 128.321 +0.00 -0.00    +0.000 AC
DOCKED: ENDBRANCH  20  21
DOCKED: ENDBRANCH  19  20
DOCKED: ENDBRANCH   1  19
DOCKED: TORSDOF 8DOCKED: TER
DOCKED: ENDMDL
________________________________________________________________________________


	BEGINNING GENETIC ALGORITHM DOCKING 40 of 100
Run: 40 Seed: 201928321 991543143 [ Run 40 of 100 GA/GALS ]
Beginning LAMARCKIAN GENETIC ALGORITHM (LGA), with a maximum of 2500000 energy evaluations.

Final-Value: -15.464


	FINAL GENETIC ALGORITHM DOCKED STATE
	_______________________________________________


Detailed state:  trans 35.840 16.968 123.851 quatxyzw -0.380668 0.653239 -0.625254 -0.193462 center 0.698 0.076 -0.072 ntor 8 -0.3618 120.9712 6.3194 113.9750 -87.5395 179.0775 29.9745 67.5919
State:	 35.840  16.968 123.851  -0.388  0.666 -0.637 -157.690     -0.36  120.97    6.32  113.97  -87.54  179.08   29.97   67.59

DOCKED: MODEL       40
DOCKED: USER    Run = 40
DOCKED: USER    DPF = ligand_dock.biased.dpf
DOCKED: USER  
DOCKED: USER    Estimated Free Energy of Binding    =  -10.93 kcal/mol  [=(1)+(2)+(3)-(4)]
DOCKED: USER    Estimated Inhibition Constant, Ki   =    9.73 nM (nanomolar)  [Temperature = 298.15 K]
DOCKED: USER    
DOCKED: USER    (1) Final Intermolecular Energy     =  -13.32 kcal/mol
DOCKED: USER        vdW + Hbond + desolv Energy     =  -13.32 kcal/mol
DOCKED: USER        Electrostatic Energy            =   +0.00 kcal/mol
DOCKED: USER    (2) Final Total Internal Energy     =   -2.15 kcal/mol
DOCKED: USER    (3) Torsional Free Energy           =   +2.39 kcal/mol
DOCKED: USER    (4) Unbound System's Energy  [=(2)] =   -2.15 kcal/mol
DOCKED: USER    
DOCKED: USER    
DOCKED: USER    NEWDPF move ligand.dum.pdbqt
DOCKED: USER    NEWDPF about 0.698000 0.076000 -0.072000
DOCKED: USER    NEWDPF tran0 35.839931 16.968184 123.850640
DOCKED: USER    NEWDPF quaternion0 -0.380668 0.653239 -0.625254 -0.193462
DOCKED: USER    NEWDPF axisangle0 -0.387998 0.665818 -0.637294 -157.690226
DOCKED: USER    NEWDPF quat0 -0.387998 0.665818 -0.637294 -157.690226
DOCKED: USER    NEWDPF dihe0 -0.36 120.97 6.32 113.97 -87.54 179.08 29.97 67.59 
DOCKED: USER  keepresnum = 1 
DOCKED: USER  
DOCKED: REMARK  Name = 
DOCKED: REMARK  9 active torsions:
DOCKED: REMARK  status: ('A' for Active; 'I' for Inactive)
DOCKED: REMARK    1  A    between atoms: C_2  and  C_3
DOCKED: REMARK    2  A    between atoms: C_4  and  C_5
DOCKED: REMARK    3  A    between atoms: C_8  and  C_9
DOCKED: REMARK    4  A    between atoms: C_9  and  N_10
DOCKED: REMARK    5  A    between atoms: N_10  and  C_11
DOCKED: REMARK    6  A    between atoms: C_11  and  C_12
DOCKED: REMARK    7  A    between atoms: C_12  and  C_13
DOCKED: REMARK    8  A    between atoms: C_14  and  C_22
DOCKED: REMARK    9  A    between atoms: N_25  and  O_26
DOCKED: REMARK                            x       y       z     vdW  Elec       q    Type
DOCKED: REMARK                         _______ _______ _______ _____ _____    ______ ____
DOCKED: USER                              x       y       z     vdW  Elec       q    Type
DOCKED: USER                           _______ _______ _______ _____ _____    ______ ____
DOCKED: ROOT
DOCKED: ATOM      1  N   UNL     1      36.155  17.812 123.107 -0.21 -0.00    +0.000 N 
DOCKED: ATOM      2  H   UNL     1      35.438  18.440 123.472 -0.00 -0.00    +0.000 HD
DOCKED: ATOM      3  H   UNL     1      35.777  17.196 122.388 -0.00 -0.00    +0.000 HD
DOCKED: ENDROOT
DOCKED: BRANCH   1   4
DOCKED: ATOM      4  C   UNL     1      36.651  16.972 124.205 -0.25 -0.00    +0.000 C 
DOCKED: BRANCH   4   8
DOCKED: ATOM      5  C   UNL     1      37.080  12.866 122.913 -0.53 -0.00    +0.000 A 
DOCKED: ATOM      6  C   UNL     1      35.938  13.277 123.628 -0.53 -0.00    +0.000 A 
DOCKED: ATOM      7  C   UNL     1      35.799  14.607 124.039 -0.46 -0.00    +0.000 A 
DOCKED: ATOM      8  C   UNL     1      36.786  15.553 123.727 -0.30 -0.00    +0.000 A 
DOCKED: ATOM      9  C   UNL     1      37.924  15.149 123.014 -0.34 -0.00    +0.000 A 
DOCKED: ATOM     10  C   UNL     1      38.062  13.820 122.601 -0.43 -0.00    +0.000 A 
DOCKED: ATOM     11  CM  UNL     1      36.932  14.212 123.321 +0.00 -0.00    +0.000 AC
DOCKED: BRANCH   5  12
DOCKED: ATOM     12  C   UNL     1      36.568  10.427 122.905 -0.69 -0.00    +0.000 C 
DOCKED: ATOM     13  C   UNL     1      37.271  11.471 122.443 -0.42 -0.00    +0.000 C 
DOCKED: BRANCH  11  14
DOCKED: ATOM     14  O   UNL     1      36.907   8.839 121.201 -2.65 -0.00    +0.000 OA
DOCKED: ATOM     15  C   UNL     1      36.763   9.039 122.436 -0.73 -0.00    +0.000 C 
DOCKED: ATOM     16  N   UNL     1      36.768   7.919 123.332 -0.74 -0.00    +0.000 N 
DOCKED: ATOM     17  H   UNL     1      36.561   8.051 124.285 -0.28 -0.00    +0.000 HD
DOCKED: BRANCH  15  17
DOCKED: ATOM     18  O   UNL     1      37.056   6.679 122.868 -1.42 -0.00    +0.000 OA
DOCKED: ATOM     19  H   UNL     1      37.230   6.722 121.915 -0.33 -0.00    +0.000 HD
DOCKED: ENDBRANCH  15  17
DOCKED: ENDBRANCH  11  14
DOCKED: ENDBRANCH   5  12
DOCKED: ENDBRANCH   4   8
DOCKED: ENDBRANCH   1   4
DOCKED: BRANCH   1  19
DOCKED: ATOM     20  C   UNL     1      37.224  18.618 122.496 -0.14 -0.00    +0.000 C 
DOCKED: BRANCH  19  20
DOCKED: ATOM     21  C   UNL     1      38.098  19.325 123.546 -0.11 -0.00    +0.000 C 
DOCKED: BRANCH  20  21
DOCKED: ATOM     22  C   UNL     1      39.335  18.519 123.822 -0.15 -0.00    +0.000 A 
DOCKED: ATOM     23  C   UNL     1      40.106  18.515 124.986 -0.24 -0.00    +0.000 A 
DOCKED: ATOM     24  N   UNL     1      41.186  17.713 124.842 -0.36 -0.00    +0.000 N 
DOCKED: ATOM     25  C   UNL     1      41.119  17.228 123.591 -0.30 -0.00    +0.000 A 
DOCKED: ATOM     26  C   UNL     1      40.010  17.701 122.935 -0.17 -0.00    +0.000 A 
DOCKED: ATOM     27  C   UNL     1      39.737  17.357 121.611 -0.11 -0.00    +0.000 A 
DOCKED: ATOM     28  C   UNL     1      40.635  16.494 120.958 -0.16 -0.00    +0.000 A 
DOCKED: ATOM     29  C   UNL     1      41.774  16.003 121.633 -0.30 -0.00    +0.000 A 
DOCKED: ATOM     30  C   UNL     1      42.026  16.371 122.968 -0.39 -0.00    +0.000 A 
DOCKED: ATOM     31  C   UNL     1      39.790  19.259 126.245 -0.20 -0.00    +0.000 C 
DOCKED: ATOM     32  H   UNL     1      41.879  17.524 125.516 -0.38 -0.00    +0.000 HD
DOCKED: ATOM     33  CM  UNL     1      40.377  17.928 124.061 +0.00 -0.00    +0.000 AC
DOCKED: ATOM     34  CM  UNL     1      40.884  16.859 122.283 +0.00 -0.00    +0.000 AC
DOCKED: ENDBRANCH  20  21
DOCKED: ENDBRANCH  19  20
DOCKED: ENDBRANCH   1  19
DOCKED: TORSDOF 8DOCKED: TER
DOCKED: ENDMDL
________________________________________________________________________________


	BEGINNING GENETIC ALGORITHM DOCKING 41 of 100
Run: 41 Seed: 1679139359 891489046 [ Run 41 of 100 GA/GALS ]
Beginning LAMARCKIAN GENETIC ALGORITHM (LGA), with a maximum of 2500000 energy evaluations.

Final-Value: -14.862


	FINAL GENETIC ALGORITHM DOCKED STATE
	_______________________________________________


Detailed state:  trans 37.117 15.203 122.476 quatxyzw 0.690477 -0.697960 -0.091124 -0.166703 center 0.698 0.076 -0.072 ntor 8 -6.3509 -179.9105 -100.3244 -178.4072 -133.7659 65.9834 -147.1756 12.0479
State:	 37.117  15.203 122.476   0.700 -0.708 -0.092 -160.808     -6.35 -179.91 -100.32 -178.41 -133.77   65.98 -147.18   12.05

DOCKED: MODEL       41
DOCKED: USER    Run = 41
DOCKED: USER    DPF = ligand_dock.biased.dpf
DOCKED: USER  
DOCKED: USER    Estimated Free Energy of Binding    =  -10.67 kcal/mol  [=(1)+(2)+(3)-(4)]
DOCKED: USER    Estimated Inhibition Constant, Ki   =   15.13 nM (nanomolar)  [Temperature = 298.15 K]
DOCKED: USER    
DOCKED: USER    (1) Final Intermolecular Energy     =  -13.05 kcal/mol
DOCKED: USER        vdW + Hbond + desolv Energy     =  -13.05 kcal/mol
DOCKED: USER        Electrostatic Energy            =   +0.00 kcal/mol
DOCKED: USER    (2) Final Total Internal Energy     =   -1.81 kcal/mol
DOCKED: USER    (3) Torsional Free Energy           =   +2.39 kcal/mol
DOCKED: USER    (4) Unbound System's Energy  [=(2)] =   -1.81 kcal/mol
DOCKED: USER    
DOCKED: USER    
DOCKED: USER    NEWDPF move ligand.dum.pdbqt
DOCKED: USER    NEWDPF about 0.698000 0.076000 -0.072000
DOCKED: USER    NEWDPF tran0 37.116690 15.202844 122.476234
DOCKED: USER    NEWDPF quaternion0 0.690477 -0.697960 -0.091124 -0.166703
DOCKED: USER    NEWDPF axisangle0 0.700276 -0.707865 -0.092417 -160.807587
DOCKED: USER    NEWDPF quat0 0.700276 -0.707865 -0.092417 -160.807587
DOCKED: USER    NEWDPF dihe0 -6.35 -179.91 -100.32 -178.41 -133.77 65.98 -147.18 12.05 
DOCKED: USER  keepresnum = 1 
DOCKED: USER  
DOCKED: REMARK  Name = 
DOCKED: REMARK  9 active torsions:
DOCKED: REMARK  status: ('A' for Active; 'I' for Inactive)
DOCKED: REMARK    1  A    between atoms: C_2  and  C_3
DOCKED: REMARK    2  A    between atoms: C_4  and  C_5
DOCKED: REMARK    3  A    between atoms: C_8  and  C_9
DOCKED: REMARK    4  A    between atoms: C_9  and  N_10
DOCKED: REMARK    5  A    between atoms: N_10  and  C_11
DOCKED: REMARK    6  A    between atoms: C_11  and  C_12
DOCKED: REMARK    7  A    between atoms: C_12  and  C_13
DOCKED: REMARK    8  A    between atoms: C_14  and  C_22
DOCKED: REMARK    9  A    between atoms: N_25  and  O_26
DOCKED: REMARK                            x       y       z     vdW  Elec       q    Type
DOCKED: REMARK                         _______ _______ _______ _____ _____    ______ ____
DOCKED: USER                              x       y       z     vdW  Elec       q    Type
DOCKED: USER                           _______ _______ _______ _____ _____    ______ ____
DOCKED: ROOT
DOCKED: ATOM      1  N   UNL     1      36.652  16.228 122.789 -0.27 -0.00    +0.000 N 
DOCKED: ATOM      2  H   UNL     1      37.209  16.251 123.643 -0.02 -0.00    +0.000 HD
DOCKED: ATOM      3  H   UNL     1      35.792  15.696 122.921 -0.01 -0.00    +0.000 HD
DOCKED: ENDROOT
DOCKED: BRANCH   1   4
DOCKED: ATOM      4  C   UNL     1      37.432  15.567 121.734 -0.28 -0.00    +0.000 C 
DOCKED: BRANCH   4   8
DOCKED: ATOM      5  C   UNL     1      37.042  11.283 122.185 -0.50 -0.00    +0.000 A 
DOCKED: ATOM      6  C   UNL     1      37.204  11.858 120.909 -0.46 -0.00    +0.000 A 
DOCKED: ATOM      7  C   UNL     1      37.336  13.243 120.767 -0.41 -0.00    +0.000 A 
DOCKED: ATOM      8  C   UNL     1      37.329  14.077 121.895 -0.37 -0.00    +0.000 A 
DOCKED: ATOM      9  C   UNL     1      37.171  13.509 123.168 -0.50 -0.00    +0.000 A 
DOCKED: ATOM     10  C   UNL     1      37.042  12.124 123.310 -0.59 -0.00    +0.000 A 
DOCKED: ATOM     11  CM  UNL     1      37.187  12.682 122.039 +0.00 -0.00    +0.000 AC
DOCKED: BRANCH   5  12
DOCKED: ATOM     12  C   UNL     1      35.867   9.246 123.011 -0.67 -0.00    +0.000 C 
DOCKED: ATOM     13  C   UNL     1      36.911   9.820 122.393 -0.63 -0.00    +0.000 C 
DOCKED: BRANCH  11  14
DOCKED: ATOM     14  O   UNL     1      36.769   7.073 123.083 -1.81 -0.00    +0.000 OA
DOCKED: ATOM     15  C   UNL     1      35.741   7.789 123.218 -0.74 -0.00    +0.000 C 
DOCKED: ATOM     16  N   UNL     1      34.491   7.163 123.539 -0.70 -0.00    +0.000 N 
DOCKED: ATOM     17  H   UNL     1      33.664   7.697 123.552 -0.12 -0.00    +0.000 HD
DOCKED: BRANCH  15  17
DOCKED: ATOM     18  O   UNL     1      34.446   5.839 123.823 -0.90 -0.00    +0.000 OA
DOCKED: ATOM     19  H   UNL     1      35.318   5.445 123.670 -0.14 -0.00    +0.000 HD
DOCKED: ENDBRANCH  15  17
DOCKED: ENDBRANCH  11  14
DOCKED: ENDBRANCH   5  12
DOCKED: ENDBRANCH   4   8
DOCKED: ENDBRANCH   1   4
DOCKED: BRANCH   1  19
DOCKED: ATOM     20  C   UNL     1      36.281  17.605 122.427 -0.23 -0.00    +0.000 C 
DOCKED: BRANCH  19  20
DOCKED: ATOM     21  C   UNL     1      34.816  17.926 122.765 -0.35 -0.00    +0.000 C 
DOCKED: BRANCH  20  21
DOCKED: ATOM     22  C   UNL     1      34.511  17.538 124.183 -0.37 -0.00    +0.000 A 
DOCKED: ATOM     23  C   UNL     1      34.100  16.289 124.655 -0.45 -0.00    +0.000 A 
DOCKED: ATOM     24  N   UNL     1      33.855  16.336 125.985 -0.47 -0.00    +0.000 N 
DOCKED: ATOM     25  C   UNL     1      34.086  17.607 126.355 -0.32 -0.00    +0.000 A 
DOCKED: ATOM     26  C   UNL     1      34.480  18.371 125.286 -0.30 -0.00    +0.000 A 
DOCKED: ATOM     27  C   UNL     1      34.752  19.733 125.416 -0.18 -0.00    +0.000 A 
DOCKED: ATOM     28  C   UNL     1      34.619  20.310 126.693 -0.13 -0.00    +0.000 A 
DOCKED: ATOM     29  C   UNL     1      34.218  19.523 127.795 -0.11 -0.00    +0.000 A 
DOCKED: ATOM     30  C   UNL     1      33.945  18.153 127.631 -0.22 -0.00    +0.000 A 
DOCKED: ATOM     31  C   UNL     1      33.968  15.046 123.833 -0.44 -0.00    +0.000 C 
DOCKED: ATOM     32  H   UNL     1      33.568  15.592 126.562 -0.07 -0.00    +0.000 HD
DOCKED: ATOM     33  CM  UNL     1      34.195  17.199 125.314 -0.26 -0.00    +0.000 AC
DOCKED: ATOM     34  CM  UNL     1      34.350  18.949 126.530 -0.03 -0.00    +0.000 AC
DOCKED: ENDBRANCH  20  21
DOCKED: ENDBRANCH  19  20
DOCKED: ENDBRANCH   1  19
DOCKED: TORSDOF 8DOCKED: TER
DOCKED: ENDMDL
________________________________________________________________________________


	BEGINNING GENETIC ALGORITHM DOCKING 42 of 100
Run: 42 Seed: 1611136291 1963475606 [ Run 42 of 100 GA/GALS ]
Beginning LAMARCKIAN GENETIC ALGORITHM (LGA), with a maximum of 2500000 energy evaluations.

Final-Value: -16.409


	FINAL GENETIC ALGORITHM DOCKED STATE
	_______________________________________________


Detailed state:  trans 36.971 16.884 124.180 quatxyzw 0.441735 -0.630572 -0.496117 -0.401394 center 0.698 0.076 -0.072 ntor 8 19.7496 19.0251 95.3817 174.5234 157.3599 20.4823 -20.2576 -15.3624
State:	 36.971  16.884 124.180   0.482 -0.688 -0.542 -132.669     19.75   19.03   95.38  174.52  157.36   20.48  -20.26  -15.36

DOCKED: MODEL       42
DOCKED: USER    Run = 42
DOCKED: USER    DPF = ligand_dock.biased.dpf
DOCKED: USER  
DOCKED: USER    Estimated Free Energy of Binding    =  -11.79 kcal/mol  [=(1)+(2)+(3)-(4)]
DOCKED: USER    Estimated Inhibition Constant, Ki   =    2.28 nM (nanomolar)  [Temperature = 298.15 K]
DOCKED: USER    
DOCKED: USER    (1) Final Intermolecular Energy     =  -14.18 kcal/mol
DOCKED: USER        vdW + Hbond + desolv Energy     =  -14.18 kcal/mol
DOCKED: USER        Electrostatic Energy            =   +0.00 kcal/mol
DOCKED: USER    (2) Final Total Internal Energy     =   -2.23 kcal/mol
DOCKED: USER    (3) Torsional Free Energy           =   +2.39 kcal/mol
DOCKED: USER    (4) Unbound System's Energy  [=(2)] =   -2.23 kcal/mol
DOCKED: USER    
DOCKED: USER    
DOCKED: USER    NEWDPF move ligand.dum.pdbqt
DOCKED: USER    NEWDPF about 0.698000 0.076000 -0.072000
DOCKED: USER    NEWDPF tran0 36.971308 16.883535 124.180172
DOCKED: USER    NEWDPF quaternion0 0.441735 -0.630572 -0.496117 -0.401394
DOCKED: USER    NEWDPF axisangle0 0.482293 -0.688468 -0.541669 -132.669342
DOCKED: USER    NEWDPF quat0 0.482293 -0.688468 -0.541669 -132.669342
DOCKED: USER    NEWDPF dihe0 19.75 19.03 95.38 174.52 157.36 20.48 -20.26 -15.36 
DOCKED: USER  keepresnum = 1 
DOCKED: USER  
DOCKED: REMARK  Name = 
DOCKED: REMARK  9 active torsions:
DOCKED: REMARK  status: ('A' for Active; 'I' for Inactive)
DOCKED: REMARK    1  A    between atoms: C_2  and  C_3
DOCKED: REMARK    2  A    between atoms: C_4  and  C_5
DOCKED: REMARK    3  A    between atoms: C_8  and  C_9
DOCKED: REMARK    4  A    between atoms: C_9  and  N_10
DOCKED: REMARK    5  A    between atoms: N_10  and  C_11
DOCKED: REMARK    6  A    between atoms: C_11  and  C_12
DOCKED: REMARK    7  A    between atoms: C_12  and  C_13
DOCKED: REMARK    8  A    between atoms: C_14  and  C_22
DOCKED: REMARK    9  A    between atoms: N_25  and  O_26
DOCKED: REMARK                            x       y       z     vdW  Elec       q    Type
DOCKED: REMARK                         _______ _______ _______ _____ _____    ______ ____
DOCKED: USER                              x       y       z     vdW  Elec       q    Type
DOCKED: USER                           _______ _______ _______ _____ _____    ______ ____
DOCKED: ROOT
DOCKED: ATOM      1  N   UNL     1      37.381  17.835 124.720 -0.19 -0.00    +0.000 N 
DOCKED: ATOM      2  H   UNL     1      38.334  17.470 124.700 -0.02 -0.00    +0.000 HD
DOCKED: ATOM      3  H   UNL     1      36.868  17.487 125.529 -0.01 -0.00    +0.000 HD
DOCKED: ENDROOT
DOCKED: BRANCH   1   4
DOCKED: ATOM      4  C   UNL     1      36.677  17.384 123.512 -0.26 -0.00    +0.000 C 
DOCKED: BRANCH   4   8
DOCKED: ATOM      5  C   UNL     1      36.997  13.076 123.288 -0.54 -0.00    +0.000 A 
DOCKED: ATOM      6  C   UNL     1      35.801  13.685 123.717 -0.48 -0.00    +0.000 A 
DOCKED: ATOM      7  C   UNL     1      35.699  15.078 123.783 -0.46 -0.00    +0.000 A 
DOCKED: ATOM      8  C   UNL     1      36.778  15.889 123.403 -0.32 -0.00    +0.000 A 
DOCKED: ATOM      9  C   UNL     1      37.970  15.287 122.972 -0.33 -0.00    +0.000 A 
DOCKED: ATOM     10  C   UNL     1      38.072  13.895 122.904 -0.43 -0.00    +0.000 A 
DOCKED: ATOM     11  CM  UNL     1      36.887  14.485 123.345 +0.00 -0.00    +0.000 AC
DOCKED: BRANCH   5  12
DOCKED: ATOM     12  C   UNL     1      36.576  10.857 122.235 -0.65 -0.00    +0.000 C 
DOCKED: ATOM     13  C   UNL     1      37.155  11.604 123.187 -0.60 -0.00    +0.000 C 
DOCKED: BRANCH  11  14
DOCKED: ATOM     14  O   UNL     1      36.776   8.865 120.997 -2.64 -0.00    +0.000 OA
DOCKED: ATOM     15  C   UNL     1      36.734   9.390 122.140 -0.70 -0.00    +0.000 C 
DOCKED: ATOM     16  N   UNL     1      36.815   8.550 123.300 -0.67 -0.00    +0.000 N 
DOCKED: ATOM     17  H   UNL     1      36.687   8.936 124.196 -0.45 -0.00    +0.000 HD
DOCKED: BRANCH  15  17
DOCKED: ATOM     18  O   UNL     1      37.066   7.226 123.164 -2.03 -0.00    +0.000 OA
DOCKED: ATOM     19  H   UNL     1      37.467   7.059 122.297 -0.22 -0.00    +0.000 HD
DOCKED: ENDBRANCH  15  17
DOCKED: ENDBRANCH  11  14
DOCKED: ENDBRANCH   5  12
DOCKED: ENDBRANCH   4   8
DOCKED: ENDBRANCH   1   4
DOCKED: BRANCH   1  19
DOCKED: ATOM     20  C   UNL     1      37.437  19.302 124.817 -0.15 -0.00    +0.000 C 
DOCKED: BRANCH  19  20
DOCKED: ATOM     21  C   UNL     1      38.767  19.874 124.299 -0.09 -0.00    +0.000 C 
DOCKED: BRANCH  20  21
DOCKED: ATOM     22  C   UNL     1      39.816  18.799 124.259 -0.16 -0.00    +0.000 A 
DOCKED: ATOM     23  C   UNL     1      40.753  18.488 125.247 -0.28 -0.00    +0.000 A 
DOCKED: ATOM     24  N   UNL     1      41.580  17.502 124.827 -0.32 -0.00    +0.000 N 
DOCKED: ATOM     25  C   UNL     1      41.190  17.203 123.576 -0.31 -0.00    +0.000 A 
DOCKED: ATOM     26  C   UNL     1      40.123  17.976 123.192 -0.17 -0.00    +0.000 A 
DOCKED: ATOM     27  C   UNL     1      39.556  17.866 121.922 -0.09 -0.00    +0.000 A 
DOCKED: ATOM     28  C   UNL     1      40.108  16.924 121.035 -0.12 -0.00    +0.000 A 
DOCKED: ATOM     29  C   UNL     1      41.203  16.124 121.432 -0.24 -0.00    +0.000 A 
DOCKED: ATOM     30  C   UNL     1      41.757  16.261 122.718 -0.39 -0.00    +0.000 A 
DOCKED: ATOM     31  C   UNL     1      40.837  19.117 126.601 -0.28 -0.00    +0.000 C 
DOCKED: ATOM     32  H   UNL     1      42.316  17.089 125.335 -0.55 -0.00    +0.000 HD
DOCKED: ATOM     33  CM  UNL     1      40.721  17.978 124.240 +0.00 -0.00    +0.000 AC
DOCKED: ATOM     34  CM  UNL     1      40.656  17.059 122.313 +0.00 -0.00    +0.000 AC
DOCKED: ENDBRANCH  20  21
DOCKED: ENDBRANCH  19  20
DOCKED: ENDBRANCH   1  19
DOCKED: TORSDOF 8DOCKED: TER
DOCKED: ENDMDL
________________________________________________________________________________


	BEGINNING GENETIC ALGORITHM DOCKING 43 of 100
Run: 43 Seed: 1111064030 25051981 [ Run 43 of 100 GA/GALS ]
Beginning LAMARCKIAN GENETIC ALGORITHM (LGA), with a maximum of 2500000 energy evaluations.

Final-Value: -15.703


	FINAL GENETIC ALGORITHM DOCKED STATE
	_______________________________________________


Detailed state:  trans 37.881 16.936 122.914 quatxyzw -0.297558 0.313696 -0.487787 -0.758365 center 0.698 0.076 -0.072 ntor 8 7.3339 -116.1344 -124.9932 -178.8007 -159.5207 169.2791 -10.3779 -28.6706
State:	 37.881  16.936 122.914  -0.456  0.481 -0.748 -81.359      7.33 -116.13 -124.99 -178.80 -159.52  169.28  -10.38  -28.67

DOCKED: MODEL       43
DOCKED: USER    Run = 43
DOCKED: USER    DPF = ligand_dock.biased.dpf
DOCKED: USER  
DOCKED: USER    Estimated Free Energy of Binding    =  -11.08 kcal/mol  [=(1)+(2)+(3)-(4)]
DOCKED: USER    Estimated Inhibition Constant, Ki   =    7.61 nM (nanomolar)  [Temperature = 298.15 K]
DOCKED: USER    
DOCKED: USER    (1) Final Intermolecular Energy     =  -13.46 kcal/mol
DOCKED: USER        vdW + Hbond + desolv Energy     =  -13.46 kcal/mol
DOCKED: USER        Electrostatic Energy            =   +0.00 kcal/mol
DOCKED: USER    (2) Final Total Internal Energy     =   -2.24 kcal/mol
DOCKED: USER    (3) Torsional Free Energy           =   +2.39 kcal/mol
DOCKED: USER    (4) Unbound System's Energy  [=(2)] =   -2.24 kcal/mol
DOCKED: USER    
DOCKED: USER    
DOCKED: USER    NEWDPF move ligand.dum.pdbqt
DOCKED: USER    NEWDPF about 0.698000 0.076000 -0.072000
DOCKED: USER    NEWDPF tran0 37.881152 16.935625 122.913550
DOCKED: USER    NEWDPF quaternion0 -0.297558 0.313696 -0.487787 -0.758365
DOCKED: USER    NEWDPF axisangle0 -0.456496 0.481254 -0.748335 -81.359436
DOCKED: USER    NEWDPF quat0 -0.456496 0.481254 -0.748335 -81.359436
DOCKED: USER    NEWDPF dihe0 7.33 -116.13 -124.99 -178.80 -159.52 169.28 -10.38 -28.67 
DOCKED: USER  keepresnum = 1 
DOCKED: USER  
DOCKED: REMARK  Name = 
DOCKED: REMARK  9 active torsions:
DOCKED: REMARK  status: ('A' for Active; 'I' for Inactive)
DOCKED: REMARK    1  A    between atoms: C_2  and  C_3
DOCKED: REMARK    2  A    between atoms: C_4  and  C_5
DOCKED: REMARK    3  A    between atoms: C_8  and  C_9
DOCKED: REMARK    4  A    between atoms: C_9  and  N_10
DOCKED: REMARK    5  A    between atoms: N_10  and  C_11
DOCKED: REMARK    6  A    between atoms: C_11  and  C_12
DOCKED: REMARK    7  A    between atoms: C_12  and  C_13
DOCKED: REMARK    8  A    between atoms: C_14  and  C_22
DOCKED: REMARK    9  A    between atoms: N_25  and  O_26
DOCKED: REMARK                            x       y       z     vdW  Elec       q    Type
DOCKED: REMARK                         _______ _______ _______ _____ _____    ______ ____
DOCKED: USER                              x       y       z     vdW  Elec       q    Type
DOCKED: USER                           _______ _______ _______ _____ _____    ______ ____
DOCKED: ROOT
DOCKED: ATOM      1  N   UNL     1      37.700  18.020 122.518 -0.12 -0.00    +0.000 N 
DOCKED: ATOM      2  H   UNL     1      36.844  17.733 122.043 +0.00 -0.00    +0.000 HD
DOCKED: ATOM      3  H   UNL     1      38.521  17.848 121.937 +0.00 -0.00    +0.000 HD
DOCKED: ENDROOT
DOCKED: BRANCH   1   4
DOCKED: ATOM      4  C   UNL     1      37.846  17.230 123.748 -0.24 -0.00    +0.000 C 
DOCKED: BRANCH   4   8
DOCKED: ATOM      5  C   UNL     1      36.742  13.106 123.053 -0.54 -0.00    +0.000 A 
DOCKED: ATOM      6  C   UNL     1      35.913  13.951 123.817 -0.50 -0.00    +0.000 A 
DOCKED: ATOM      7  C   UNL     1      36.270  15.285 124.035 -0.32 -0.00    +0.000 A 
DOCKED: ATOM      8  C   UNL     1      37.447  15.806 123.478 -0.28 -0.00    +0.000 A 
DOCKED: ATOM      9  C   UNL     1      38.275  14.969 122.714 -0.36 -0.00    +0.000 A 
DOCKED: ATOM     10  C   UNL     1      37.917  13.635 122.495 -0.43 -0.00    +0.000 A 
DOCKED: ATOM     11  CM  UNL     1      37.094  14.458 123.266 +0.00 -0.00    +0.000 AC
DOCKED: BRANCH   5  12
DOCKED: ATOM     12  C   UNL     1      37.322  10.717 122.643 -0.18 -0.00    +0.000 C 
DOCKED: ATOM     13  C   UNL     1      36.405  11.686 122.781 -0.67 -0.00    +0.000 C 
DOCKED: BRANCH  11  14
DOCKED: ATOM     14  O   UNL     1      36.702   8.974 121.187 -2.62 -0.00    +0.000 OA
DOCKED: ATOM     15  C   UNL     1      36.981   9.305 122.369 -0.66 -0.00    +0.000 C 
DOCKED: ATOM     16  N   UNL     1      36.934   8.312 123.403 -0.70 -0.00    +0.000 N 
DOCKED: ATOM     17  H   UNL     1      37.055   8.576 124.344 -0.48 -0.00    +0.000 HD
DOCKED: BRANCH  15  17
DOCKED: ATOM     18  O   UNL     1      36.721   7.011 123.089 -1.74 -0.00    +0.000 OA
DOCKED: ATOM     19  H   UNL     1      36.739   6.905 122.125 -0.10 -0.00    +0.000 HD
DOCKED: ENDBRANCH  15  17
DOCKED: ENDBRANCH  11  14
DOCKED: ENDBRANCH   5  12
DOCKED: ENDBRANCH   4   8
DOCKED: ENDBRANCH   1   4
DOCKED: BRANCH   1  19
DOCKED: ATOM     20  C   UNL     1      37.632  19.464 122.789 -0.11 -0.00    +0.000 C 
DOCKED: BRANCH  19  20
DOCKED: ATOM     21  C   UNL     1      36.197  19.940 123.071 -0.17 -0.00    +0.000 C 
DOCKED: BRANCH  20  21
DOCKED: ATOM     22  C   UNL     1      35.359  18.801 123.576 -0.20 -0.00    +0.000 A 
DOCKED: ATOM     23  C   UNL     1      34.642  17.871 122.819 -0.33 -0.00    +0.000 A 
DOCKED: ATOM     24  N   UNL     1      33.950  17.031 123.624 -0.37 -0.00    +0.000 N 
DOCKED: ATOM     25  C   UNL     1      34.204  17.434 124.880 -0.38 -0.00    +0.000 A 
DOCKED: ATOM     26  C   UNL     1      35.053  18.513 124.893 -0.26 -0.00    +0.000 A 
DOCKED: ATOM     27  C   UNL     1      35.443  19.127 126.083 -0.18 -0.00    +0.000 A 
DOCKED: ATOM     28  C   UNL     1      34.945  18.599 127.289 -0.16 -0.00    +0.000 A 
DOCKED: ATOM     29  C   UNL     1      34.076  17.485 127.277 -0.26 -0.00    +0.000 A 
DOCKED: ATOM     30  C   UNL     1      33.696  16.891 126.060 -0.37 -0.00    +0.000 A 
DOCKED: ATOM     31  C   UNL     1      34.643  17.774 121.327 -0.33 -0.00    +0.000 C 
DOCKED: ATOM     32  H   UNL     1      33.379  16.279 123.345 -0.02 -0.00    +0.000 HD
DOCKED: ATOM     33  CM  UNL     1      34.620  17.901 123.947 -0.20 -0.00    +0.000 AC
DOCKED: ATOM     34  CM  UNL     1      34.569  18.008 126.080 -0.20 -0.00    +0.000 AC
DOCKED: ENDBRANCH  20  21
DOCKED: ENDBRANCH  19  20
DOCKED: ENDBRANCH   1  19
DOCKED: TORSDOF 8DOCKED: TER
DOCKED: ENDMDL
________________________________________________________________________________


	BEGINNING GENETIC ALGORITHM DOCKING 44 of 100
Run: 44 Seed: 625535879 1064724427 [ Run 44 of 100 GA/GALS ]
Beginning LAMARCKIAN GENETIC ALGORITHM (LGA), with a maximum of 2500000 energy evaluations.

Final-Value: -15.185


	FINAL GENETIC ALGORITHM DOCKED STATE
	_______________________________________________


Detailed state:  trans 37.147 17.098 123.610 quatxyzw 0.216548 -0.607432 -0.532987 -0.547776 center 0.698 0.076 -0.072 ntor 8 35.0050 -8.3649 144.4701 -15.3715 -165.5980 33.2400 160.5861 -26.0238
State:	 37.147  17.098 123.610   0.259 -0.726 -0.637 -113.571     35.01   -8.36  144.47  -15.37 -165.60   33.24  160.59  -26.02

DOCKED: MODEL       44
DOCKED: USER    Run = 44
DOCKED: USER    DPF = ligand_dock.biased.dpf
DOCKED: USER  
DOCKED: USER    Estimated Free Energy of Binding    =  -10.82 kcal/mol  [=(1)+(2)+(3)-(4)]
DOCKED: USER    Estimated Inhibition Constant, Ki   =   11.64 nM (nanomolar)  [Temperature = 298.15 K]
DOCKED: USER    
DOCKED: USER    (1) Final Intermolecular Energy     =  -13.21 kcal/mol
DOCKED: USER        vdW + Hbond + desolv Energy     =  -13.21 kcal/mol
DOCKED: USER        Electrostatic Energy            =   +0.00 kcal/mol
DOCKED: USER    (2) Final Total Internal Energy     =   -1.97 kcal/mol
DOCKED: USER    (3) Torsional Free Energy           =   +2.39 kcal/mol
DOCKED: USER    (4) Unbound System's Energy  [=(2)] =   -1.97 kcal/mol
DOCKED: USER    
DOCKED: USER    
DOCKED: USER    NEWDPF move ligand.dum.pdbqt
DOCKED: USER    NEWDPF about 0.698000 0.076000 -0.072000
DOCKED: USER    NEWDPF tran0 37.146717 17.098475 123.610327
DOCKED: USER    NEWDPF quaternion0 0.216548 -0.607432 -0.532987 -0.547776
DOCKED: USER    NEWDPF axisangle0 0.258835 -0.726050 -0.637068 -113.570825
DOCKED: USER    NEWDPF quat0 0.258835 -0.726050 -0.637068 -113.570825
DOCKED: USER    NEWDPF dihe0 35.01 -8.36 144.47 -15.37 -165.60 33.24 160.59 -26.02 
DOCKED: USER  keepresnum = 1 
DOCKED: USER  
DOCKED: REMARK  Name = 
DOCKED: REMARK  9 active torsions:
DOCKED: REMARK  status: ('A' for Active; 'I' for Inactive)
DOCKED: REMARK    1  A    between atoms: C_2  and  C_3
DOCKED: REMARK    2  A    between atoms: C_4  and  C_5
DOCKED: REMARK    3  A    between atoms: C_8  and  C_9
DOCKED: REMARK    4  A    between atoms: C_9  and  N_10
DOCKED: REMARK    5  A    between atoms: N_10  and  C_11
DOCKED: REMARK    6  A    between atoms: C_11  and  C_12
DOCKED: REMARK    7  A    between atoms: C_12  and  C_13
DOCKED: REMARK    8  A    between atoms: C_14  and  C_22
DOCKED: REMARK    9  A    between atoms: N_25  and  O_26
DOCKED: REMARK                            x       y       z     vdW  Elec       q    Type
DOCKED: REMARK                         _______ _______ _______ _____ _____    ______ ____
DOCKED: USER                              x       y       z     vdW  Elec       q    Type
DOCKED: USER                           _______ _______ _______ _____ _____    ______ ____
DOCKED: ROOT
DOCKED: ATOM      1  N   UNL     1      37.840  18.038 123.651 -0.17 -0.00    +0.000 N 
DOCKED: ATOM      2  H   UNL     1      38.641  17.495 123.326 -0.00 -0.00    +0.000 HD
DOCKED: ATOM      3  H   UNL     1      37.729  17.965 124.662 -0.01 -0.00    +0.000 HD
DOCKED: ENDROOT
DOCKED: BRANCH   1   4
DOCKED: ATOM      4  C   UNL     1      36.623  17.505 123.024 -0.23 -0.00    +0.000 C 
DOCKED: BRANCH   4   8
DOCKED: ATOM      5  C   UNL     1      36.785  13.186 123.191 -0.53 -0.00    +0.000 A 
DOCKED: ATOM      6  C   UNL     1      35.787  13.894 123.890 -0.47 -0.00    +0.000 A 
DOCKED: ATOM      7  C   UNL     1      35.734  15.290 123.829 -0.44 -0.00    +0.000 A 
DOCKED: ATOM      8  C   UNL     1      36.660  16.003 123.055 -0.31 -0.00    +0.000 A 
DOCKED: ATOM      9  C   UNL     1      37.654  15.303 122.355 -0.31 -0.00    +0.000 A 
DOCKED: ATOM     10  C   UNL     1      37.706  13.907 122.413 -0.43 -0.00    +0.000 A 
DOCKED: ATOM     11  CM  UNL     1      36.721  14.597 123.122 +0.00 -0.00    +0.000 AC
DOCKED: BRANCH   5  12
DOCKED: ATOM     12  C   UNL     1      36.831  10.941 122.108 -0.60 -0.00    +0.000 C 
DOCKED: ATOM     13  C   UNL     1      36.879  11.705 123.210 -0.68 -0.00    +0.000 C 
DOCKED: BRANCH  11  14
DOCKED: ATOM     14  O   UNL     1      37.016   8.854 121.037 -2.69 -0.00    +0.000 OA
DOCKED: ATOM     15  C   UNL     1      36.923   9.467 122.133 -0.65 -0.00    +0.000 C 
DOCKED: ATOM     16  N   UNL     1      36.883   8.715 123.354 -0.64 -0.00    +0.000 N 
DOCKED: ATOM     17  H   UNL     1      36.714   9.174 124.208 -0.48 -0.00    +0.000 HD
DOCKED: BRANCH  15  17
DOCKED: ATOM     18  O   UNL     1      37.077   7.374 123.334 -2.13 -0.00    +0.000 OA
DOCKED: ATOM     19  H   UNL     1      37.726   7.151 122.648 -0.38 -0.00    +0.000 HD
DOCKED: ENDBRANCH  15  17
DOCKED: ENDBRANCH  11  14
DOCKED: ENDBRANCH   5  12
DOCKED: ENDBRANCH   4   8
DOCKED: ENDBRANCH   1   4
DOCKED: BRANCH   1  19
DOCKED: ATOM     20  C   UNL     1      38.061  19.454 123.321 -0.10 -0.00    +0.000 C 
DOCKED: BRANCH  19  20
DOCKED: ATOM     21  C   UNL     1      37.266  20.401 124.236 -0.11 -0.00    +0.000 C 
DOCKED: BRANCH  20  21
DOCKED: ATOM     22  C   UNL     1      36.834  19.682 125.481 -0.12 -0.00    +0.000 A 
DOCKED: ATOM     23  C   UNL     1      37.618  19.352 126.589 -0.13 -0.00    +0.000 A 
DOCKED: ATOM     24  N   UNL     1      36.898  18.644 127.490 -0.14 -0.00    +0.000 N 
DOCKED: ATOM     25  C   UNL     1      35.674  18.503 126.953 -0.09 -0.00    +0.000 A 
DOCKED: ATOM     26  C   UNL     1      35.598  19.115 125.728 -0.18 -0.00    +0.000 A 
DOCKED: ATOM     27  C   UNL     1      34.432  19.082 124.962 -0.20 -0.00    +0.000 A 
DOCKED: ATOM     28  C   UNL     1      33.318  18.404 125.489 -0.26 -0.00    +0.000 A 
DOCKED: ATOM     29  C   UNL     1      33.394  17.778 126.753 -0.31 -0.00    +0.000 A 
DOCKED: ATOM     30  C   UNL     1      34.586  17.823 127.500 -0.12 -0.00    +0.000 A 
DOCKED: ATOM     31  C   UNL     1      39.047  19.740 126.793 -0.14 -0.00    +0.000 C 
DOCKED: ATOM     32  H   UNL     1      37.208  18.302 128.360 -0.01 -0.00    +0.000 HD
DOCKED: ATOM     33  CM  UNL     1      36.537  19.046 126.481 -0.00 -0.00    +0.000 AC
DOCKED: ATOM     34  CM  UNL     1      34.500  18.451 126.232 -0.12 -0.00    +0.000 AC
DOCKED: ENDBRANCH  20  21
DOCKED: ENDBRANCH  19  20
DOCKED: ENDBRANCH   1  19
DOCKED: TORSDOF 8DOCKED: TER
DOCKED: ENDMDL
________________________________________________________________________________


	BEGINNING GENETIC ALGORITHM DOCKING 45 of 100
Run: 45 Seed: 1643217558 1275855584 [ Run 45 of 100 GA/GALS ]
Beginning LAMARCKIAN GENETIC ALGORITHM (LGA), with a maximum of 2500000 energy evaluations.

Final-Value: -15.716


	FINAL GENETIC ALGORITHM DOCKED STATE
	_______________________________________________


Detailed state:  trans 37.984 17.268 122.592 quatxyzw 0.552889 -0.693887 -0.320372 -0.331959 center 0.698 0.076 -0.072 ntor 8 -3.1148 -30.9458 2.9408 176.5034 176.4973 124.5032 168.3366 4.6334
State:	 37.984  17.268 122.592   0.586 -0.736 -0.340 -141.225     -3.11  -30.95    2.94  176.50  176.50  124.50  168.34    4.63

DOCKED: MODEL       45
DOCKED: USER    Run = 45
DOCKED: USER    DPF = ligand_dock.biased.dpf
DOCKED: USER  
DOCKED: USER    Estimated Free Energy of Binding    =  -10.96 kcal/mol  [=(1)+(2)+(3)-(4)]
DOCKED: USER    Estimated Inhibition Constant, Ki   =    9.23 nM (nanomolar)  [Temperature = 298.15 K]
DOCKED: USER    
DOCKED: USER    (1) Final Intermolecular Energy     =  -13.35 kcal/mol
DOCKED: USER        vdW + Hbond + desolv Energy     =  -13.35 kcal/mol
DOCKED: USER        Electrostatic Energy            =   +0.00 kcal/mol
DOCKED: USER    (2) Final Total Internal Energy     =   -2.37 kcal/mol
DOCKED: USER    (3) Torsional Free Energy           =   +2.39 kcal/mol
DOCKED: USER    (4) Unbound System's Energy  [=(2)] =   -2.37 kcal/mol
DOCKED: USER    
DOCKED: USER    
DOCKED: USER    NEWDPF move ligand.dum.pdbqt
DOCKED: USER    NEWDPF about 0.698000 0.076000 -0.072000
DOCKED: USER    NEWDPF tran0 37.984109 17.267745 122.591684
DOCKED: USER    NEWDPF quaternion0 0.552889 -0.693887 -0.320372 -0.331959
DOCKED: USER    NEWDPF axisangle0 0.586126 -0.735600 -0.339631 -141.224520
DOCKED: USER    NEWDPF quat0 0.586126 -0.735600 -0.339631 -141.224520
DOCKED: USER    NEWDPF dihe0 -3.11 -30.95 2.94 176.50 176.50 124.50 168.34 4.63 
DOCKED: USER  keepresnum = 1 
DOCKED: USER  
DOCKED: REMARK  Name = 
DOCKED: REMARK  9 active torsions:
DOCKED: REMARK  status: ('A' for Active; 'I' for Inactive)
DOCKED: REMARK    1  A    between atoms: C_2  and  C_3
DOCKED: REMARK    2  A    between atoms: C_4  and  C_5
DOCKED: REMARK    3  A    between atoms: C_8  and  C_9
DOCKED: REMARK    4  A    between atoms: C_9  and  N_10
DOCKED: REMARK    5  A    between atoms: N_10  and  C_11
DOCKED: REMARK    6  A    between atoms: C_11  and  C_12
DOCKED: REMARK    7  A    between atoms: C_12  and  C_13
DOCKED: REMARK    8  A    between atoms: C_14  and  C_22
DOCKED: REMARK    9  A    between atoms: N_25  and  O_26
DOCKED: REMARK                            x       y       z     vdW  Elec       q    Type
DOCKED: REMARK                         _______ _______ _______ _____ _____    ______ ____
DOCKED: USER                              x       y       z     vdW  Elec       q    Type
DOCKED: USER                           _______ _______ _______ _____ _____    ______ ____
DOCKED: ROOT
DOCKED: ATOM      1  N   UNL     1      38.018  18.326 123.085 -0.12 -0.00    +0.000 N 
DOCKED: ATOM      2  H   UNL     1      38.935  18.138 123.491 +0.00 -0.00    +0.000 HD
DOCKED: ATOM      3  H   UNL     1      37.270  17.973 123.681 -0.00 -0.00    +0.000 HD
DOCKED: ENDROOT
DOCKED: BRANCH   1   4
DOCKED: ATOM      4  C   UNL     1      37.924  17.639 121.790 -0.12 -0.00    +0.000 C 
DOCKED: BRANCH   4   8
DOCKED: ATOM      5  C   UNL     1      37.364  13.393 122.400 -0.46 -0.00    +0.000 A 
DOCKED: ATOM      6  C   UNL     1      37.974  13.875 121.225 -0.37 -0.00    +0.000 A 
DOCKED: ATOM      7  C   UNL     1      38.159  15.247 121.034 -0.24 -0.00    +0.000 A 
DOCKED: ATOM      8  C   UNL     1      37.758  16.163 122.018 -0.21 -0.00    +0.000 A 
DOCKED: ATOM      9  C   UNL     1      37.153  15.688 123.191 -0.32 -0.00    +0.000 A 
DOCKED: ATOM     10  C   UNL     1      36.970  14.315 123.384 -0.43 -0.00    +0.000 A 
DOCKED: ATOM     11  CM  UNL     1      37.563  14.780 122.208 +0.00 -0.00    +0.000 AC
DOCKED: BRANCH   5  12
DOCKED: ATOM     12  C   UNL     1      37.158  11.011 121.699 -0.41 -0.00    +0.000 C 
DOCKED: ATOM     13  C   UNL     1      37.155  11.947 122.659 -0.58 -0.00    +0.000 C 
DOCKED: BRANCH  11  14
DOCKED: ATOM     14  O   UNL     1      36.686   8.817 120.988 -2.59 -0.00    +0.000 OA
DOCKED: ATOM     15  C   UNL     1      36.947   9.572 121.961 -0.63 -0.00    +0.000 C 
DOCKED: ATOM     16  N   UNL     1      37.004   9.015 123.282 -0.62 -0.00    +0.000 N 
DOCKED: ATOM     17  H   UNL     1      37.111   9.608 124.060 -0.54 -0.00    +0.000 HD
DOCKED: BRANCH  15  17
DOCKED: ATOM     18  O   UNL     1      36.910   7.676 123.460 -2.20 -0.00    +0.000 OA
DOCKED: ATOM     19  H   UNL     1      36.760   7.245 122.605 -0.05 -0.00    +0.000 HD
DOCKED: ENDBRANCH  15  17
DOCKED: ENDBRANCH  11  14
DOCKED: ENDBRANCH   5  12
DOCKED: ENDBRANCH   4   8
DOCKED: ENDBRANCH   1   4
DOCKED: BRANCH   1  19
DOCKED: ATOM     20  C   UNL     1      37.846  19.781 122.957 -0.09 -0.00    +0.000 C 
DOCKED: BRANCH  19  20
DOCKED: ATOM     21  C   UNL     1      36.379  20.215 123.119 -0.17 -0.00    +0.000 C 
DOCKED: BRANCH  20  21
DOCKED: ATOM     22  C   UNL     1      35.508  19.020 123.379 -0.18 -0.00    +0.000 A 
DOCKED: ATOM     23  C   UNL     1      34.830  18.241 122.439 -0.27 -0.00    +0.000 A 
DOCKED: ATOM     24  N   UNL     1      34.089  17.289 123.052 -0.41 -0.00    +0.000 N 
DOCKED: ATOM     25  C   UNL     1      34.273  17.472 124.370 -0.38 -0.00    +0.000 A 
DOCKED: ATOM     26  C   UNL     1      35.125  18.521 124.610 -0.26 -0.00    +0.000 A 
DOCKED: ATOM     27  C   UNL     1      35.450  18.922 125.906 -0.19 -0.00    +0.000 A 
DOCKED: ATOM     28  C   UNL     1      34.881  18.208 126.977 -0.17 -0.00    +0.000 A 
DOCKED: ATOM     29  C   UNL     1      34.008  17.125 126.731 -0.30 -0.00    +0.000 A 
DOCKED: ATOM     30  C   UNL     1      33.694  16.748 125.412 -0.25 -0.00    +0.000 A 
DOCKED: ATOM     31  C   UNL     1      34.916  18.393 120.954 -0.29 -0.00    +0.000 C 
DOCKED: ATOM     32  H   UNL     1      33.530  16.602 122.620 -0.04 -0.00    +0.000 HD
DOCKED: ATOM     33  CM  UNL     1      34.743  18.083 123.553 -0.10 -0.00    +0.000 AC
DOCKED: ATOM     34  CM  UNL     1      34.572  17.832 125.667 -0.34 -0.00    +0.000 AC
DOCKED: ENDBRANCH  20  21
DOCKED: ENDBRANCH  19  20
DOCKED: ENDBRANCH   1  19
DOCKED: TORSDOF 8DOCKED: TER
DOCKED: ENDMDL
________________________________________________________________________________


	BEGINNING GENETIC ALGORITHM DOCKING 46 of 100
Run: 46 Seed: 1736311170 58284031 [ Run 46 of 100 GA/GALS ]
Beginning LAMARCKIAN GENETIC ALGORITHM (LGA), with a maximum of 2500000 energy evaluations.

Final-Value: -15.414


	FINAL GENETIC ALGORITHM DOCKED STATE
	_______________________________________________


Detailed state:  trans 37.126 16.935 123.986 quatxyzw 0.602362 -0.562111 -0.486622 -0.290500 center 0.698 0.076 -0.072 ntor 8 5.5491 175.1521 132.5436 -60.0346 -132.4697 170.9008 -88.0506 1.0117
State:	 37.126  16.935 123.986   0.630 -0.587 -0.509 -146.224      5.55  175.15  132.54  -60.03 -132.47  170.90  -88.05    1.01

DOCKED: MODEL       46
DOCKED: USER    Run = 46
DOCKED: USER    DPF = ligand_dock.biased.dpf
DOCKED: USER  
DOCKED: USER    Estimated Free Energy of Binding    =  -11.55 kcal/mol  [=(1)+(2)+(3)-(4)]
DOCKED: USER    Estimated Inhibition Constant, Ki   =    3.44 nM (nanomolar)  [Temperature = 298.15 K]
DOCKED: USER    
DOCKED: USER    (1) Final Intermolecular Energy     =  -13.93 kcal/mol
DOCKED: USER        vdW + Hbond + desolv Energy     =  -13.93 kcal/mol
DOCKED: USER        Electrostatic Energy            =   +0.00 kcal/mol
DOCKED: USER    (2) Final Total Internal Energy     =   -1.48 kcal/mol
DOCKED: USER    (3) Torsional Free Energy           =   +2.39 kcal/mol
DOCKED: USER    (4) Unbound System's Energy  [=(2)] =   -1.48 kcal/mol
DOCKED: USER    
DOCKED: USER    
DOCKED: USER    NEWDPF move ligand.dum.pdbqt
DOCKED: USER    NEWDPF about 0.698000 0.076000 -0.072000
DOCKED: USER    NEWDPF tran0 37.126306 16.935258 123.986247
DOCKED: USER    NEWDPF quaternion0 0.602362 -0.562111 -0.486622 -0.290500
DOCKED: USER    NEWDPF axisangle0 0.629509 -0.587445 -0.508554 -146.224199
DOCKED: USER    NEWDPF quat0 0.629509 -0.587445 -0.508554 -146.224199
DOCKED: USER    NEWDPF dihe0 5.55 175.15 132.54 -60.03 -132.47 170.90 -88.05 1.01 
DOCKED: USER  keepresnum = 1 
DOCKED: USER  
DOCKED: REMARK  Name = 
DOCKED: REMARK  9 active torsions:
DOCKED: REMARK  status: ('A' for Active; 'I' for Inactive)
DOCKED: REMARK    1  A    between atoms: C_2  and  C_3
DOCKED: REMARK    2  A    between atoms: C_4  and  C_5
DOCKED: REMARK    3  A    between atoms: C_8  and  C_9
DOCKED: REMARK    4  A    between atoms: C_9  and  N_10
DOCKED: REMARK    5  A    between atoms: N_10  and  C_11
DOCKED: REMARK    6  A    between atoms: C_11  and  C_12
DOCKED: REMARK    7  A    between atoms: C_12  and  C_13
DOCKED: REMARK    8  A    between atoms: C_14  and  C_22
DOCKED: REMARK    9  A    between atoms: N_25  and  O_26
DOCKED: REMARK                            x       y       z     vdW  Elec       q    Type
DOCKED: REMARK                         _______ _______ _______ _____ _____    ______ ____
DOCKED: USER                              x       y       z     vdW  Elec       q    Type
DOCKED: USER                           _______ _______ _______ _____ _____    ______ ____
DOCKED: ROOT
DOCKED: ATOM      1  N   UNL     1      37.213  17.726 124.842 -0.15 -0.00    +0.000 N 
DOCKED: ATOM      2  H   UNL     1      38.198  17.502 124.987 -0.02 -0.00    +0.000 HD
DOCKED: ATOM      3  H   UNL     1      36.608  17.093 125.365 -0.01 -0.00    +0.000 HD
DOCKED: ENDROOT
DOCKED: BRANCH   1   4
DOCKED: ATOM      4  C   UNL     1      36.898  17.572 123.415 -0.23 -0.00    +0.000 C 
DOCKED: BRANCH   4   8
DOCKED: ATOM      5  C   UNL     1      36.933  13.397 122.286 -0.44 -0.00    +0.000 A 
DOCKED: ATOM      6  C   UNL     1      37.977  14.256 121.889 -0.38 -0.00    +0.000 A 
DOCKED: ATOM      7  C   UNL     1      37.965  15.604 122.261 -0.27 -0.00    +0.000 A 
DOCKED: ATOM      8  C   UNL     1      36.926  16.114 123.051 -0.29 -0.00    +0.000 A 
DOCKED: ATOM      9  C   UNL     1      35.885  15.262 123.451 -0.42 -0.00    +0.000 A 
DOCKED: ATOM     10  C   UNL     1      35.897  13.914 123.082 -0.34 -0.00    +0.000 A 
DOCKED: ATOM     11  CM  UNL     1      36.930  14.757 122.669 +0.00 -0.00    +0.000 AC
DOCKED: BRANCH   5  12
DOCKED: ATOM     12  C   UNL     1      37.082  10.966 122.817 -0.59 -0.00    +0.000 C 
DOCKED: ATOM     13  C   UNL     1      36.902  11.956 121.929 -0.58 -0.00    +0.000 C 
DOCKED: BRANCH  11  14
DOCKED: ATOM     14  O   UNL     1      37.065   9.221 121.238 -2.70 -0.00    +0.000 OA
DOCKED: ATOM     15  C   UNL     1      37.053   9.533 122.457 -0.61 -0.00    +0.000 C 
DOCKED: ATOM     16  N   UNL     1      36.985   8.495 123.445 -0.67 -0.00    +0.000 N 
DOCKED: ATOM     17  H   UNL     1      36.878   8.727 124.395 -0.44 -0.00    +0.000 HD
DOCKED: BRANCH  15  17
DOCKED: ATOM     18  O   UNL     1      37.068   7.195 123.071 -2.01 -0.00    +0.000 OA
DOCKED: ATOM     19  H   UNL     1      37.258   7.142 122.122 -0.15 -0.00    +0.000 HD
DOCKED: ENDBRANCH  15  17
DOCKED: ENDBRANCH  11  14
DOCKED: ENDBRANCH   5  12
DOCKED: ENDBRANCH   4   8
DOCKED: ENDBRANCH   1   4
DOCKED: BRANCH   1  19
DOCKED: ATOM     20  C   UNL     1      36.961  19.093 125.323 -0.17 -0.00    +0.000 C 
DOCKED: BRANCH  19  20
DOCKED: ATOM     21  C   UNL     1      37.619  19.366 126.686 -0.15 -0.00    +0.000 C 
DOCKED: BRANCH  20  21
DOCKED: ATOM     22  C   UNL     1      39.071  18.986 126.650 -0.18 -0.00    +0.000 A 
DOCKED: ATOM     23  C   UNL     1      39.939  19.044 125.557 -0.20 -0.00    +0.000 A 
DOCKED: ATOM     24  N   UNL     1      41.157  18.556 125.887 -0.33 -0.00    +0.000 N 
DOCKED: ATOM     25  C   UNL     1      41.062  18.169 127.171 -0.38 -0.00    +0.000 A 
DOCKED: ATOM     26  C   UNL     1      39.806  18.408 127.668 -0.26 -0.00    +0.000 A 
DOCKED: ATOM     27  C   UNL     1      39.456  18.067 128.975 -0.28 -0.00    +0.000 A 
DOCKED: ATOM     28  C   UNL     1      40.440  17.470 129.784 -0.33 -0.00    +0.000 A 
DOCKED: ATOM     29  C   UNL     1      41.735  17.228 129.274 -0.42 -0.00    +0.000 A 
DOCKED: ATOM     30  C   UNL     1      42.057  17.579 127.950 -0.34 -0.00    +0.000 A 
DOCKED: ATOM     31  C   UNL     1      39.605  19.592 124.206 -0.10 -0.00    +0.000 C 
DOCKED: ATOM     32  H   UNL     1      41.950  18.497 125.306 -0.48 -0.00    +0.000 HD
DOCKED: ATOM     33  CM  UNL     1      40.237  18.630 126.564 +0.00 -0.00    +0.000 AC
DOCKED: ATOM     34  CM  UNL     1      40.760  17.820 128.470 +0.00 -0.00    +0.000 AC
DOCKED: ENDBRANCH  20  21
DOCKED: ENDBRANCH  19  20
DOCKED: ENDBRANCH   1  19
DOCKED: TORSDOF 8DOCKED: TER
DOCKED: ENDMDL
________________________________________________________________________________


	BEGINNING GENETIC ALGORITHM DOCKING 47 of 100
Run: 47 Seed: 1215259155 866528600 [ Run 47 of 100 GA/GALS ]
Beginning LAMARCKIAN GENETIC ALGORITHM (LGA), with a maximum of 2500000 energy evaluations.

Final-Value: -15.132


	FINAL GENETIC ALGORITHM DOCKED STATE
	_______________________________________________


Detailed state:  trans 36.881 17.053 123.048 quatxyzw -0.305414 0.274565 -0.565832 -0.714962 center 0.698 0.076 -0.072 ntor 8 19.0304 -29.2786 156.3210 159.2570 164.2912 161.8536 156.5328 -7.9765
State:	 36.881  17.053 123.048  -0.437  0.393 -0.809 -88.720     19.03  -29.28  156.32  159.26  164.29  161.85  156.53   -7.98

DOCKED: MODEL       47
DOCKED: USER    Run = 47
DOCKED: USER    DPF = ligand_dock.biased.dpf
DOCKED: USER  
DOCKED: USER    Estimated Free Energy of Binding    =  -10.67 kcal/mol  [=(1)+(2)+(3)-(4)]
DOCKED: USER    Estimated Inhibition Constant, Ki   =   14.99 nM (nanomolar)  [Temperature = 298.15 K]
DOCKED: USER    
DOCKED: USER    (1) Final Intermolecular Energy     =  -13.06 kcal/mol
DOCKED: USER        vdW + Hbond + desolv Energy     =  -13.06 kcal/mol
DOCKED: USER        Electrostatic Energy            =   +0.00 kcal/mol
DOCKED: USER    (2) Final Total Internal Energy     =   -2.07 kcal/mol
DOCKED: USER    (3) Torsional Free Energy           =   +2.39 kcal/mol
DOCKED: USER    (4) Unbound System's Energy  [=(2)] =   -2.07 kcal/mol
DOCKED: USER    
DOCKED: USER    
DOCKED: USER    NEWDPF move ligand.dum.pdbqt
DOCKED: USER    NEWDPF about 0.698000 0.076000 -0.072000
DOCKED: USER    NEWDPF tran0 36.880844 17.052578 123.047902
DOCKED: USER    NEWDPF quaternion0 -0.305414 0.274565 -0.565832 -0.714962
DOCKED: USER    NEWDPF axisangle0 -0.436827 0.392706 -0.809299 -88.719799
DOCKED: USER    NEWDPF quat0 -0.436827 0.392706 -0.809299 -88.719799
DOCKED: USER    NEWDPF dihe0 19.03 -29.28 156.32 159.26 164.29 161.85 156.53 -7.98 
DOCKED: USER  keepresnum = 1 
DOCKED: USER  
DOCKED: REMARK  Name = 
DOCKED: REMARK  9 active torsions:
DOCKED: REMARK  status: ('A' for Active; 'I' for Inactive)
DOCKED: REMARK    1  A    between atoms: C_2  and  C_3
DOCKED: REMARK    2  A    between atoms: C_4  and  C_5
DOCKED: REMARK    3  A    between atoms: C_8  and  C_9
DOCKED: REMARK    4  A    between atoms: C_9  and  N_10
DOCKED: REMARK    5  A    between atoms: N_10  and  C_11
DOCKED: REMARK    6  A    between atoms: C_11  and  C_12
DOCKED: REMARK    7  A    between atoms: C_12  and  C_13
DOCKED: REMARK    8  A    between atoms: C_14  and  C_22
DOCKED: REMARK    9  A    between atoms: N_25  and  O_26
DOCKED: REMARK                            x       y       z     vdW  Elec       q    Type
DOCKED: REMARK                         _______ _______ _______ _____ _____    ______ ____
DOCKED: USER                              x       y       z     vdW  Elec       q    Type
DOCKED: USER                           _______ _______ _______ _____ _____    ______ ____
DOCKED: ROOT
DOCKED: ATOM      1  N   UNL     1      36.874  18.090 122.512 -0.14 -0.00    +0.000 N 
DOCKED: ATOM      2  H   UNL     1      36.018  17.857 122.009 +0.00 -0.00    +0.000 HD
DOCKED: ATOM      3  H   UNL     1      37.698  17.743 122.023 +0.00 -0.00    +0.000 HD
DOCKED: ENDROOT
DOCKED: BRANCH   1   4
DOCKED: ATOM      4  C   UNL     1      36.834  17.454 123.835 -0.26 -0.00    +0.000 C 
DOCKED: BRANCH   4   8
DOCKED: ATOM      5  C   UNL     1      36.655  13.149 123.449 -0.55 -0.00    +0.000 A 
DOCKED: ATOM      6  C   UNL     1      35.586  13.863 124.028 -0.39 -0.00    +0.000 A 
DOCKED: ATOM      7  C   UNL     1      35.645  15.255 124.145 -0.44 -0.00    +0.000 A 
DOCKED: ATOM      8  C   UNL     1      36.759  15.962 123.671 -0.30 -0.00    +0.000 A 
DOCKED: ATOM      9  C   UNL     1      37.825  15.257 123.092 -0.34 -0.00    +0.000 A 
DOCKED: ATOM     10  C   UNL     1      37.765  13.865 122.971 -0.46 -0.00    +0.000 A 
DOCKED: ATOM     11  CM  UNL     1      36.706  14.558 123.560 +0.00 -0.00    +0.000 AC
DOCKED: BRANCH   5  12
DOCKED: ATOM     12  C   UNL     1      36.991  11.045 122.156 -0.57 -0.00    +0.000 C 
DOCKED: ATOM     13  C   UNL     1      36.639  11.674 123.288 -0.70 -0.00    +0.000 C 
DOCKED: BRANCH  11  14
DOCKED: ATOM     14  O   UNL     1      37.073   9.095 120.841 -2.73 -0.00    +0.000 OA
DOCKED: ATOM     15  C   UNL     1      36.971   9.576 122.000 -0.63 -0.00    +0.000 C 
DOCKED: ATOM     16  N   UNL     1      36.814   8.686 123.114 -0.69 -0.00    +0.000 N 
DOCKED: ATOM     17  H   UNL     1      36.637   9.050 124.012 -0.42 -0.00    +0.000 HD
DOCKED: BRANCH  15  17
DOCKED: ATOM     18  O   UNL     1      36.909   7.347 122.934 -2.03 -0.00    +0.000 OA
DOCKED: ATOM     19  H   UNL     1      37.369   7.164 122.101 -0.16 -0.00    +0.000 HD
DOCKED: ENDBRANCH  15  17
DOCKED: ENDBRANCH  11  14
DOCKED: ENDBRANCH   5  12
DOCKED: ENDBRANCH   4   8
DOCKED: ENDBRANCH   1   4
DOCKED: BRANCH   1  19
DOCKED: ATOM     20  C   UNL     1      36.987  19.555 122.602 -0.15 -0.00    +0.000 C 
DOCKED: BRANCH  19  20
DOCKED: ATOM     21  C   UNL     1      38.426  20.016 122.887 -0.06 -0.00    +0.000 C 
DOCKED: BRANCH  20  21
DOCKED: ATOM     22  C   UNL     1      39.280  18.846 123.281 -0.10 -0.00    +0.000 A 
DOCKED: ATOM     23  C   UNL     1      39.799  18.558 124.545 -0.20 -0.00    +0.000 A 
DOCKED: ATOM     24  N   UNL     1      40.580  17.454 124.501 -0.30 -0.00    +0.000 N 
DOCKED: ATOM     25  C   UNL     1      40.579  17.054 123.218 -0.26 -0.00    +0.000 A 
DOCKED: ATOM     26  C   UNL     1      39.805  17.880 122.443 -0.12 -0.00    +0.000 A 
DOCKED: ATOM     27  C   UNL     1      39.668  17.682 121.068 -0.07 -0.00    +0.000 A 
DOCKED: ATOM     28  C   UNL     1      40.348  16.594 120.491 -0.13 -0.00    +0.000 A 
DOCKED: ATOM     29  C   UNL     1      41.141  15.741 121.289 -0.25 -0.00    +0.000 A 
DOCKED: ATOM     30  C   UNL     1      41.264  15.968 122.672 -0.40 -0.00    +0.000 A 
DOCKED: ATOM     31  C   UNL     1      39.523  19.327 125.798 -0.18 -0.00    +0.000 C 
DOCKED: ATOM     32  H   UNL     1      41.052  17.031 125.255 -0.05 -0.00    +0.000 HD
DOCKED: ATOM     33  CM  UNL     1      40.027  17.942 123.627 +0.00 -0.00    +0.000 AC
DOCKED: ATOM     34  CM  UNL     1      40.468  16.820 121.864 +0.00 -0.00    +0.000 AC
DOCKED: ENDBRANCH  20  21
DOCKED: ENDBRANCH  19  20
DOCKED: ENDBRANCH   1  19
DOCKED: TORSDOF 8DOCKED: TER
DOCKED: ENDMDL
________________________________________________________________________________


	BEGINNING GENETIC ALGORITHM DOCKING 48 of 100
Run: 48 Seed: 1277904110 888461541 [ Run 48 of 100 GA/GALS ]
Beginning LAMARCKIAN GENETIC ALGORITHM (LGA), with a maximum of 2500000 energy evaluations.

Final-Value: -14.793


	FINAL GENETIC ALGORITHM DOCKED STATE
	_______________________________________________


Detailed state:  trans 38.629 17.029 122.875 quatxyzw 0.765548 -0.153641 -0.414892 -0.467113 center 0.698 0.076 -0.072 ntor 8 13.1662 173.1987 -4.9883 -36.6827 -103.8585 -53.4021 30.7463 67.6809
State:	 38.629  17.029 122.875   0.866 -0.174 -0.469 -124.306     13.17  173.20   -4.99  -36.68 -103.86  -53.40   30.75   67.68

DOCKED: MODEL       48
DOCKED: USER    Run = 48
DOCKED: USER    DPF = ligand_dock.biased.dpf
DOCKED: USER  
DOCKED: USER    Estimated Free Energy of Binding    =  -10.46 kcal/mol  [=(1)+(2)+(3)-(4)]
DOCKED: USER    Estimated Inhibition Constant, Ki   =   21.50 nM (nanomolar)  [Temperature = 298.15 K]
DOCKED: USER    
DOCKED: USER    (1) Final Intermolecular Energy     =  -12.85 kcal/mol
DOCKED: USER        vdW + Hbond + desolv Energy     =  -12.85 kcal/mol
DOCKED: USER        Electrostatic Energy            =   +0.00 kcal/mol
DOCKED: USER    (2) Final Total Internal Energy     =   -1.95 kcal/mol
DOCKED: USER    (3) Torsional Free Energy           =   +2.39 kcal/mol
DOCKED: USER    (4) Unbound System's Energy  [=(2)] =   -1.95 kcal/mol
DOCKED: USER    
DOCKED: USER    
DOCKED: USER    NEWDPF move ligand.dum.pdbqt
DOCKED: USER    NEWDPF about 0.698000 0.076000 -0.072000
DOCKED: USER    NEWDPF tran0 38.628938 17.029424 122.874793
DOCKED: USER    NEWDPF quaternion0 0.765548 -0.153641 -0.414892 -0.467113
DOCKED: USER    NEWDPF axisangle0 0.865811 -0.173763 -0.469230 -124.305855
DOCKED: USER    NEWDPF quat0 0.865811 -0.173763 -0.469230 -124.305855
DOCKED: USER    NEWDPF dihe0 13.17 173.20 -4.99 -36.68 -103.86 -53.40 30.75 67.68 
DOCKED: USER  keepresnum = 1 
DOCKED: USER  
DOCKED: REMARK  Name = 
DOCKED: REMARK  9 active torsions:
DOCKED: REMARK  status: ('A' for Active; 'I' for Inactive)
DOCKED: REMARK    1  A    between atoms: C_2  and  C_3
DOCKED: REMARK    2  A    between atoms: C_4  and  C_5
DOCKED: REMARK    3  A    between atoms: C_8  and  C_9
DOCKED: REMARK    4  A    between atoms: C_9  and  N_10
DOCKED: REMARK    5  A    between atoms: N_10  and  C_11
DOCKED: REMARK    6  A    between atoms: C_11  and  C_12
DOCKED: REMARK    7  A    between atoms: C_12  and  C_13
DOCKED: REMARK    8  A    between atoms: C_14  and  C_22
DOCKED: REMARK    9  A    between atoms: N_25  and  O_26
DOCKED: REMARK                            x       y       z     vdW  Elec       q    Type
DOCKED: REMARK                         _______ _______ _______ _____ _____    ______ ____
DOCKED: USER                              x       y       z     vdW  Elec       q    Type
DOCKED: USER                           _______ _______ _______ _____ _____    ______ ____
DOCKED: ROOT
DOCKED: ATOM      1  N   UNL     1      38.293  17.483 123.897 -0.22 -0.00    +0.000 N 
DOCKED: ATOM      2  H   UNL     1      39.079  18.133 123.899 -0.00 -0.00    +0.000 HD
DOCKED: ATOM      3  H   UNL     1      38.558  16.578 124.284 -0.02 -0.00    +0.000 HD
DOCKED: ENDROOT
DOCKED: BRANCH   1   4
DOCKED: ATOM      4  C   UNL     1      37.859  17.270 122.510 -0.18 -0.00    +0.000 C 
DOCKED: BRANCH   4   8
DOCKED: ATOM      5  C   UNL     1      37.171  13.043 121.900 -0.45 -0.00    +0.000 A 
DOCKED: ATOM      6  C   UNL     1      36.987  13.624 123.170 -0.49 -0.00    +0.000 A 
DOCKED: ATOM      7  C   UNL     1      37.205  14.992 123.363 -0.36 -0.00    +0.000 A 
DOCKED: ATOM      8  C   UNL     1      37.589  15.808 122.289 -0.26 -0.00    +0.000 A 
DOCKED: ATOM      9  C   UNL     1      37.770  15.236 121.021 -0.24 -0.00    +0.000 A 
DOCKED: ATOM     10  C   UNL     1      37.551  13.868 120.828 -0.36 -0.00    +0.000 A 
DOCKED: ATOM     11  CM  UNL     1      37.379  14.428 122.095 +0.00 -0.00    +0.000 AC
DOCKED: BRANCH   5  12
DOCKED: ATOM     12  C   UNL     1      37.071  10.645 122.570 -0.57 -0.00    +0.000 C 
DOCKED: ATOM     13  C   UNL     1      36.942  11.601 121.637 -0.57 -0.00    +0.000 C 
DOCKED: BRANCH  11  14
DOCKED: ATOM     14  O   UNL     1      36.687   8.838 121.111 -2.61 -0.00    +0.000 OA
DOCKED: ATOM     15  C   UNL     1      36.845   9.209 122.304 -0.70 -0.00    +0.000 C 
DOCKED: ATOM     16  N   UNL     1      36.772   8.235 123.355 -0.71 -0.00    +0.000 N 
DOCKED: ATOM     17  H   UNL     1      36.796   8.525 124.295 -0.41 -0.00    +0.000 HD
DOCKED: BRANCH  15  17
DOCKED: ATOM     18  O   UNL     1      36.669   6.918 123.055 -1.63 -0.00    +0.000 OA
DOCKED: ATOM     19  H   UNL     1      36.865   6.783 122.115 -0.15 -0.00    +0.000 HD
DOCKED: ENDBRANCH  15  17
DOCKED: ENDBRANCH  11  14
DOCKED: ENDBRANCH   5  12
DOCKED: ENDBRANCH   4   8
DOCKED: ENDBRANCH   1   4
DOCKED: BRANCH   1  19
DOCKED: ATOM     20  C   UNL     1      37.219  18.037 124.737 -0.17 -0.00    +0.000 C 
DOCKED: BRANCH  19  20
DOCKED: ATOM     21  C   UNL     1      36.486  19.206 124.057 -0.19 -0.00    +0.000 C 
DOCKED: BRANCH  20  21
DOCKED: ATOM     22  C   UNL     1      35.482  18.688 123.068 -0.21 -0.00    +0.000 A 
DOCKED: ATOM     23  C   UNL     1      34.446  17.782 123.303 -0.35 -0.00    +0.000 A 
DOCKED: ATOM     24  N   UNL     1      33.788  17.499 122.154 -0.40 -0.00    +0.000 N 
DOCKED: ATOM     25  C   UNL     1      34.412  18.200 121.192 -0.31 -0.00    +0.000 A 
DOCKED: ATOM     26  C   UNL     1      35.453  18.930 121.707 -0.19 -0.00    +0.000 A 
DOCKED: ATOM     27  C   UNL     1      36.269  19.720 120.896 -0.10 -0.00    +0.000 A 
DOCKED: ATOM     28  C   UNL     1      35.989  19.755 119.518 -0.12 -0.00    +0.000 A 
DOCKED: ATOM     29  C   UNL     1      34.914  19.007 118.988 -0.17 -0.00    +0.000 A 
DOCKED: ATOM     30  C   UNL     1      34.112  18.215 119.830 -0.26 -0.00    +0.000 A 
DOCKED: ATOM     31  C   UNL     1      34.071  17.210 124.633 -0.45 -0.00    +0.000 C 
DOCKED: ATOM     32  H   UNL     1      33.012  16.903 122.047 -0.02 -0.00    +0.000 HD
DOCKED: ATOM     33  CM  UNL     1      34.687  18.197 122.281 +0.00 -0.00    +0.000 AC
DOCKED: ATOM     34  CM  UNL     1      35.191  18.971 120.355 +0.00 -0.00    +0.000 AC
DOCKED: ENDBRANCH  20  21
DOCKED: ENDBRANCH  19  20
DOCKED: ENDBRANCH   1  19
DOCKED: TORSDOF 8DOCKED: TER
DOCKED: ENDMDL
________________________________________________________________________________


	BEGINNING GENETIC ALGORITHM DOCKING 49 of 100
Run: 49 Seed: 1433352184 289647400 [ Run 49 of 100 GA/GALS ]
Beginning LAMARCKIAN GENETIC ALGORITHM (LGA), with a maximum of 2500000 energy evaluations.

Final-Value: -16.011


	FINAL GENETIC ALGORITHM DOCKED STATE
	_______________________________________________


Detailed state:  trans 37.778 17.195 123.038 quatxyzw -0.600456 0.541556 0.391287 0.439391 center 0.698 0.076 -0.072 ntor 8 6.3679 3.5884 162.5149 151.2209 -136.2832 -46.6141 132.6517 17.7160
State:	 37.778  17.195 123.038  -0.668  0.603  0.436 127.870      6.37    3.59  162.51  151.22 -136.28  -46.61  132.65   17.72

DOCKED: MODEL       49
DOCKED: USER    Run = 49
DOCKED: USER    DPF = ligand_dock.biased.dpf
DOCKED: USER  
DOCKED: USER    Estimated Free Energy of Binding    =  -11.27 kcal/mol  [=(1)+(2)+(3)-(4)]
DOCKED: USER    Estimated Inhibition Constant, Ki   =    5.47 nM (nanomolar)  [Temperature = 298.15 K]
DOCKED: USER    
DOCKED: USER    (1) Final Intermolecular Energy     =  -13.66 kcal/mol
DOCKED: USER        vdW + Hbond + desolv Energy     =  -13.66 kcal/mol
DOCKED: USER        Electrostatic Energy            =   +0.00 kcal/mol
DOCKED: USER    (2) Final Total Internal Energy     =   -2.35 kcal/mol
DOCKED: USER    (3) Torsional Free Energy           =   +2.39 kcal/mol
DOCKED: USER    (4) Unbound System's Energy  [=(2)] =   -2.35 kcal/mol
DOCKED: USER    
DOCKED: USER    
DOCKED: USER    NEWDPF move ligand.dum.pdbqt
DOCKED: USER    NEWDPF about 0.698000 0.076000 -0.072000
DOCKED: USER    NEWDPF tran0 37.778055 17.194626 123.037681
DOCKED: USER    NEWDPF quaternion0 -0.600456 0.541556 0.391287 0.439391
DOCKED: USER    NEWDPF axisangle0 -0.668439 0.602870 0.435588 127.869983
DOCKED: USER    NEWDPF quat0 -0.668439 0.602870 0.435588 127.869983
DOCKED: USER    NEWDPF dihe0 6.37 3.59 162.51 151.22 -136.28 -46.61 132.65 17.72 
DOCKED: USER  keepresnum = 1 
DOCKED: USER  
DOCKED: REMARK  Name = 
DOCKED: REMARK  9 active torsions:
DOCKED: REMARK  status: ('A' for Active; 'I' for Inactive)
DOCKED: REMARK    1  A    between atoms: C_2  and  C_3
DOCKED: REMARK    2  A    between atoms: C_4  and  C_5
DOCKED: REMARK    3  A    between atoms: C_8  and  C_9
DOCKED: REMARK    4  A    between atoms: C_9  and  N_10
DOCKED: REMARK    5  A    between atoms: N_10  and  C_11
DOCKED: REMARK    6  A    between atoms: C_11  and  C_12
DOCKED: REMARK    7  A    between atoms: C_12  and  C_13
DOCKED: REMARK    8  A    between atoms: C_14  and  C_22
DOCKED: REMARK    9  A    between atoms: N_25  and  O_26
DOCKED: REMARK                            x       y       z     vdW  Elec       q    Type
DOCKED: REMARK                         _______ _______ _______ _____ _____    ______ ____
DOCKED: USER                              x       y       z     vdW  Elec       q    Type
DOCKED: USER                           _______ _______ _______ _____ _____    ______ ____
DOCKED: ROOT
DOCKED: ATOM      1  N   UNL     1      37.712  18.187 123.650 -0.16 -0.00    +0.000 N 
DOCKED: ATOM      2  H   UNL     1      38.726  18.224 123.753 -0.00 -0.00    +0.000 HD
DOCKED: ATOM      3  H   UNL     1      37.287  17.607 124.373 -0.01 -0.00    +0.000 HD
DOCKED: ENDROOT
DOCKED: BRANCH   1   4
DOCKED: ATOM      4  C   UNL     1      37.390  17.590 122.347 -0.16 -0.00    +0.000 C 
DOCKED: BRANCH   4   8
DOCKED: ATOM      5  C   UNL     1      37.339  13.286 122.771 -0.49 -0.00    +0.000 A 
DOCKED: ATOM      6  C   UNL     1      36.870  14.115 123.810 -0.32 -0.00    +0.000 A 
DOCKED: ATOM      7  C   UNL     1      36.883  15.505 123.667 -0.30 -0.00    +0.000 A 
DOCKED: ATOM      8  C   UNL     1      37.343  16.094 122.480 -0.25 -0.00    +0.000 A 
DOCKED: ATOM      9  C   UNL     1      37.807  15.273 121.442 -0.25 -0.00    +0.000 A 
DOCKED: ATOM     10  C   UNL     1      37.793  13.882 121.583 -0.38 -0.00    +0.000 A 
DOCKED: ATOM     11  CM  UNL     1      37.339  14.692 122.626 +0.00 -0.00    +0.000 AC
DOCKED: BRANCH   5  12
DOCKED: ATOM     12  C   UNL     1      37.011  10.995 121.847 -0.54 -0.00    +0.000 C 
DOCKED: ATOM     13  C   UNL     1      37.336  11.805 122.866 -0.50 -0.00    +0.000 C 
DOCKED: BRANCH  11  14
DOCKED: ATOM     14  O   UNL     1      37.061   8.848 120.883 -2.72 -0.00    +0.000 OA
DOCKED: ATOM     15  C   UNL     1      37.007   9.520 121.946 -0.63 -0.00    +0.000 C 
DOCKED: ATOM     16  N   UNL     1      36.917   8.835 123.203 -0.66 -0.00    +0.000 N 
DOCKED: ATOM     17  H   UNL     1      36.777   9.346 124.032 -0.48 -0.00    +0.000 HD
DOCKED: BRANCH  15  17
DOCKED: ATOM     18  O   UNL     1      37.024   7.485 123.251 -2.19 -0.00    +0.000 OA
DOCKED: ATOM     19  H   UNL     1      37.258   7.147 122.372 -0.15 -0.00    +0.000 HD
DOCKED: ENDBRANCH  15  17
DOCKED: ENDBRANCH  11  14
DOCKED: ENDBRANCH   5  12
DOCKED: ENDBRANCH   4   8
DOCKED: ENDBRANCH   1   4
DOCKED: BRANCH   1  19
DOCKED: ATOM     20  C   UNL     1      37.172  19.549 123.787 -0.14 -0.00    +0.000 C 
DOCKED: BRANCH  19  20
DOCKED: ATOM     21  C   UNL     1      35.654  19.605 123.549 -0.15 -0.00    +0.000 C 
DOCKED: BRANCH  20  21
DOCKED: ATOM     22  C   UNL     1      34.964  18.520 124.326 -0.26 -0.00    +0.000 A 
DOCKED: ATOM     23  C   UNL     1      34.227  17.448 123.819 -0.37 -0.00    +0.000 A 
DOCKED: ATOM     24  N   UNL     1      33.697  16.714 124.826 -0.37 -0.00    +0.000 N 
DOCKED: ATOM     25  C   UNL     1      34.073  17.325 125.962 -0.36 -0.00    +0.000 A 
DOCKED: ATOM     26  C   UNL     1      34.840  18.432 125.699 -0.26 -0.00    +0.000 A 
DOCKED: ATOM     27  C   UNL     1      35.328  19.247 126.721 -0.15 -0.00    +0.000 A 
DOCKED: ATOM     28  C   UNL     1      35.017  18.895 128.048 -0.12 -0.00    +0.000 A 
DOCKED: ATOM     29  C   UNL     1      34.232  17.752 128.319 -0.18 -0.00    +0.000 A 
DOCKED: ATOM     30  C   UNL     1      33.749  16.953 127.267 -0.32 -0.00    +0.000 A 
DOCKED: ATOM     31  C   UNL     1      34.054  17.113 122.372 -0.35 -0.00    +0.000 C 
DOCKED: ATOM     32  H   UNL     1      33.150  15.900 124.741 -0.02 -0.00    +0.000 HD
DOCKED: ATOM     33  CM  UNL     1      34.339  17.657 124.923 -0.38 -0.00    +0.000 AC
DOCKED: ATOM     34  CM  UNL     1      34.539  18.100 127.003 -0.03 -0.00    +0.000 AC
DOCKED: ENDBRANCH  20  21
DOCKED: ENDBRANCH  19  20
DOCKED: ENDBRANCH   1  19
DOCKED: TORSDOF 8DOCKED: TER
DOCKED: ENDMDL
________________________________________________________________________________


	BEGINNING GENETIC ALGORITHM DOCKING 50 of 100
Run: 50 Seed: 1132024454 754394289 [ Run 50 of 100 GA/GALS ]
Beginning LAMARCKIAN GENETIC ALGORITHM (LGA), with a maximum of 2500000 energy evaluations.

Final-Value: -15.376


	FINAL GENETIC ALGORITHM DOCKED STATE
	_______________________________________________


Detailed state:  trans 37.790 17.058 123.285 quatxyzw -0.656806 0.730957 0.123658 0.137901 center 0.698 0.076 -0.072 ntor 8 0.0406 -10.8244 154.3421 -177.5006 179.8152 -80.5083 -147.5787 10.5435
State:	 37.790  17.058 123.285  -0.663  0.738  0.125 164.147      0.04  -10.82  154.34 -177.50  179.82  -80.51 -147.58   10.54

DOCKED: MODEL       50
DOCKED: USER    Run = 50
DOCKED: USER    DPF = ligand_dock.biased.dpf
DOCKED: USER  
DOCKED: USER    Estimated Free Energy of Binding    =  -10.93 kcal/mol  [=(1)+(2)+(3)-(4)]
DOCKED: USER    Estimated Inhibition Constant, Ki   =    9.73 nM (nanomolar)  [Temperature = 298.15 K]
DOCKED: USER    
DOCKED: USER    (1) Final Intermolecular Energy     =  -13.32 kcal/mol
DOCKED: USER        vdW + Hbond + desolv Energy     =  -13.32 kcal/mol
DOCKED: USER        Electrostatic Energy            =   +0.00 kcal/mol
DOCKED: USER    (2) Final Total Internal Energy     =   -2.06 kcal/mol
DOCKED: USER    (3) Torsional Free Energy           =   +2.39 kcal/mol
DOCKED: USER    (4) Unbound System's Energy  [=(2)] =   -2.06 kcal/mol
DOCKED: USER    
DOCKED: USER    
DOCKED: USER    NEWDPF move ligand.dum.pdbqt
DOCKED: USER    NEWDPF about 0.698000 0.076000 -0.072000
DOCKED: USER    NEWDPF tran0 37.789701 17.057572 123.284658
DOCKED: USER    NEWDPF quaternion0 -0.656806 0.730957 0.123658 0.137901
DOCKED: USER    NEWDPF axisangle0 -0.663141 0.738008 0.124851 164.147138
DOCKED: USER    NEWDPF quat0 -0.663141 0.738008 0.124851 164.147138
DOCKED: USER    NEWDPF dihe0 0.04 -10.82 154.34 -177.50 179.82 -80.51 -147.58 10.54 
DOCKED: USER  keepresnum = 1 
DOCKED: USER  
DOCKED: REMARK  Name = 
DOCKED: REMARK  9 active torsions:
DOCKED: REMARK  status: ('A' for Active; 'I' for Inactive)
DOCKED: REMARK    1  A    between atoms: C_2  and  C_3
DOCKED: REMARK    2  A    between atoms: C_4  and  C_5
DOCKED: REMARK    3  A    between atoms: C_8  and  C_9
DOCKED: REMARK    4  A    between atoms: C_9  and  N_10
DOCKED: REMARK    5  A    between atoms: N_10  and  C_11
DOCKED: REMARK    6  A    between atoms: C_11  and  C_12
DOCKED: REMARK    7  A    between atoms: C_12  and  C_13
DOCKED: REMARK    8  A    between atoms: C_14  and  C_22
DOCKED: REMARK    9  A    between atoms: N_25  and  O_26
DOCKED: REMARK                            x       y       z     vdW  Elec       q    Type
DOCKED: REMARK                         _______ _______ _______ _____ _____    ______ ____
DOCKED: USER                              x       y       z     vdW  Elec       q    Type
DOCKED: USER                           _______ _______ _______ _____ _____    ______ ____
DOCKED: ROOT
DOCKED: ATOM      1  N   UNL     1      37.438  18.103 123.668 -0.17 -0.00    +0.000 N 
DOCKED: ATOM      2  H   UNL     1      37.991  18.008 124.520 -0.01 -0.00    +0.000 HD
DOCKED: ATOM      3  H   UNL     1      36.525  17.660 123.767 -0.00 -0.00    +0.000 HD
DOCKED: ENDROOT
DOCKED: BRANCH   1   4
DOCKED: ATOM      4  C   UNL     1      38.146  17.435 122.568 -0.17 -0.00    +0.000 C 
DOCKED: BRANCH   4   8
DOCKED: ATOM      5  C   UNL     1      37.544  13.162 122.863 -0.48 -0.00    +0.000 A 
DOCKED: ATOM      6  C   UNL     1      36.922  14.039 123.774 -0.32 -0.00    +0.000 A 
DOCKED: ATOM      7  C   UNL     1      37.114  15.420 123.672 -0.26 -0.00    +0.000 A 
DOCKED: ATOM      8  C   UNL     1      37.911  15.953 122.649 -0.26 -0.00    +0.000 A 
DOCKED: ATOM      9  C   UNL     1      38.530  15.085 121.737 -0.30 -0.00    +0.000 A 
DOCKED: ATOM     10  C   UNL     1      38.336  13.704 121.837 -0.36 -0.00    +0.000 A 
DOCKED: ATOM     11  CM  UNL     1      37.727  14.560 122.756 +0.00 -0.00    +0.000 AC
DOCKED: BRANCH   5  12
DOCKED: ATOM     12  C   UNL     1      37.061  10.937 121.850 -0.53 -0.00    +0.000 C 
DOCKED: ATOM     13  C   UNL     1      37.364  11.690 122.918 -0.46 -0.00    +0.000 C 
DOCKED: BRANCH  11  14
DOCKED: ATOM     14  O   UNL     1      36.697   8.846 120.833 -2.62 +0.00    +0.000 OA
DOCKED: ATOM     15  C   UNL     1      36.880   9.471 121.909 -0.64 -0.00    +0.000 C 
DOCKED: ATOM     16  N   UNL     1      36.881   8.747 123.148 -0.68 -0.00    +0.000 N 
DOCKED: ATOM     17  H   UNL     1      36.926   9.235 124.002 -0.50 -0.00    +0.000 HD
DOCKED: BRANCH  15  17
DOCKED: ATOM     18  O   UNL     1      36.817   7.394 123.144 -2.08 -0.00    +0.000 OA
DOCKED: ATOM     19  H   UNL     1      36.779   7.074 122.230 -0.07 -0.00    +0.000 HD
DOCKED: ENDBRANCH  15  17
DOCKED: ENDBRANCH  11  14
DOCKED: ENDBRANCH   5  12
DOCKED: ENDBRANCH   4   8
DOCKED: ENDBRANCH   1   4
DOCKED: BRANCH   1  19
DOCKED: ATOM     20  C   UNL     1      37.220  19.534 123.401 -0.13 -0.00    +0.000 C 
DOCKED: BRANCH  19  20
DOCKED: ATOM     21  C   UNL     1      35.793  19.986 123.757 -0.14 -0.00    +0.000 C 
DOCKED: BRANCH  20  21
DOCKED: ATOM     22  C   UNL     1      35.025  18.852 124.371 -0.21 -0.00    +0.000 A 
DOCKED: ATOM     23  C   UNL     1      34.308  17.852 123.710 -0.34 -0.00    +0.000 A 
DOCKED: ATOM     24  N   UNL     1      33.688  17.041 124.598 -0.35 -0.00    +0.000 N 
DOCKED: ATOM     25  C   UNL     1      33.987  17.530 125.813 -0.36 -0.00    +0.000 A 
DOCKED: ATOM     26  C   UNL     1      34.794  18.636 125.717 -0.25 -0.00    +0.000 A 
DOCKED: ATOM     27  C   UNL     1      35.218  19.337 126.846 -0.14 -0.00    +0.000 A 
DOCKED: ATOM     28  C   UNL     1      34.799  18.869 128.105 -0.12 -0.00    +0.000 A 
DOCKED: ATOM     29  C   UNL     1      33.973  17.727 128.205 -0.22 -0.00    +0.000 A 
DOCKED: ATOM     30  C   UNL     1      33.557  17.044 127.048 -0.37 -0.00    +0.000 A 
DOCKED: ATOM     31  C   UNL     1      34.240  17.662 122.228 -0.39 -0.00    +0.000 C 
DOCKED: ATOM     32  H   UNL     1      33.133  16.253 124.395 +0.04 -0.00    +0.000 HD
DOCKED: ATOM     33  CM  UNL     1      34.339  17.952 124.834 -0.37 -0.00    +0.000 AC
DOCKED: ATOM     34  CM  UNL     1      34.388  18.190 126.956 -0.03 -0.00    +0.000 AC
DOCKED: ENDBRANCH  20  21
DOCKED: ENDBRANCH  19  20
DOCKED: ENDBRANCH   1  19
DOCKED: TORSDOF 8DOCKED: TER
DOCKED: ENDMDL
________________________________________________________________________________


	BEGINNING GENETIC ALGORITHM DOCKING 51 of 100
Run: 51 Seed: 862926591 1292919748 [ Run 51 of 100 GA/GALS ]
Beginning LAMARCKIAN GENETIC ALGORITHM (LGA), with a maximum of 2500000 energy evaluations.

Final-Value: -15.177


	FINAL GENETIC ALGORITHM DOCKED STATE
	_______________________________________________


Detailed state:  trans 37.484 17.060 123.550 quatxyzw 0.178268 -0.045155 -0.682263 -0.707601 center 0.698 0.076 -0.072 ntor 8 2.5565 150.4589 158.8372 -63.9816 -93.3285 -96.7861 145.9908 0.5079
State:	 37.484  17.060 123.550   0.252 -0.064 -0.966 -89.920      2.56  150.46  158.84  -63.98  -93.33  -96.79  145.99    0.51

DOCKED: MODEL       51
DOCKED: USER    Run = 51
DOCKED: USER    DPF = ligand_dock.biased.dpf
DOCKED: USER  
DOCKED: USER    Estimated Free Energy of Binding    =  -11.43 kcal/mol  [=(1)+(2)+(3)-(4)]
DOCKED: USER    Estimated Inhibition Constant, Ki   =    4.17 nM (nanomolar)  [Temperature = 298.15 K]
DOCKED: USER    
DOCKED: USER    (1) Final Intermolecular Energy     =  -13.82 kcal/mol
DOCKED: USER        vdW + Hbond + desolv Energy     =  -13.82 kcal/mol
DOCKED: USER        Electrostatic Energy            =   +0.00 kcal/mol
DOCKED: USER    (2) Final Total Internal Energy     =   -1.36 kcal/mol
DOCKED: USER    (3) Torsional Free Energy           =   +2.39 kcal/mol
DOCKED: USER    (4) Unbound System's Energy  [=(2)] =   -1.36 kcal/mol
DOCKED: USER    
DOCKED: USER    
DOCKED: USER    NEWDPF move ligand.dum.pdbqt
DOCKED: USER    NEWDPF about 0.698000 0.076000 -0.072000
DOCKED: USER    NEWDPF tran0 37.483555 17.060089 123.549809
DOCKED: USER    NEWDPF quaternion0 0.178268 -0.045155 -0.682263 -0.707601
DOCKED: USER    NEWDPF axisangle0 0.252286 -0.063903 -0.965540 -89.919907
DOCKED: USER    NEWDPF quat0 0.252286 -0.063903 -0.965540 -89.919907
DOCKED: USER    NEWDPF dihe0 2.56 150.46 158.84 -63.98 -93.33 -96.79 145.99 0.51 
DOCKED: USER  keepresnum = 1 
DOCKED: USER  
DOCKED: REMARK  Name = 
DOCKED: REMARK  9 active torsions:
DOCKED: REMARK  status: ('A' for Active; 'I' for Inactive)
DOCKED: REMARK    1  A    between atoms: C_2  and  C_3
DOCKED: REMARK    2  A    between atoms: C_4  and  C_5
DOCKED: REMARK    3  A    between atoms: C_8  and  C_9
DOCKED: REMARK    4  A    between atoms: C_9  and  N_10
DOCKED: REMARK    5  A    between atoms: N_10  and  C_11
DOCKED: REMARK    6  A    between atoms: C_11  and  C_12
DOCKED: REMARK    7  A    between atoms: C_12  and  C_13
DOCKED: REMARK    8  A    between atoms: C_14  and  C_22
DOCKED: REMARK    9  A    between atoms: N_25  and  O_26
DOCKED: REMARK                            x       y       z     vdW  Elec       q    Type
DOCKED: REMARK                         _______ _______ _______ _____ _____    ______ ____
DOCKED: USER                              x       y       z     vdW  Elec       q    Type
DOCKED: USER                           _______ _______ _______ _____ _____    ______ ____
DOCKED: ROOT
DOCKED: ATOM      1  N   UNL     1      38.036  18.079 123.695 -0.17 -0.00    +0.000 N 
DOCKED: ATOM      2  H   UNL     1      38.144  18.196 122.687 +0.00 -0.00    +0.000 HD
DOCKED: ATOM      3  H   UNL     1      38.789  17.512 124.084 -0.01 -0.00    +0.000 HD
DOCKED: ENDROOT
DOCKED: BRANCH   1   4
DOCKED: ATOM      4  C   UNL     1      36.769  17.385 123.958 -0.26 -0.00    +0.000 C 
DOCKED: BRANCH   4   8
DOCKED: ATOM      5  C   UNL     1      37.018  13.304 122.546 -0.48 -0.00    +0.000 A 
DOCKED: ATOM      6  C   UNL     1      37.982  14.257 122.160 -0.39 -0.00    +0.000 A 
DOCKED: ATOM      7  C   UNL     1      37.901  15.574 122.623 -0.30 -0.00    +0.000 A 
DOCKED: ATOM      8  C   UNL     1      36.873  15.960 123.494 -0.31 -0.00    +0.000 A 
DOCKED: ATOM      9  C   UNL     1      35.912  15.014 123.884 -0.44 -0.00    +0.000 A 
DOCKED: ATOM     10  C   UNL     1      35.993  13.696 123.423 -0.50 -0.00    +0.000 A 
DOCKED: ATOM     11  CM  UNL     1      36.946  14.634 123.021 +0.00 -0.00    +0.000 AC
DOCKED: BRANCH   5  12
DOCKED: ATOM     12  C   UNL     1      36.845  10.844 122.905 -0.65 -0.00    +0.000 C 
DOCKED: ATOM     13  C   UNL     1      37.063  11.891 122.095 -0.58 -0.00    +0.000 C 
DOCKED: BRANCH  11  14
DOCKED: ATOM     14  O   UNL     1      36.896   9.207 121.214 -2.68 -0.00    +0.000 OA
DOCKED: ATOM     15  C   UNL     1      36.894   9.438 122.451 -0.67 -0.00    +0.000 C 
DOCKED: ATOM     16  N   UNL     1      36.913   8.335 123.369 -0.70 -0.00    +0.000 N 
DOCKED: ATOM     17  H   UNL     1      36.814   8.498 124.334 -0.41 -0.00    +0.000 HD
DOCKED: BRANCH  15  17
DOCKED: ATOM     18  O   UNL     1      37.064   7.070 122.908 -1.82 -0.00    +0.000 OA
DOCKED: ATOM     19  H   UNL     1      37.187   7.088 121.947 -0.15 -0.00    +0.000 HD
DOCKED: ENDBRANCH  15  17
DOCKED: ENDBRANCH  11  14
DOCKED: ENDBRANCH   5  12
DOCKED: ENDBRANCH   4   8
DOCKED: ENDBRANCH   1   4
DOCKED: BRANCH   1  19
DOCKED: ATOM     20  C   UNL     1      38.089  19.403 124.334 -0.12 -0.00    +0.000 C 
DOCKED: BRANCH  19  20
DOCKED: ATOM     21  C   UNL     1      38.168  19.312 125.867 -0.16 -0.00    +0.000 C 
DOCKED: BRANCH  20  21
DOCKED: ATOM     22  C   UNL     1      39.601  19.274 126.314 -0.17 -0.00    +0.000 A 
DOCKED: ATOM     23  C   UNL     1      40.710  19.820 125.665 -0.15 -0.00    +0.000 A 
DOCKED: ATOM     24  N   UNL     1      41.848  19.528 126.335 -0.13 -0.00    +0.000 N 
DOCKED: ATOM     25  C   UNL     1      41.473  18.783 127.389 -0.31 -0.00    +0.000 A 
DOCKED: ATOM     26  C   UNL     1      40.113  18.601 127.407 -0.28 -0.00    +0.000 A 
DOCKED: ATOM     27  C   UNL     1      39.488  17.837 128.394 -0.22 -0.00    +0.000 A 
DOCKED: ATOM     28  C   UNL     1      40.297  17.258 129.388 -0.37 -0.00    +0.000 A 
DOCKED: ATOM     29  C   UNL     1      41.697  17.450 129.372 -0.44 -0.00    +0.000 A 
DOCKED: ATOM     30  C   UNL     1      42.300  18.221 128.361 -0.39 -0.00    +0.000 A 
DOCKED: ATOM     31  C   UNL     1      40.672  20.645 124.418 -0.07 -0.00    +0.000 C 
DOCKED: ATOM     32  H   UNL     1      42.763  19.805 126.099 -0.51 -0.00    +0.000 HD
DOCKED: ATOM     33  CM  UNL     1      40.784  19.212 126.613 +0.00 -0.00    +0.000 AC
DOCKED: ATOM     34  CM  UNL     1      40.895  18.025 128.385 +0.00 -0.00    +0.000 AC
DOCKED: ENDBRANCH  20  21
DOCKED: ENDBRANCH  19  20
DOCKED: ENDBRANCH   1  19
DOCKED: TORSDOF 8DOCKED: TER
DOCKED: ENDMDL
________________________________________________________________________________


	BEGINNING GENETIC ALGORITHM DOCKING 52 of 100
Run: 52 Seed: 1480387642 1742259706 [ Run 52 of 100 GA/GALS ]
Beginning LAMARCKIAN GENETIC ALGORITHM (LGA), with a maximum of 2500000 energy evaluations.

Final-Value: -15.573


	FINAL GENETIC ALGORITHM DOCKED STATE
	_______________________________________________


Detailed state:  trans 37.548 17.444 124.729 quatxyzw 0.191403 0.674697 0.258664 0.664260 center 0.698 0.076 -0.072 ntor 8 7.8873 -142.2866 -119.5197 143.4732 -103.0409 109.8936 -61.8032 -103.3895
State:	 37.548  17.444 124.729   0.256  0.903  0.346 96.749      7.89 -142.29 -119.52  143.47 -103.04  109.89  -61.80 -103.39

DOCKED: MODEL       52
DOCKED: USER    Run = 52
DOCKED: USER    DPF = ligand_dock.biased.dpf
DOCKED: USER  
DOCKED: USER    Estimated Free Energy of Binding    =  -10.39 kcal/mol  [=(1)+(2)+(3)-(4)]
DOCKED: USER    Estimated Inhibition Constant, Ki   =   24.23 nM (nanomolar)  [Temperature = 298.15 K]
DOCKED: USER    
DOCKED: USER    (1) Final Intermolecular Energy     =  -12.78 kcal/mol
DOCKED: USER        vdW + Hbond + desolv Energy     =  -12.78 kcal/mol
DOCKED: USER        Electrostatic Energy            =   +0.00 kcal/mol
DOCKED: USER    (2) Final Total Internal Energy     =   -2.80 kcal/mol
DOCKED: USER    (3) Torsional Free Energy           =   +2.39 kcal/mol
DOCKED: USER    (4) Unbound System's Energy  [=(2)] =   -2.80 kcal/mol
DOCKED: USER    
DOCKED: USER    
DOCKED: USER    NEWDPF move ligand.dum.pdbqt
DOCKED: USER    NEWDPF about 0.698000 0.076000 -0.072000
DOCKED: USER    NEWDPF tran0 37.548237 17.443542 124.729463
DOCKED: USER    NEWDPF quaternion0 0.191403 0.674697 0.258664 0.664260
DOCKED: USER    NEWDPF axisangle0 0.256057 0.902603 0.346038 96.748853
DOCKED: USER    NEWDPF quat0 0.256057 0.902603 0.346038 96.748853
DOCKED: USER    NEWDPF dihe0 7.89 -142.29 -119.52 143.47 -103.04 109.89 -61.80 -103.39 
DOCKED: USER  keepresnum = 1 
DOCKED: USER  
DOCKED: REMARK  Name = 
DOCKED: REMARK  9 active torsions:
DOCKED: REMARK  status: ('A' for Active; 'I' for Inactive)
DOCKED: REMARK    1  A    between atoms: C_2  and  C_3
DOCKED: REMARK    2  A    between atoms: C_4  and  C_5
DOCKED: REMARK    3  A    between atoms: C_8  and  C_9
DOCKED: REMARK    4  A    between atoms: C_9  and  N_10
DOCKED: REMARK    5  A    between atoms: N_10  and  C_11
DOCKED: REMARK    6  A    between atoms: C_11  and  C_12
DOCKED: REMARK    7  A    between atoms: C_12  and  C_13
DOCKED: REMARK    8  A    between atoms: C_14  and  C_22
DOCKED: REMARK    9  A    between atoms: N_25  and  O_26
DOCKED: REMARK                            x       y       z     vdW  Elec       q    Type
DOCKED: REMARK                         _______ _______ _______ _____ _____    ______ ____
DOCKED: USER                              x       y       z     vdW  Elec       q    Type
DOCKED: USER                           _______ _______ _______ _____ _____    ______ ____
DOCKED: ROOT
DOCKED: ATOM      1  N   UNL     1      38.121  17.847 123.795 -0.19 -0.00    +0.000 N 
DOCKED: ATOM      2  H   UNL     1      38.783  17.070 123.831 -0.02 -0.00    +0.000 HD
DOCKED: ATOM      3  H   UNL     1      38.408  18.607 124.410 -0.00 -0.00    +0.000 HD
DOCKED: ENDROOT
DOCKED: BRANCH   1   4
DOCKED: ATOM      4  C   UNL     1      36.808  17.370 124.249 -0.23 -0.00    +0.000 C 
DOCKED: BRANCH   4   8
DOCKED: ATOM      5  C   UNL     1      36.279  13.232 123.108 -0.51 -0.00    +0.000 A 
DOCKED: ATOM      6  C   UNL     1      35.190  13.990 123.581 -0.24 -0.00    +0.000 A 
DOCKED: ATOM      7  C   UNL     1      35.363  15.329 123.943 -0.48 -0.00    +0.000 A 
DOCKED: ATOM      8  C   UNL     1      36.619  15.942 123.821 -0.31 -0.00    +0.000 A 
DOCKED: ATOM      9  C   UNL     1      37.706  15.192 123.349 -0.29 -0.00    +0.000 A 
DOCKED: ATOM     10  C   UNL     1      37.533  13.853 122.984 -0.46 -0.00    +0.000 A 
DOCKED: ATOM     11  CM  UNL     1      36.448  14.589 123.464 +0.00 -0.00    +0.000 AC
DOCKED: BRANCH   5  12
DOCKED: ATOM     12  C   UNL     1      37.082  10.879 122.936 -0.59 -0.00    +0.000 C 
DOCKED: ATOM     13  C   UNL     1      36.148  11.811 122.698 -0.64 -0.00    +0.000 C 
DOCKED: BRANCH  11  14
DOCKED: ATOM     14  O   UNL     1      36.699   9.215 121.315 -2.55 -0.00    +0.000 OA
DOCKED: ATOM     15  C   UNL     1      36.948   9.466 122.524 -0.65 -0.00    +0.000 C 
DOCKED: ATOM     16  N   UNL     1      37.067   8.380 123.453 -0.70 -0.00    +0.000 N 
DOCKED: ATOM     17  H   UNL     1      37.165   8.565 124.415 -0.49 -0.00    +0.000 HD
DOCKED: BRANCH  15  17
DOCKED: ATOM     18  O   UNL     1      37.042   7.100 123.011 -1.88 -0.00    +0.000 OA
DOCKED: ATOM     19  H   UNL     1      37.066   7.092 122.041 -0.12 -0.00    +0.000 HD
DOCKED: ENDBRANCH  15  17
DOCKED: ENDBRANCH  11  14
DOCKED: ENDBRANCH   5  12
DOCKED: ENDBRANCH   4   8
DOCKED: ENDBRANCH   1   4
DOCKED: BRANCH   1  19
DOCKED: ATOM     20  C   UNL     1      38.078  18.369 122.420 -0.11 -0.00    +0.000 C 
DOCKED: BRANCH  19  20
DOCKED: ATOM     21  C   UNL     1      39.302  17.943 121.592 -0.09 -0.00    +0.000 C 
DOCKED: BRANCH  20  21
DOCKED: ATOM     22  C   UNL     1      39.121  16.545 121.075 -0.13 -0.00    +0.000 A 
DOCKED: ATOM     23  C   UNL     1      39.976  15.455 121.251 -0.25 -0.00    +0.000 A 
DOCKED: ATOM     24  N   UNL     1      39.515  14.373 120.581 -0.16 -0.00    +0.000 N 
DOCKED: ATOM     25  C   UNL     1      38.390  14.773 119.966 -0.23 -0.00    +0.000 A 
DOCKED: ATOM     26  C   UNL     1      38.120  16.092 120.236 -0.15 -0.00    +0.000 A 
DOCKED: ATOM     27  C   UNL     1      37.015  16.743 119.687 -0.13 -0.00    +0.000 A 
DOCKED: ATOM     28  C   UNL     1      36.168  16.002 118.844 -0.13 -0.00    +0.000 A 
DOCKED: ATOM     29  C   UNL     1      36.442  14.643 118.569 -0.25 -0.00    +0.000 A 
DOCKED: ATOM     30  C   UNL     1      37.567  14.015 119.133 -0.31 -0.00    +0.000 A 
DOCKED: ATOM     31  C   UNL     1      41.219  15.445 122.083 -0.44 -0.00    +0.000 C 
DOCKED: ATOM     32  H   UNL     1      39.921  13.476 120.552 -0.04 -0.00    +0.000 HD
DOCKED: ATOM     33  CM  UNL     1      39.040  15.413 120.621 +0.00 -0.00    +0.000 AC
DOCKED: ATOM     34  CM  UNL     1      37.284  15.377 119.406 +0.00 -0.00    +0.000 AC
DOCKED: ENDBRANCH  20  21
DOCKED: ENDBRANCH  19  20
DOCKED: ENDBRANCH   1  19
DOCKED: TORSDOF 8DOCKED: TER
DOCKED: ENDMDL
________________________________________________________________________________


	BEGINNING GENETIC ALGORITHM DOCKING 53 of 100
Run: 53 Seed: 642898064 2136667784 [ Run 53 of 100 GA/GALS ]
Beginning LAMARCKIAN GENETIC ALGORITHM (LGA), with a maximum of 2500000 energy evaluations.

Final-Value: -15.752


	FINAL GENETIC ALGORITHM DOCKED STATE
	_______________________________________________


Detailed state:  trans 36.997 16.547 124.189 quatxyzw 0.174982 -0.389369 -0.601525 -0.675234 center 0.698 0.076 -0.072 ntor 8 6.5586 177.3571 135.3429 171.9445 148.3522 -114.8777 -70.1117 -31.7596
State:	 36.997  16.547 124.189   0.237 -0.528 -0.816 -95.055      6.56  177.36  135.34  171.94  148.35 -114.88  -70.11  -31.76

DOCKED: MODEL       53
DOCKED: USER    Run = 53
DOCKED: USER    DPF = ligand_dock.biased.dpf
DOCKED: USER  
DOCKED: USER    Estimated Free Energy of Binding    =  -11.19 kcal/mol  [=(1)+(2)+(3)-(4)]
DOCKED: USER    Estimated Inhibition Constant, Ki   =    6.25 nM (nanomolar)  [Temperature = 298.15 K]
DOCKED: USER    
DOCKED: USER    (1) Final Intermolecular Energy     =  -13.58 kcal/mol
DOCKED: USER        vdW + Hbond + desolv Energy     =  -13.58 kcal/mol
DOCKED: USER        Electrostatic Energy            =   +0.00 kcal/mol
DOCKED: USER    (2) Final Total Internal Energy     =   -2.17 kcal/mol
DOCKED: USER    (3) Torsional Free Energy           =   +2.39 kcal/mol
DOCKED: USER    (4) Unbound System's Energy  [=(2)] =   -2.17 kcal/mol
DOCKED: USER    
DOCKED: USER    
DOCKED: USER    NEWDPF move ligand.dum.pdbqt
DOCKED: USER    NEWDPF about 0.698000 0.076000 -0.072000
DOCKED: USER    NEWDPF tran0 36.996859 16.546550 124.189415
DOCKED: USER    NEWDPF quaternion0 0.174982 -0.389369 -0.601525 -0.675234
DOCKED: USER    NEWDPF axisangle0 0.237231 -0.527884 -0.815512 -95.055380
DOCKED: USER    NEWDPF quat0 0.237231 -0.527884 -0.815512 -95.055380
DOCKED: USER    NEWDPF dihe0 6.56 177.36 135.34 171.94 148.35 -114.88 -70.11 -31.76 
DOCKED: USER  keepresnum = 1 
DOCKED: USER  
DOCKED: REMARK  Name = 
DOCKED: REMARK  9 active torsions:
DOCKED: REMARK  status: ('A' for Active; 'I' for Inactive)
DOCKED: REMARK    1  A    between atoms: C_2  and  C_3
DOCKED: REMARK    2  A    between atoms: C_4  and  C_5
DOCKED: REMARK    3  A    between atoms: C_8  and  C_9
DOCKED: REMARK    4  A    between atoms: C_9  and  N_10
DOCKED: REMARK    5  A    between atoms: N_10  and  C_11
DOCKED: REMARK    6  A    between atoms: C_11  and  C_12
DOCKED: REMARK    7  A    between atoms: C_12  and  C_13
DOCKED: REMARK    8  A    between atoms: C_14  and  C_22
DOCKED: REMARK    9  A    between atoms: N_25  and  O_26
DOCKED: REMARK                            x       y       z     vdW  Elec       q    Type
DOCKED: REMARK                         _______ _______ _______ _____ _____    ______ ____
DOCKED: USER                              x       y       z     vdW  Elec       q    Type
DOCKED: USER                           _______ _______ _______ _____ _____    ______ ____
DOCKED: ROOT
DOCKED: ATOM      1  N   UNL     1      37.582  17.556 124.138 -0.22 -0.00    +0.000 N 
DOCKED: ATOM      2  H   UNL     1      38.168  17.210 123.377 -0.01 -0.00    +0.000 HD
DOCKED: ATOM      3  H   UNL     1      37.954  17.284 125.047 -0.01 -0.00    +0.000 HD
DOCKED: ENDROOT
DOCKED: BRANCH   1   4
DOCKED: ATOM      4  C   UNL     1      36.241  16.970 124.006 -0.31 -0.00    +0.000 C 
DOCKED: BRANCH   4   8
DOCKED: ATOM      5  C   UNL     1      36.537  12.903 122.562 -0.48 -0.00    +0.000 A 
DOCKED: ATOM      6  C   UNL     1      37.480  13.874 122.170 -0.42 -0.00    +0.000 A 
DOCKED: ATOM      7  C   UNL     1      37.385  15.186 122.643 -0.33 -0.00    +0.000 A 
DOCKED: ATOM      8  C   UNL     1      36.362  15.549 123.531 -0.37 -0.00    +0.000 A 
DOCKED: ATOM      9  C   UNL     1      35.422  14.585 123.927 -0.48 -0.00    +0.000 A 
DOCKED: ATOM     10  C   UNL     1      35.518  13.273 123.456 -0.34 -0.00    +0.000 A 
DOCKED: ATOM     11  CM  UNL     1      36.450  14.228 123.048 +0.00 -0.00    +0.000 AC
DOCKED: BRANCH   5  12
DOCKED: ATOM     12  C   UNL     1      36.862  10.456 122.908 -0.64 -0.00    +0.000 C 
DOCKED: ATOM     13  C   UNL     1      36.598  11.494 122.100 -0.62 -0.00    +0.000 C 
DOCKED: BRANCH  11  14
DOCKED: ATOM     14  O   UNL     1      36.978   8.836 121.205 -2.66 -0.00    +0.000 OA
DOCKED: ATOM     15  C   UNL     1      36.925   9.055 122.443 -0.69 -0.00    +0.000 C 
DOCKED: ATOM     16  N   UNL     1      36.900   7.943 123.350 -0.74 -0.00    +0.000 N 
DOCKED: ATOM     17  H   UNL     1      36.761   8.097 124.312 -0.31 -0.00    +0.000 HD
DOCKED: BRANCH  15  17
DOCKED: ATOM     18  O   UNL     1      37.067   6.682 122.883 -1.43 -0.00    +0.000 OA
DOCKED: ATOM     19  H   UNL     1      37.293   6.712 121.941 -0.36 -0.00    +0.000 HD
DOCKED: ENDBRANCH  15  17
DOCKED: ENDBRANCH  11  14
DOCKED: ENDBRANCH   5  12
DOCKED: ENDBRANCH   4   8
DOCKED: ENDBRANCH   1   4
DOCKED: BRANCH   1  19
DOCKED: ATOM     20  C   UNL     1      37.553  19.026 124.082 -0.15 -0.00    +0.000 C 
DOCKED: BRANCH  19  20
DOCKED: ATOM     21  C   UNL     1      38.815  19.613 123.428 -0.08 -0.00    +0.000 C 
DOCKED: BRANCH  20  21
DOCKED: ATOM     22  C   UNL     1      39.982  18.689 123.624 -0.14 -0.00    +0.000 A 
DOCKED: ATOM     23  C   UNL     1      40.964  18.756 124.615 -0.23 -0.00    +0.000 A 
DOCKED: ATOM     24  N   UNL     1      41.895  17.792 124.432 -0.23 -0.00    +0.000 N 
DOCKED: ATOM     25  C   UNL     1      41.525  17.129 123.323 -0.32 -0.00    +0.000 A 
DOCKED: ATOM     26  C   UNL     1      40.368  17.650 122.798 -0.18 -0.00    +0.000 A 
DOCKED: ATOM     27  C   UNL     1      39.799  17.145 121.628 -0.13 -0.00    +0.000 A 
DOCKED: ATOM     28  C   UNL     1      40.445  16.066 120.997 -0.20 -0.00    +0.000 A 
DOCKED: ATOM     29  C   UNL     1      41.633  15.526 121.539 -0.29 -0.00    +0.000 A 
DOCKED: ATOM     30  C   UNL     1      42.186  16.061 122.717 -0.43 -0.00    +0.000 A 
DOCKED: ATOM     31  C   UNL     1      40.993  19.729 125.750 -0.19 -0.00    +0.000 C 
DOCKED: ATOM     32  H   UNL     1      42.682  17.612 124.996 -0.60 -0.00    +0.000 HD
DOCKED: ATOM     33  CM  UNL     1      40.977  17.997 123.780 +0.00 -0.00    +0.000 AC
DOCKED: ATOM     34  CM  UNL     1      40.993  16.596 122.168 +0.00 -0.00    +0.000 AC
DOCKED: ENDBRANCH  20  21
DOCKED: ENDBRANCH  19  20
DOCKED: ENDBRANCH   1  19
DOCKED: TORSDOF 8DOCKED: TER
DOCKED: ENDMDL
________________________________________________________________________________


	BEGINNING GENETIC ALGORITHM DOCKING 54 of 100
Run: 54 Seed: 1276186191 2026957589 [ Run 54 of 100 GA/GALS ]
Beginning LAMARCKIAN GENETIC ALGORITHM (LGA), with a maximum of 2500000 energy evaluations.

Final-Value: -14.682


	FINAL GENETIC ALGORITHM DOCKED STATE
	_______________________________________________


Detailed state:  trans 36.535 18.410 123.700 quatxyzw 0.121756 -0.426201 0.430048 -0.786503 center 0.698 0.076 -0.072 ntor 8 -0.3224 -122.8715 -112.4331 143.3742 -101.1778 -180.0000 -84.1252 180.0000
State:	 36.535  18.410 123.700   0.197 -0.690  0.696 -76.280     -0.32 -122.87 -112.43  143.37 -101.18 -180.00  -84.13  180.00

DOCKED: MODEL       54
DOCKED: USER    Run = 54
DOCKED: USER    DPF = ligand_dock.biased.dpf
DOCKED: USER  
DOCKED: USER    Estimated Free Energy of Binding    =   -9.97 kcal/mol  [=(1)+(2)+(3)-(4)]
DOCKED: USER    Estimated Inhibition Constant, Ki   =   49.47 nM (nanomolar)  [Temperature = 298.15 K]
DOCKED: USER    
DOCKED: USER    (1) Final Intermolecular Energy     =  -12.35 kcal/mol
DOCKED: USER        vdW + Hbond + desolv Energy     =  -12.35 kcal/mol
DOCKED: USER        Electrostatic Energy            =   +0.00 kcal/mol
DOCKED: USER    (2) Final Total Internal Energy     =   -2.33 kcal/mol
DOCKED: USER    (3) Torsional Free Energy           =   +2.39 kcal/mol
DOCKED: USER    (4) Unbound System's Energy  [=(2)] =   -2.33 kcal/mol
DOCKED: USER    
DOCKED: USER    
DOCKED: USER    NEWDPF move ligand.dum.pdbqt
DOCKED: USER    NEWDPF about 0.698000 0.076000 -0.072000
DOCKED: USER    NEWDPF tran0 36.534990 18.410221 123.699569
DOCKED: USER    NEWDPF quaternion0 0.121756 -0.426201 0.430048 -0.786503
DOCKED: USER    NEWDPF axisangle0 0.197148 -0.690107 0.696336 -76.280201
DOCKED: USER    NEWDPF quat0 0.197148 -0.690107 0.696336 -76.280201
DOCKED: USER    NEWDPF dihe0 -0.32 -122.87 -112.43 143.37 -101.18 -180.00 -84.13 180.00 
DOCKED: USER  keepresnum = 1 
DOCKED: USER  
DOCKED: REMARK  Name = 
DOCKED: REMARK  9 active torsions:
DOCKED: REMARK  status: ('A' for Active; 'I' for Inactive)
DOCKED: REMARK    1  A    between atoms: C_2  and  C_3
DOCKED: REMARK    2  A    between atoms: C_4  and  C_5
DOCKED: REMARK    3  A    between atoms: C_8  and  C_9
DOCKED: REMARK    4  A    between atoms: C_9  and  N_10
DOCKED: REMARK    5  A    between atoms: N_10  and  C_11
DOCKED: REMARK    6  A    between atoms: C_11  and  C_12
DOCKED: REMARK    7  A    between atoms: C_12  and  C_13
DOCKED: REMARK    8  A    between atoms: C_14  and  C_22
DOCKED: REMARK    9  A    between atoms: N_25  and  O_26
DOCKED: REMARK                            x       y       z     vdW  Elec       q    Type
DOCKED: REMARK                         _______ _______ _______ _____ _____    ______ ____
DOCKED: USER                              x       y       z     vdW  Elec       q    Type
DOCKED: USER                           _______ _______ _______ _____ _____    ______ ____
DOCKED: ROOT
DOCKED: ATOM      1  N   UNL     1      35.951  18.317 122.692 -0.20 -0.00    +0.000 N 
DOCKED: ATOM      2  H   UNL     1      36.700  18.786 122.182 +0.00 -0.00    +0.000 HD
DOCKED: ATOM      3  H   UNL     1      35.307  18.990 123.107 -0.01 -0.00    +0.000 HD
DOCKED: ENDROOT
DOCKED: BRANCH   1   4
DOCKED: ATOM      4  C   UNL     1      36.542  17.529 123.782 -0.26 -0.00    +0.000 C 
DOCKED: BRANCH   4   8
DOCKED: ATOM      5  C   UNL     1      36.141  13.294 122.997 -0.43 -0.00    +0.000 A 
DOCKED: ATOM      6  C   UNL     1      35.222  13.959 123.834 -0.32 -0.00    +0.000 A 
DOCKED: ATOM      7  C   UNL     1      35.351  15.329 124.081 -0.48 -0.00    +0.000 A 
DOCKED: ATOM      8  C   UNL     1      36.385  16.065 123.482 -0.33 -0.00    +0.000 A 
DOCKED: ATOM      9  C   UNL     1      37.300  15.408 122.647 -0.32 -0.00    +0.000 A 
DOCKED: ATOM     10  C   UNL     1      37.170  14.038 122.398 -0.41 -0.00    +0.000 A 
DOCKED: ATOM     11  CM  UNL     1      36.262  14.682 123.240 +0.00 -0.00    +0.000 AC
DOCKED: BRANCH   5  12
DOCKED: ATOM     12  C   UNL     1      37.091  11.008 122.710 -0.57 -0.00    +0.000 C 
DOCKED: ATOM     13  C   UNL     1      36.043  11.845 122.692 -0.62 -0.00    +0.000 C 
DOCKED: BRANCH  11  14
DOCKED: ATOM     14  O   UNL     1      36.816   9.219 121.205 -2.67 -0.00    +0.000 OA
DOCKED: ATOM     15  C   UNL     1      36.990   9.566 122.403 -0.63 -0.00    +0.000 C 
DOCKED: ATOM     16  N   UNL     1      37.056   8.557 123.421 -0.67 -0.00    +0.000 N 
DOCKED: ATOM     17  H   UNL     1      37.094   8.818 124.369 -0.53 -0.00    +0.000 HD
DOCKED: BRANCH  15  17
DOCKED: ATOM     18  O   UNL     1      37.064   7.246 123.079 -2.07 -0.00    +0.000 OA
DOCKED: ATOM     19  H   UNL     1      37.016   7.162 122.114 -0.10 -0.00    +0.000 HD
DOCKED: ENDBRANCH  15  17
DOCKED: ENDBRANCH  11  14
DOCKED: ENDBRANCH   5  12
DOCKED: ENDBRANCH   4   8
DOCKED: ENDBRANCH   1   4
DOCKED: BRANCH   1  19
DOCKED: ATOM     20  C   UNL     1      35.188  17.481 121.752 -0.31 -0.00    +0.000 C 
DOCKED: BRANCH  19  20
DOCKED: ATOM     21  C   UNL     1      34.964  18.176 120.398 -0.27 -0.00    +0.000 C 
DOCKED: BRANCH  20  21
DOCKED: ATOM     22  C   UNL     1      36.169  18.006 119.519 -0.12 -0.00    +0.000 A 
DOCKED: ATOM     23  C   UNL     1      36.919  19.008 118.899 -0.06 -0.00    +0.000 A 
DOCKED: ATOM     24  N   UNL     1      37.892  18.470 118.128 -0.03 -0.00    +0.000 N 
DOCKED: ATOM     25  C   UNL     1      37.752  17.137 118.237 -0.07 -0.00    +0.000 A 
DOCKED: ATOM     26  C   UNL     1      36.709  16.816 119.069 -0.12 -0.00    +0.000 A 
DOCKED: ATOM     27  C   UNL     1      36.350  15.491 119.319 -0.09 -0.00    +0.000 A 
DOCKED: ATOM     28  C   UNL     1      37.100  14.478 118.693 -0.28 -0.00    +0.000 A 
DOCKED: ATOM     29  C   UNL     1      38.176  14.809 117.840 -0.20 -0.00    +0.000 A 
DOCKED: ATOM     30  C   UNL     1      38.511  16.154 117.603 -0.11 -0.00    +0.000 A 
DOCKED: ATOM     31  C   UNL     1      36.717  20.480 119.068 -0.08 -0.00    +0.000 C 
DOCKED: ATOM     32  H   UNL     1      38.565  18.955 117.598 +0.00 -0.00    +0.000 HD
DOCKED: ATOM     33  CM  UNL     1      37.113  17.906 118.750 +0.00 -0.00    +0.000 AC
DOCKED: ATOM     34  CM  UNL     1      37.433  15.815 118.460 +0.00 -0.00    +0.000 AC
DOCKED: ENDBRANCH  20  21
DOCKED: ENDBRANCH  19  20
DOCKED: ENDBRANCH   1  19
DOCKED: TORSDOF 8DOCKED: TER
DOCKED: ENDMDL
________________________________________________________________________________


	BEGINNING GENETIC ALGORITHM DOCKING 55 of 100
Run: 55 Seed: 2041722084 950116952 [ Run 55 of 100 GA/GALS ]
Beginning LAMARCKIAN GENETIC ALGORITHM (LGA), with a maximum of 2500000 energy evaluations.

Final-Value: -16.162


	FINAL GENETIC ALGORITHM DOCKED STATE
	_______________________________________________


Detailed state:  trans 36.847 16.967 124.134 quatxyzw -0.368650 0.518170 0.577130 0.512365 center 0.698 0.076 -0.072 ntor 8 11.6520 -37.1357 143.1957 161.5038 165.1786 43.0802 -52.9266 -8.5211
State:	 36.847  16.967 124.134  -0.429  0.603  0.672 118.357     11.65  -37.14  143.20  161.50  165.18   43.08  -52.93   -8.52

DOCKED: MODEL       55
DOCKED: USER    Run = 55
DOCKED: USER    DPF = ligand_dock.biased.dpf
DOCKED: USER  
DOCKED: USER    Estimated Free Energy of Binding    =  -11.76 kcal/mol  [=(1)+(2)+(3)-(4)]
DOCKED: USER    Estimated Inhibition Constant, Ki   =    2.40 nM (nanomolar)  [Temperature = 298.15 K]
DOCKED: USER    
DOCKED: USER    (1) Final Intermolecular Energy     =  -14.14 kcal/mol
DOCKED: USER        vdW + Hbond + desolv Energy     =  -14.14 kcal/mol
DOCKED: USER        Electrostatic Energy            =   +0.00 kcal/mol
DOCKED: USER    (2) Final Total Internal Energy     =   -2.02 kcal/mol
DOCKED: USER    (3) Torsional Free Energy           =   +2.39 kcal/mol
DOCKED: USER    (4) Unbound System's Energy  [=(2)] =   -2.02 kcal/mol
DOCKED: USER    
DOCKED: USER    
DOCKED: USER    NEWDPF move ligand.dum.pdbqt
DOCKED: USER    NEWDPF about 0.698000 0.076000 -0.072000
DOCKED: USER    NEWDPF tran0 36.847094 16.967446 124.134195
DOCKED: USER    NEWDPF quaternion0 -0.368650 0.518170 0.577130 0.512365
DOCKED: USER    NEWDPF axisangle0 -0.429278 0.603388 0.672044 118.357007
DOCKED: USER    NEWDPF quat0 -0.429278 0.603388 0.672044 118.357007
DOCKED: USER    NEWDPF dihe0 11.65 -37.14 143.20 161.50 165.18 43.08 -52.93 -8.52 
DOCKED: USER  keepresnum = 1 
DOCKED: USER  
DOCKED: REMARK  Name = 
DOCKED: REMARK  9 active torsions:
DOCKED: REMARK  status: ('A' for Active; 'I' for Inactive)
DOCKED: REMARK    1  A    between atoms: C_2  and  C_3
DOCKED: REMARK    2  A    between atoms: C_4  and  C_5
DOCKED: REMARK    3  A    between atoms: C_8  and  C_9
DOCKED: REMARK    4  A    between atoms: C_9  and  N_10
DOCKED: REMARK    5  A    between atoms: N_10  and  C_11
DOCKED: REMARK    6  A    between atoms: C_11  and  C_12
DOCKED: REMARK    7  A    between atoms: C_12  and  C_13
DOCKED: REMARK    8  A    between atoms: C_14  and  C_22
DOCKED: REMARK    9  A    between atoms: N_25  and  O_26
DOCKED: REMARK                            x       y       z     vdW  Elec       q    Type
DOCKED: REMARK                         _______ _______ _______ _____ _____    ______ ____
DOCKED: USER                              x       y       z     vdW  Elec       q    Type
DOCKED: USER                           _______ _______ _______ _____ _____    ______ ____
DOCKED: ROOT
DOCKED: ATOM      1  N   UNL     1      37.388  17.916 124.548 -0.21 -0.00    +0.000 N 
DOCKED: ATOM      2  H   UNL     1      38.280  17.613 124.157 -0.01 -0.00    +0.000 HD
DOCKED: ATOM      3  H   UNL     1      37.224  17.500 125.464 -0.01 -0.00    +0.000 HD
DOCKED: ENDROOT
DOCKED: BRANCH   1   4
DOCKED: ATOM      4  C   UNL     1      36.307  17.479 123.655 -0.27 -0.00    +0.000 C 
DOCKED: BRANCH   4   8
DOCKED: ATOM      5  C   UNL     1      36.366  13.159 123.448 -0.56 -0.00    +0.000 A 
DOCKED: ATOM      6  C   UNL     1      35.190  13.844 123.814 -0.22 -0.00    +0.000 A 
DOCKED: ATOM      7  C   UNL     1      35.173  15.240 123.874 -0.50 -0.00    +0.000 A 
DOCKED: ATOM      8  C   UNL     1      36.319  15.980 123.551 -0.34 -0.00    +0.000 A 
DOCKED: ATOM      9  C   UNL     1      37.492  15.303 123.183 -0.34 -0.00    +0.000 A 
DOCKED: ATOM     10  C   UNL     1      37.509  13.906 123.121 -0.46 -0.00    +0.000 A 
DOCKED: ATOM     11  CM  UNL     1      36.341  14.572 123.499 +0.00 -0.00    +0.000 AC
DOCKED: BRANCH   5  12
DOCKED: ATOM     12  C   UNL     1      36.753  11.018 122.233 -0.63 -0.00    +0.000 C 
DOCKED: ATOM     13  C   UNL     1      36.435  11.679 123.356 -0.70 -0.00    +0.000 C 
DOCKED: BRANCH  11  14
DOCKED: ATOM     14  O   UNL     1      36.724   9.006 121.011 -2.62 -0.00    +0.000 OA
DOCKED: ATOM     15  C   UNL     1      36.818   9.544 122.145 -0.67 -0.00    +0.000 C 
DOCKED: ATOM     16  N   UNL     1      36.959   8.711 123.305 -0.66 -0.00    +0.000 N 
DOCKED: ATOM     17  H   UNL     1      36.936   9.112 124.203 -0.53 -0.00    +0.000 HD
DOCKED: BRANCH  15  17
DOCKED: ATOM     18  O   UNL     1      37.121   7.373 123.166 -2.14 -0.00    +0.000 OA
DOCKED: ATOM     19  H   UNL     1      37.305   7.164 122.237 -0.15 -0.00    +0.000 HD
DOCKED: ENDBRANCH  15  17
DOCKED: ENDBRANCH  11  14
DOCKED: ENDBRANCH   5  12
DOCKED: ENDBRANCH   4   8
DOCKED: ENDBRANCH   1   4
DOCKED: BRANCH   1  19
DOCKED: ATOM     20  C   UNL     1      37.416  19.378 124.714 -0.14 -0.00    +0.000 C 
DOCKED: BRANCH  19  20
DOCKED: ATOM     21  C   UNL     1      38.817  19.968 124.482 -0.09 -0.00    +0.000 C 
DOCKED: BRANCH  20  21
DOCKED: ATOM     22  C   UNL     1      39.839  18.870 124.409 -0.16 -0.00    +0.000 A 
DOCKED: ATOM     23  C   UNL     1      40.794  18.530 125.370 -0.29 -0.00    +0.000 A 
DOCKED: ATOM     24  N   UNL     1      41.587  17.529 124.924 -0.30 -0.00    +0.000 N 
DOCKED: ATOM     25  C   UNL     1      41.158  17.247 123.681 -0.30 -0.00    +0.000 A 
DOCKED: ATOM     26  C   UNL     1      40.100  18.048 123.329 -0.18 -0.00    +0.000 A 
DOCKED: ATOM     27  C   UNL     1      39.499  17.960 122.073 -0.09 -0.00    +0.000 A 
DOCKED: ATOM     28  C   UNL     1      40.007  17.011 121.167 -0.12 -0.00    +0.000 A 
DOCKED: ATOM     29  C   UNL     1      41.092  16.184 121.530 -0.24 -0.00    +0.000 A 
DOCKED: ATOM     30  C   UNL     1      41.682  16.299 122.803 -0.38 -0.00    +0.000 A 
DOCKED: ATOM     31  C   UNL     1      40.926  19.148 126.726 -0.28 -0.00    +0.000 C 
DOCKED: ATOM     32  H   UNL     1      42.325  17.095 125.410 -0.54 -0.00    +0.000 HD
DOCKED: ATOM     33  CM  UNL     1      40.724  18.029 124.362 +0.00 -0.00    +0.000 AC
DOCKED: ATOM     34  CM  UNL     1      40.590  17.125 122.431 +0.00 -0.00    +0.000 AC
DOCKED: ENDBRANCH  20  21
DOCKED: ENDBRANCH  19  20
DOCKED: ENDBRANCH   1  19
DOCKED: TORSDOF 8DOCKED: TER
DOCKED: ENDMDL
________________________________________________________________________________


	BEGINNING GENETIC ALGORITHM DOCKING 56 of 100
Run: 56 Seed: 1742311748 1382944257 [ Run 56 of 100 GA/GALS ]
Beginning LAMARCKIAN GENETIC ALGORITHM (LGA), with a maximum of 2500000 energy evaluations.

Final-Value: -14.813


	FINAL GENETIC ALGORITHM DOCKED STATE
	_______________________________________________


Detailed state:  trans 36.674 15.912 121.246 quatxyzw -0.459775 0.550380 -0.016175 -0.696726 center 0.698 0.076 -0.072 ntor 8 -4.0994 168.1168 -94.5354 -33.9816 59.4755 11.5926 48.1456 -60.8044
State:	 36.674  15.912 121.246  -0.641  0.767 -0.023 -91.670     -4.10  168.12  -94.54  -33.98   59.48   11.59   48.15  -60.80

DOCKED: MODEL       56
DOCKED: USER    Run = 56
DOCKED: USER    DPF = ligand_dock.biased.dpf
DOCKED: USER  
DOCKED: USER    Estimated Free Energy of Binding    =  -10.57 kcal/mol  [=(1)+(2)+(3)-(4)]
DOCKED: USER    Estimated Inhibition Constant, Ki   =   17.99 nM (nanomolar)  [Temperature = 298.15 K]
DOCKED: USER    
DOCKED: USER    (1) Final Intermolecular Energy     =  -12.95 kcal/mol
DOCKED: USER        vdW + Hbond + desolv Energy     =  -12.95 kcal/mol
DOCKED: USER        Electrostatic Energy            =   +0.00 kcal/mol
DOCKED: USER    (2) Final Total Internal Energy     =   -1.86 kcal/mol
DOCKED: USER    (3) Torsional Free Energy           =   +2.39 kcal/mol
DOCKED: USER    (4) Unbound System's Energy  [=(2)] =   -1.86 kcal/mol
DOCKED: USER    
DOCKED: USER    
DOCKED: USER    NEWDPF move ligand.dum.pdbqt
DOCKED: USER    NEWDPF about 0.698000 0.076000 -0.072000
DOCKED: USER    NEWDPF tran0 36.673921 15.911998 121.246468
DOCKED: USER    NEWDPF quaternion0 -0.459775 0.550380 -0.016175 -0.696726
DOCKED: USER    NEWDPF axisangle0 -0.640947 0.767254 -0.022549 -91.670182
DOCKED: USER    NEWDPF quat0 -0.640947 0.767254 -0.022549 -91.670182
DOCKED: USER    NEWDPF dihe0 -4.10 168.12 -94.54 -33.98 59.48 11.59 48.15 -60.80 
DOCKED: USER  keepresnum = 1 
DOCKED: USER  
DOCKED: REMARK  Name = 
DOCKED: REMARK  9 active torsions:
DOCKED: REMARK  status: ('A' for Active; 'I' for Inactive)
DOCKED: REMARK    1  A    between atoms: C_2  and  C_3
DOCKED: REMARK    2  A    between atoms: C_4  and  C_5
DOCKED: REMARK    3  A    between atoms: C_8  and  C_9
DOCKED: REMARK    4  A    between atoms: C_9  and  N_10
DOCKED: REMARK    5  A    between atoms: N_10  and  C_11
DOCKED: REMARK    6  A    between atoms: C_11  and  C_12
DOCKED: REMARK    7  A    between atoms: C_12  and  C_13
DOCKED: REMARK    8  A    between atoms: C_14  and  C_22
DOCKED: REMARK    9  A    between atoms: N_25  and  O_26
DOCKED: REMARK                            x       y       z     vdW  Elec       q    Type
DOCKED: REMARK                         _______ _______ _______ _____ _____    ______ ____
DOCKED: USER                              x       y       z     vdW  Elec       q    Type
DOCKED: USER                           _______ _______ _______ _____ _____    ______ ____
DOCKED: ROOT
DOCKED: ATOM      1  N   UNL     1      35.827  16.625 121.618 -0.23 -0.00    +0.000 N 
DOCKED: ATOM      2  H   UNL     1      35.181  15.843 121.733 +0.01 -0.00    +0.000 HD
DOCKED: ATOM      3  H   UNL     1      35.822  16.973 120.660 -0.01 -0.00    +0.000 HD
DOCKED: ENDROOT
DOCKED: BRANCH   1   4
DOCKED: ATOM      4  C   UNL     1      37.187  16.163 121.923 -0.24 -0.00    +0.000 C 
DOCKED: BRANCH   4   8
DOCKED: ATOM      5  C   UNL     1      37.080  11.863 122.387 -0.53 -0.00    +0.000 A 
DOCKED: ATOM      6  C   UNL     1      37.402  12.443 121.144 -0.47 -0.00    +0.000 A 
DOCKED: ATOM      7  C   UNL     1      37.442  13.833 120.999 -0.37 -0.00    +0.000 A 
DOCKED: ATOM      8  C   UNL     1      37.182  14.669 122.094 -0.33 -0.00    +0.000 A 
DOCKED: ATOM      9  C   UNL     1      36.863  14.097 123.334 -0.46 -0.00    +0.000 A 
DOCKED: ATOM     10  C   UNL     1      36.825  12.707 123.481 -0.57 -0.00    +0.000 A 
DOCKED: ATOM     11  CM  UNL     1      37.132  13.268 122.240 +0.00 -0.00    +0.000 AC
DOCKED: BRANCH   5  12
DOCKED: ATOM     12  C   UNL     1      35.925   9.725 122.942 -0.68 -0.00    +0.000 C 
DOCKED: ATOM     13  C   UNL     1      37.036  10.395 122.599 -0.58 -0.00    +0.000 C 
DOCKED: BRANCH  11  14
DOCKED: ATOM     14  O   UNL     1      36.966   7.619 123.086 -2.26 -0.00    +0.000 OA
DOCKED: ATOM     15  C   UNL     1      35.887   8.263 123.154 -0.71 -0.00    +0.000 C 
DOCKED: ATOM     16  N   UNL     1      34.665   7.556 123.408 -0.66 -0.00    +0.000 N 
DOCKED: ATOM     17  H   UNL     1      33.804   8.032 123.368 -0.09 -0.00    +0.000 HD
DOCKED: BRANCH  15  17
DOCKED: ATOM     18  O   UNL     1      34.693   6.234 123.701 -0.85 -0.00    +0.000 OA
DOCKED: ATOM     19  H   UNL     1      35.604   5.907 123.637 -0.05 -0.00    +0.000 HD
DOCKED: ENDBRANCH  15  17
DOCKED: ENDBRANCH  11  14
DOCKED: ENDBRANCH   5  12
DOCKED: ENDBRANCH   4   8
DOCKED: ENDBRANCH   1   4
DOCKED: BRANCH   1  19
DOCKED: ATOM     20  C   UNL     1      35.402  17.723 122.500 -0.31 -0.00    +0.000 C 
DOCKED: BRANCH  19  20
DOCKED: ATOM     21  C   UNL     1      36.077  17.662 123.881 -0.28 -0.00    +0.000 C 
DOCKED: BRANCH  20  21
DOCKED: ATOM     22  C   UNL     1      35.050  17.449 124.955 -0.33 -0.00    +0.000 A 
DOCKED: ATOM     23  C   UNL     1      34.139  16.396 125.065 -0.44 -0.00    +0.000 A 
DOCKED: ATOM     24  N   UNL     1      33.323  16.579 126.129 -0.37 -0.00    +0.000 N 
DOCKED: ATOM     25  C   UNL     1      33.694  17.748 126.680 -0.32 -0.00    +0.000 A 
DOCKED: ATOM     26  C   UNL     1      34.737  18.312 125.989 -0.26 -0.00    +0.000 A 
DOCKED: ATOM     27  C   UNL     1      35.280  19.544 126.355 -0.15 -0.00    +0.000 A 
DOCKED: ATOM     28  C   UNL     1      34.729  20.199 127.472 -0.09 -0.00    +0.000 A 
DOCKED: ATOM     29  C   UNL     1      33.659  19.617 128.186 -0.09 -0.00    +0.000 A 
DOCKED: ATOM     30  C   UNL     1      33.128  18.375 127.789 -0.21 -0.00    +0.000 A 
DOCKED: ATOM     31  C   UNL     1      34.071  15.204 124.166 -0.55 -0.00    +0.000 C 
DOCKED: ATOM     32  H   UNL     1      32.606  15.979 126.437 -0.27 -0.00    +0.000 HD
DOCKED: ATOM     33  CM  UNL     1      34.161  17.274 125.775 -0.19 -0.00    +0.000 AC
DOCKED: ATOM     34  CM  UNL     1      34.204  18.965 127.079 -0.00 -0.00    +0.000 AC
DOCKED: ENDBRANCH  20  21
DOCKED: ENDBRANCH  19  20
DOCKED: ENDBRANCH   1  19
DOCKED: TORSDOF 8DOCKED: TER
DOCKED: ENDMDL
________________________________________________________________________________


	BEGINNING GENETIC ALGORITHM DOCKING 57 of 100
Run: 57 Seed: 475608150 981822912 [ Run 57 of 100 GA/GALS ]
Beginning LAMARCKIAN GENETIC ALGORITHM (LGA), with a maximum of 2500000 energy evaluations.

Final-Value: -14.403


	FINAL GENETIC ALGORITHM DOCKED STATE
	_______________________________________________


Detailed state:  trans 39.050 15.844 121.980 quatxyzw -0.277842 -0.775558 -0.346853 -0.448338 center 0.698 0.076 -0.072 ntor 8 -21.3455 32.4325 36.8946 -151.3819 46.5003 -166.4070 86.1561 -67.6812
State:	 39.050  15.844 121.980  -0.311 -0.868 -0.388 -126.726    -21.35   32.43   36.89 -151.38   46.50 -166.41   86.16  -67.68

DOCKED: MODEL       57
DOCKED: USER    Run = 57
DOCKED: USER    DPF = ligand_dock.biased.dpf
DOCKED: USER  
DOCKED: USER    Estimated Free Energy of Binding    =  -10.12 kcal/mol  [=(1)+(2)+(3)-(4)]
DOCKED: USER    Estimated Inhibition Constant, Ki   =   38.49 nM (nanomolar)  [Temperature = 298.15 K]
DOCKED: USER    
DOCKED: USER    (1) Final Intermolecular Energy     =  -12.50 kcal/mol
DOCKED: USER        vdW + Hbond + desolv Energy     =  -12.50 kcal/mol
DOCKED: USER        Electrostatic Energy            =   +0.00 kcal/mol
DOCKED: USER    (2) Final Total Internal Energy     =   -1.90 kcal/mol
DOCKED: USER    (3) Torsional Free Energy           =   +2.39 kcal/mol
DOCKED: USER    (4) Unbound System's Energy  [=(2)] =   -1.90 kcal/mol
DOCKED: USER    
DOCKED: USER    
DOCKED: USER    NEWDPF move ligand.dum.pdbqt
DOCKED: USER    NEWDPF about 0.698000 0.076000 -0.072000
DOCKED: USER    NEWDPF tran0 39.050160 15.844490 121.979944
DOCKED: USER    NEWDPF quaternion0 -0.277842 -0.775558 -0.346853 -0.448338
DOCKED: USER    NEWDPF axisangle0 -0.310832 -0.867646 -0.388038 -126.725789
DOCKED: USER    NEWDPF quat0 -0.310832 -0.867646 -0.388038 -126.725789
DOCKED: USER    NEWDPF dihe0 -21.35 32.43 36.89 -151.38 46.50 -166.41 86.16 -67.68 
DOCKED: USER  keepresnum = 1 
DOCKED: USER  
DOCKED: REMARK  Name = 
DOCKED: REMARK  9 active torsions:
DOCKED: REMARK  status: ('A' for Active; 'I' for Inactive)
DOCKED: REMARK    1  A    between atoms: C_2  and  C_3
DOCKED: REMARK    2  A    between atoms: C_4  and  C_5
DOCKED: REMARK    3  A    between atoms: C_8  and  C_9
DOCKED: REMARK    4  A    between atoms: C_9  and  N_10
DOCKED: REMARK    5  A    between atoms: N_10  and  C_11
DOCKED: REMARK    6  A    between atoms: C_11  and  C_12
DOCKED: REMARK    7  A    between atoms: C_12  and  C_13
DOCKED: REMARK    8  A    between atoms: C_14  and  C_22
DOCKED: REMARK    9  A    between atoms: N_25  and  O_26
DOCKED: REMARK                            x       y       z     vdW  Elec       q    Type
DOCKED: REMARK                         _______ _______ _______ _____ _____    ______ ____
DOCKED: USER                              x       y       z     vdW  Elec       q    Type
DOCKED: USER                           _______ _______ _______ _____ _____    ______ ____
DOCKED: ROOT
DOCKED: ATOM      1  N   UNL     1      40.032  15.894 121.349 -0.22 -0.00    +0.000 N 
DOCKED: ATOM      2  H   UNL     1      40.341  14.990 121.707 -0.01 -0.00    +0.000 HD
DOCKED: ATOM      3  H   UNL     1      40.293  16.652 121.979 +0.00 -0.00    +0.000 HD
DOCKED: ENDROOT
DOCKED: BRANCH   1   4
DOCKED: ATOM      4  C   UNL     1      38.567  15.883 121.239 -0.22 -0.00    +0.000 C 
DOCKED: BRANCH   4   8
DOCKED: ATOM      5  C   UNL     1      36.960  12.108 122.609 -0.55 -0.00    +0.000 A 
DOCKED: ATOM      6  C   UNL     1      37.435  12.249 121.290 -0.46 -0.00    +0.000 A 
DOCKED: ATOM      7  C   UNL     1      37.959  13.469 120.852 -0.39 -0.00    +0.000 A 
DOCKED: ATOM      8  C   UNL     1      38.039  14.563 121.726 -0.34 -0.00    +0.000 A 
DOCKED: ATOM      9  C   UNL     1      37.570  14.427 123.041 -0.42 -0.00    +0.000 A 
DOCKED: ATOM     10  C   UNL     1      37.047  13.207 123.480 -0.51 -0.00    +0.000 A 
DOCKED: ATOM     11  CM  UNL     1      37.501  13.337 122.166 +0.00 -0.00    +0.000 AC
DOCKED: BRANCH   5  12
DOCKED: ATOM     12  C   UNL     1      36.552   9.651 122.510 -0.71 -0.00    +0.000 C 
DOCKED: ATOM     13  C   UNL     1      36.406  10.833 123.128 -0.70 -0.00    +0.000 C 
DOCKED: BRANCH  11  14
DOCKED: ATOM     14  O   UNL     1      36.751   7.378 123.088 -2.06 -0.00    +0.000 OA
DOCKED: ATOM     15  C   UNL     1      35.996   8.384 123.030 -0.74 -0.00    +0.000 C 
DOCKED: ATOM     16  N   UNL     1      34.629   8.258 123.444 -0.62 -0.00    +0.000 N 
DOCKED: ATOM     17  H   UNL     1      34.005   9.008 123.313 -0.43 -0.00    +0.000 HD
DOCKED: BRANCH  15  17
DOCKED: ATOM     18  O   UNL     1      34.193   7.108 124.012 -0.79 -0.00    +0.000 OA
DOCKED: ATOM     19  H   UNL     1      34.790   6.382 123.771 -0.05 -0.00    +0.000 HD
DOCKED: ENDBRANCH  15  17
DOCKED: ENDBRANCH  11  14
DOCKED: ENDBRANCH   5  12
DOCKED: ENDBRANCH   4   8
DOCKED: ENDBRANCH   1   4
DOCKED: BRANCH   1  19
DOCKED: ATOM     20  C   UNL     1      40.685  16.138 120.053 -0.17 -0.00    +0.000 C 
DOCKED: BRANCH  19  20
DOCKED: ATOM     21  C   UNL     1      39.683  16.542 118.959 -0.12 -0.00    +0.000 C 
DOCKED: BRANCH  20  21
DOCKED: ATOM     22  C   UNL     1      39.883  15.699 117.732 -0.12 -0.00    +0.000 A 
DOCKED: ATOM     23  C   UNL     1      41.038  15.586 116.956 -0.23 -0.00    +0.000 A 
DOCKED: ATOM     24  N   UNL     1      40.820  14.783 115.888 -0.36 -0.00    +0.000 N 
DOCKED: ATOM     25  C   UNL     1      39.533  14.405 115.969 -0.31 -0.00    +0.000 A 
DOCKED: ATOM     26  C   UNL     1      38.927  14.948 117.074 -0.17 -0.00    +0.000 A 
DOCKED: ATOM     27  C   UNL     1      37.580  14.721 117.359 -0.24 -0.00    +0.000 A 
DOCKED: ATOM     28  C   UNL     1      36.851  13.902 116.477 -0.32 -0.00    +0.000 A 
DOCKED: ATOM     29  C   UNL     1      37.476  13.340 115.342 -0.39 -0.00    +0.000 A 
DOCKED: ATOM     30  C   UNL     1      38.835  13.592 115.078 -0.39 -0.00    +0.000 A 
DOCKED: ATOM     31  C   UNL     1      42.356  16.227 117.254 -0.23 -0.00    +0.000 C 
DOCKED: ATOM     32  H   UNL     1      41.472  14.528 115.195 -0.25 -0.00    +0.000 HD
DOCKED: ATOM     33  CM  UNL     1      40.065  15.075 116.698 +0.00 -0.00    +0.000 AC
DOCKED: ATOM     34  CM  UNL     1      38.200  14.151 116.216 +0.00 -0.00    +0.000 AC
DOCKED: ENDBRANCH  20  21
DOCKED: ENDBRANCH  19  20
DOCKED: ENDBRANCH   1  19
DOCKED: TORSDOF 8DOCKED: TER
DOCKED: ENDMDL
________________________________________________________________________________


	BEGINNING GENETIC ALGORITHM DOCKING 58 of 100
Run: 58 Seed: 1217748151 497773887 [ Run 58 of 100 GA/GALS ]
Beginning LAMARCKIAN GENETIC ALGORITHM (LGA), with a maximum of 2500000 energy evaluations.

Final-Value: -15.999


	FINAL GENETIC ALGORITHM DOCKED STATE
	_______________________________________________


Detailed state:  trans 35.918 17.099 124.767 quatxyzw -0.868533 0.312832 0.167833 0.345859 center 0.698 0.076 -0.072 ntor 8 -4.5077 67.0400 -148.1371 -179.1768 124.4262 163.7713 -77.1303 41.8852
State:	 35.918  17.099 124.767  -0.926  0.333  0.179 139.532     -4.51   67.04 -148.14 -179.18  124.43  163.77  -77.13   41.89

DOCKED: MODEL       58
DOCKED: USER    Run = 58
DOCKED: USER    DPF = ligand_dock.biased.dpf
DOCKED: USER  
DOCKED: USER    Estimated Free Energy of Binding    =  -11.78 kcal/mol  [=(1)+(2)+(3)-(4)]
DOCKED: USER    Estimated Inhibition Constant, Ki   =    2.32 nM (nanomolar)  [Temperature = 298.15 K]
DOCKED: USER    
DOCKED: USER    (1) Final Intermolecular Energy     =  -14.17 kcal/mol
DOCKED: USER        vdW + Hbond + desolv Energy     =  -14.17 kcal/mol
DOCKED: USER        Electrostatic Energy            =   +0.00 kcal/mol
DOCKED: USER    (2) Final Total Internal Energy     =   -1.83 kcal/mol
DOCKED: USER    (3) Torsional Free Energy           =   +2.39 kcal/mol
DOCKED: USER    (4) Unbound System's Energy  [=(2)] =   -1.83 kcal/mol
DOCKED: USER    
DOCKED: USER    
DOCKED: USER    NEWDPF move ligand.dum.pdbqt
DOCKED: USER    NEWDPF about 0.698000 0.076000 -0.072000
DOCKED: USER    NEWDPF tran0 35.918457 17.099216 124.766940
DOCKED: USER    NEWDPF quaternion0 -0.868533 0.312832 0.167833 0.345859
DOCKED: USER    NEWDPF axisangle0 -0.925659 0.333407 0.178872 139.531554
DOCKED: USER    NEWDPF quat0 -0.925659 0.333407 0.178872 139.531554
DOCKED: USER    NEWDPF dihe0 -4.51 67.04 -148.14 -179.18 124.43 163.77 -77.13 41.89 
DOCKED: USER  keepresnum = 1 
DOCKED: USER  
DOCKED: REMARK  Name = 
DOCKED: REMARK  9 active torsions:
DOCKED: REMARK  status: ('A' for Active; 'I' for Inactive)
DOCKED: REMARK    1  A    between atoms: C_2  and  C_3
DOCKED: REMARK    2  A    between atoms: C_4  and  C_5
DOCKED: REMARK    3  A    between atoms: C_8  and  C_9
DOCKED: REMARK    4  A    between atoms: C_9  and  N_10
DOCKED: REMARK    5  A    between atoms: N_10  and  C_11
DOCKED: REMARK    6  A    between atoms: C_11  and  C_12
DOCKED: REMARK    7  A    between atoms: C_12  and  C_13
DOCKED: REMARK    8  A    between atoms: C_14  and  C_22
DOCKED: REMARK    9  A    between atoms: N_25  and  O_26
DOCKED: REMARK                            x       y       z     vdW  Elec       q    Type
DOCKED: REMARK                         _______ _______ _______ _____ _____    ______ ____
DOCKED: USER                              x       y       z     vdW  Elec       q    Type
DOCKED: USER                           _______ _______ _______ _____ _____    ______ ____
DOCKED: ROOT
DOCKED: ATOM      1  N   UNL     1      35.048  17.540 125.409 -0.31 -0.00    +0.000 N 
DOCKED: ATOM      2  H   UNL     1      35.700  18.106 125.954 -0.01 -0.00    +0.000 HD
DOCKED: ATOM      3  H   UNL     1      34.970  16.597 125.789 -0.02 -0.00    +0.000 HD
DOCKED: ENDROOT
DOCKED: BRANCH   1   4
DOCKED: ATOM      4  C   UNL     1      35.551  17.432 124.033 -0.34 -0.00    +0.000 C 
DOCKED: BRANCH   4   8
DOCKED: ATOM      5  C   UNL     1      36.809  13.381 123.185 -0.52 -0.00    +0.000 A 
DOCKED: ATOM      6  C   UNL     1      37.749  14.430 123.227 -0.37 -0.00    +0.000 A 
DOCKED: ATOM      7  C   UNL     1      37.340  15.737 123.507 -0.28 -0.00    +0.000 A 
DOCKED: ATOM      8  C   UNL     1      35.991  16.019 123.771 -0.37 -0.00    +0.000 A 
DOCKED: ATOM      9  C   UNL     1      35.052  14.978 123.734 -0.47 -0.00    +0.000 A 
DOCKED: ATOM     10  C   UNL     1      35.461  13.670 123.456 -0.32 -0.00    +0.000 A 
DOCKED: ATOM     11  CM  UNL     1      36.400  14.702 123.480 +0.00 -0.00    +0.000 AC
DOCKED: BRANCH   5  12
DOCKED: ATOM     12  C   UNL     1      36.303  10.992 122.686 -0.69 -0.00    +0.000 C 
DOCKED: ATOM     13  C   UNL     1      37.190  11.974 122.905 -0.59 -0.00    +0.000 C 
DOCKED: BRANCH  11  14
DOCKED: ATOM     14  O   UNL     1      36.739   9.210 121.212 -2.64 -0.00    +0.000 OA
DOCKED: ATOM     15  C   UNL     1      36.687   9.592 122.410 -0.71 -0.00    +0.000 C 
DOCKED: ATOM     16  N   UNL     1      36.976   8.654 123.457 -0.64 -0.00    +0.000 N 
DOCKED: ATOM     17  H   UNL     1      36.845   8.913 124.397 -0.42 -0.00    +0.000 HD
DOCKED: BRANCH  15  17
DOCKED: ATOM     18  O   UNL     1      37.426   7.413 123.153 -1.99 -0.00    +0.000 OA
DOCKED: ATOM     19  H   UNL     1      37.431   7.297 122.190 -0.15 -0.00    +0.000 HD
DOCKED: ENDBRANCH  15  17
DOCKED: ENDBRANCH  11  14
DOCKED: ENDBRANCH   5  12
DOCKED: ENDBRANCH   4   8
DOCKED: ENDBRANCH   1   4
DOCKED: BRANCH   1  19
DOCKED: ATOM     20  C   UNL     1      33.717  18.163 125.467 -0.38 -0.00    +0.000 C 
DOCKED: BRANCH  19  20
DOCKED: ATOM     21  C   UNL     1      33.449  18.851 126.816 -0.27 -0.00    +0.000 C 
DOCKED: BRANCH  20  21
DOCKED: ATOM     22  C   UNL     1      33.728  17.904 127.948 -0.23 -0.00    +0.000 A 
DOCKED: ATOM     23  C   UNL     1      32.849  16.986 128.526 -0.34 -0.00    +0.000 A 
DOCKED: ATOM     24  N   UNL     1      33.435  16.354 129.569 -0.27 -0.00    +0.000 N 
DOCKED: ATOM     25  C   UNL     1      34.667  16.879 129.672 -0.16 -0.00    +0.000 A 
DOCKED: ATOM     26  C   UNL     1      34.881  17.832 128.707 -0.11 -0.00    +0.000 A 
DOCKED: ATOM     27  C   UNL     1      36.081  18.539 128.626 -0.10 -0.00    +0.000 A 
DOCKED: ATOM     28  C   UNL     1      37.084  18.241 129.566 -0.14 -0.00    +0.000 A 
DOCKED: ATOM     29  C   UNL     1      36.866  17.257 130.557 -0.18 -0.00    +0.000 A 
DOCKED: ATOM     30  C   UNL     1      35.643  16.564 130.617 -0.20 -0.00    +0.000 A 
DOCKED: ATOM     31  C   UNL     1      31.458  16.696 128.059 -0.40 -0.00    +0.000 C 
DOCKED: ATOM     32  H   UNL     1      33.039  15.652 130.136 -0.54 -0.00    +0.000 HD
DOCKED: ATOM     33  CM  UNL     1      33.896  17.164 128.906 +0.00 -0.00    +0.000 AC
DOCKED: ATOM     34  CM  UNL     1      35.870  17.552 129.624 +0.00 -0.00    +0.000 AC
DOCKED: ENDBRANCH  20  21
DOCKED: ENDBRANCH  19  20
DOCKED: ENDBRANCH   1  19
DOCKED: TORSDOF 8DOCKED: TER
DOCKED: ENDMDL
________________________________________________________________________________


	BEGINNING GENETIC ALGORITHM DOCKING 59 of 100
Run: 59 Seed: 1417261515 206193423 [ Run 59 of 100 GA/GALS ]
Beginning LAMARCKIAN GENETIC ALGORITHM (LGA), with a maximum of 2500000 energy evaluations.

Final-Value: -15.897


	FINAL GENETIC ALGORITHM DOCKED STATE
	_______________________________________________


Detailed state:  trans 37.660 18.467 122.484 quatxyzw -0.354362 0.048673 -0.370893 0.857028 center 0.698 0.076 -0.072 ntor 8 -21.2926 158.3212 19.2818 -146.3657 82.5445 -179.9972 -139.5179 178.0235
State:	 37.660  18.467 122.484  -0.688  0.094 -0.720 62.031    -21.29  158.32   19.28 -146.37   82.54 -180.00 -139.52  178.02

DOCKED: MODEL       59
DOCKED: USER    Run = 59
DOCKED: USER    DPF = ligand_dock.biased.dpf
DOCKED: USER  
DOCKED: USER    Estimated Free Energy of Binding    =  -11.55 kcal/mol  [=(1)+(2)+(3)-(4)]
DOCKED: USER    Estimated Inhibition Constant, Ki   =    3.43 nM (nanomolar)  [Temperature = 298.15 K]
DOCKED: USER    
DOCKED: USER    (1) Final Intermolecular Energy     =  -13.93 kcal/mol
DOCKED: USER        vdW + Hbond + desolv Energy     =  -13.93 kcal/mol
DOCKED: USER        Electrostatic Energy            =   +0.00 kcal/mol
DOCKED: USER    (2) Final Total Internal Energy     =   -1.96 kcal/mol
DOCKED: USER    (3) Torsional Free Energy           =   +2.39 kcal/mol
DOCKED: USER    (4) Unbound System's Energy  [=(2)] =   -1.96 kcal/mol
DOCKED: USER    
DOCKED: USER    
DOCKED: USER    NEWDPF move ligand.dum.pdbqt
DOCKED: USER    NEWDPF about 0.698000 0.076000 -0.072000
DOCKED: USER    NEWDPF tran0 37.660344 18.467149 122.483508
DOCKED: USER    NEWDPF quaternion0 -0.354362 0.048673 -0.370893 0.857028
DOCKED: USER    NEWDPF axisangle0 -0.687721 0.094461 -0.719804 62.030997
DOCKED: USER    NEWDPF quat0 -0.687721 0.094461 -0.719804 62.030997
DOCKED: USER    NEWDPF dihe0 -21.29 158.32 19.28 -146.37 82.54 -180.00 -139.52 178.02 
DOCKED: USER  keepresnum = 1 
DOCKED: USER  
DOCKED: REMARK  Name = 
DOCKED: REMARK  9 active torsions:
DOCKED: REMARK  status: ('A' for Active; 'I' for Inactive)
DOCKED: REMARK    1  A    between atoms: C_2  and  C_3
DOCKED: REMARK    2  A    between atoms: C_4  and  C_5
DOCKED: REMARK    3  A    between atoms: C_8  and  C_9
DOCKED: REMARK    4  A    between atoms: C_9  and  N_10
DOCKED: REMARK    5  A    between atoms: N_10  and  C_11
DOCKED: REMARK    6  A    between atoms: C_11  and  C_12
DOCKED: REMARK    7  A    between atoms: C_12  and  C_13
DOCKED: REMARK    8  A    between atoms: C_14  and  C_22
DOCKED: REMARK    9  A    between atoms: N_25  and  O_26
DOCKED: REMARK                            x       y       z     vdW  Elec       q    Type
DOCKED: REMARK                         _______ _______ _______ _____ _____    ______ ____
DOCKED: USER                              x       y       z     vdW  Elec       q    Type
DOCKED: USER                           _______ _______ _______ _____ _____    ______ ____
DOCKED: ROOT
DOCKED: ATOM      1  N   UNL     1      36.520  18.292 122.299 -0.16 -0.00    +0.000 N 
DOCKED: ATOM      2  H   UNL     1      36.538  18.875 121.462 +0.00 -0.00    +0.000 HD
DOCKED: ATOM      3  H   UNL     1      36.390  18.854 123.140 +0.00 -0.00    +0.000 HD
DOCKED: ENDROOT
DOCKED: BRANCH   1   4
DOCKED: ATOM      4  C   UNL     1      37.809  17.597 122.418 -0.16 -0.00    +0.000 C 
DOCKED: BRANCH   4   8
DOCKED: ATOM      5  C   UNL     1      37.307  13.339 121.845 -0.43 -0.00    +0.000 A 
DOCKED: ATOM      6  C   UNL     1      37.362  13.886 123.142 -0.46 -0.00    +0.000 A 
DOCKED: ATOM      7  C   UNL     1      37.518  15.264 123.324 -0.32 -0.00    +0.000 A 
DOCKED: ATOM      8  C   UNL     1      37.602  16.122 122.217 -0.22 -0.00    +0.000 A 
DOCKED: ATOM      9  C   UNL     1      37.544  15.582 120.924 -0.20 -0.00    +0.000 A 
DOCKED: ATOM     10  C   UNL     1      37.386  14.205 120.741 -0.31 -0.00    +0.000 A 
DOCKED: ATOM     11  CM  UNL     1      37.453  14.733 122.032 +0.00 -0.00    +0.000 AC
DOCKED: BRANCH   5  12
DOCKED: ATOM     12  C   UNL     1      37.073  10.966 122.569 -0.58 -0.00    +0.000 C 
DOCKED: ATOM     13  C   UNL     1      37.129  11.887 121.595 -0.55 -0.00    +0.000 C 
DOCKED: BRANCH  11  14
DOCKED: ATOM     14  O   UNL     1      36.690   9.140 121.134 -2.62 -0.00    +0.000 OA
DOCKED: ATOM     15  C   UNL     1      36.899   9.520 122.316 -0.66 -0.00    +0.000 C 
DOCKED: ATOM     16  N   UNL     1      36.933   8.546 123.369 -0.67 -0.00    +0.000 N 
DOCKED: ATOM     17  H   UNL     1      36.998   8.839 124.306 -0.51 -0.00    +0.000 HD
DOCKED: BRANCH  15  17
DOCKED: ATOM     18  O   UNL     1      36.874   7.225 123.075 -1.98 -0.00    +0.000 OA
DOCKED: ATOM     19  H   UNL     1      36.485   7.106 122.195 -0.05 -0.00    +0.000 HD
DOCKED: ENDBRANCH  15  17
DOCKED: ENDBRANCH  11  14
DOCKED: ENDBRANCH   5  12
DOCKED: ENDBRANCH   4   8
DOCKED: ENDBRANCH   1   4
DOCKED: BRANCH   1  19
DOCKED: ATOM     20  C   UNL     1      35.390  17.356 122.201 -0.31 -0.00    +0.000 C 
DOCKED: BRANCH  19  20
DOCKED: ATOM     21  C   UNL     1      34.139  17.867 122.936 -0.35 -0.00    +0.000 C 
DOCKED: BRANCH  20  21
DOCKED: ATOM     22  C   UNL     1      34.101  17.328 124.337 -0.38 -0.00    +0.000 A 
DOCKED: ATOM     23  C   UNL     1      34.165  15.991 124.737 -0.48 -0.00    +0.000 A 
DOCKED: ATOM     24  N   UNL     1      34.033  15.887 126.080 -0.42 -0.00    +0.000 N 
DOCKED: ATOM     25  C   UNL     1      33.862  17.141 126.531 -0.35 -0.00    +0.000 A 
DOCKED: ATOM     26  C   UNL     1      33.891  18.046 125.499 -0.33 -0.00    +0.000 A 
DOCKED: ATOM     27  C   UNL     1      33.709  19.413 125.716 -0.20 -0.00    +0.000 A 
DOCKED: ATOM     28  C   UNL     1      33.502  19.846 127.038 -0.17 -0.00    +0.000 A 
DOCKED: ATOM     29  C   UNL     1      33.478  18.916 128.101 -0.14 -0.00    +0.000 A 
DOCKED: ATOM     30  C   UNL     1      33.658  17.543 127.851 -0.28 -0.00    +0.000 A 
DOCKED: ATOM     31  C   UNL     1      34.381  14.819 123.833 -0.47 -0.00    +0.000 C 
DOCKED: ATOM     32  H   UNL     1      34.057  15.061 126.615 -0.04 -0.00    +0.000 HD
DOCKED: ATOM     33  CM  UNL     1      34.011  16.847 125.457 -0.14 -0.00    +0.000 AC
DOCKED: ATOM     34  CM  UNL     1      33.683  18.484 126.790 -0.02 -0.00    +0.000 AC
DOCKED: ENDBRANCH  20  21
DOCKED: ENDBRANCH  19  20
DOCKED: ENDBRANCH   1  19
DOCKED: TORSDOF 8DOCKED: TER
DOCKED: ENDMDL
________________________________________________________________________________


	BEGINNING GENETIC ALGORITHM DOCKING 60 of 100
Run: 60 Seed: 2029231982 1464398028 [ Run 60 of 100 GA/GALS ]
Beginning LAMARCKIAN GENETIC ALGORITHM (LGA), with a maximum of 2500000 energy evaluations.

Final-Value: -15.435


	FINAL GENETIC ALGORITHM DOCKED STATE
	_______________________________________________


Detailed state:  trans 36.643 16.891 123.968 quatxyzw -0.563440 0.595225 0.461173 0.339944 center 0.698 0.076 -0.072 ntor 8 3.8278 -78.9648 -146.8127 16.6993 -85.0353 -17.5277 124.4908 4.7526
State:	 36.643  16.891 123.968  -0.599  0.633  0.490 140.253      3.83  -78.96 -146.81   16.70  -85.04  -17.53  124.49    4.75

DOCKED: MODEL       60
DOCKED: USER    Run = 60
DOCKED: USER    DPF = ligand_dock.biased.dpf
DOCKED: USER  
DOCKED: USER    Estimated Free Energy of Binding    =  -11.10 kcal/mol  [=(1)+(2)+(3)-(4)]
DOCKED: USER    Estimated Inhibition Constant, Ki   =    7.36 nM (nanomolar)  [Temperature = 298.15 K]
DOCKED: USER    
DOCKED: USER    (1) Final Intermolecular Energy     =  -13.48 kcal/mol
DOCKED: USER        vdW + Hbond + desolv Energy     =  -13.48 kcal/mol
DOCKED: USER        Electrostatic Energy            =   +0.00 kcal/mol
DOCKED: USER    (2) Final Total Internal Energy     =   -1.95 kcal/mol
DOCKED: USER    (3) Torsional Free Energy           =   +2.39 kcal/mol
DOCKED: USER    (4) Unbound System's Energy  [=(2)] =   -1.95 kcal/mol
DOCKED: USER    
DOCKED: USER    
DOCKED: USER    NEWDPF move ligand.dum.pdbqt
DOCKED: USER    NEWDPF about 0.698000 0.076000 -0.072000
DOCKED: USER    NEWDPF tran0 36.642887 16.891461 123.968278
DOCKED: USER    NEWDPF quaternion0 -0.563440 0.595225 0.461173 0.339944
DOCKED: USER    NEWDPF axisangle0 -0.599120 0.632918 0.490377 140.253093
DOCKED: USER    NEWDPF quat0 -0.599120 0.632918 0.490377 140.253093
DOCKED: USER    NEWDPF dihe0 3.83 -78.96 -146.81 16.70 -85.04 -17.53 124.49 4.75 
DOCKED: USER  keepresnum = 1 
DOCKED: USER  
DOCKED: REMARK  Name = 
DOCKED: REMARK  9 active torsions:
DOCKED: REMARK  status: ('A' for Active; 'I' for Inactive)
DOCKED: REMARK    1  A    between atoms: C_2  and  C_3
DOCKED: REMARK    2  A    between atoms: C_4  and  C_5
DOCKED: REMARK    3  A    between atoms: C_8  and  C_9
DOCKED: REMARK    4  A    between atoms: C_9  and  N_10
DOCKED: REMARK    5  A    between atoms: N_10  and  C_11
DOCKED: REMARK    6  A    between atoms: C_11  and  C_12
DOCKED: REMARK    7  A    between atoms: C_12  and  C_13
DOCKED: REMARK    8  A    between atoms: C_14  and  C_22
DOCKED: REMARK    9  A    between atoms: N_25  and  O_26
DOCKED: REMARK                            x       y       z     vdW  Elec       q    Type
DOCKED: REMARK                         _______ _______ _______ _____ _____    ______ ____
DOCKED: USER                              x       y       z     vdW  Elec       q    Type
DOCKED: USER                           _______ _______ _______ _____ _____    ______ ____
DOCKED: ROOT
DOCKED: ATOM      1  N   UNL     1      36.781  17.793 124.698 -0.21 -0.00    +0.000 N 
DOCKED: ATOM      2  H   UNL     1      37.768  17.569 124.832 -0.02 -0.00    +0.000 HD
DOCKED: ATOM      3  H   UNL     1      36.190  17.256 125.331 -0.02 -0.00    +0.000 HD
DOCKED: ENDROOT
DOCKED: BRANCH   1   4
DOCKED: ATOM      4  C   UNL     1      36.400  17.446 123.322 -0.26 -0.00    +0.000 C 
DOCKED: BRANCH   4   8
DOCKED: ATOM      5  C   UNL     1      36.159  13.137 123.028 -0.47 -0.00    +0.000 A 
DOCKED: ATOM      6  C   UNL     1      35.266  13.851 123.852 -0.26 -0.00    +0.000 A 
DOCKED: ATOM      7  C   UNL     1      35.343  15.244 123.940 -0.48 -0.00    +0.000 A 
DOCKED: ATOM      8  C   UNL     1      36.297  15.952 123.194 -0.34 -0.00    +0.000 A 
DOCKED: ATOM      9  C   UNL     1      37.187  15.246 122.370 -0.31 -0.00    +0.000 A 
DOCKED: ATOM     10  C   UNL     1      37.109  13.853 122.280 -0.42 -0.00    +0.000 A 
DOCKED: ATOM     11  CM  UNL     1      36.227  14.547 123.111 +0.00 -0.00    +0.000 AC
DOCKED: BRANCH   5  12
DOCKED: ATOM     12  C   UNL     1      37.068  10.940 122.279 -0.56 -0.00    +0.000 C 
DOCKED: ATOM     13  C   UNL     1      36.114  11.660 122.888 -0.67 -0.00    +0.000 C 
DOCKED: BRANCH  11  14
DOCKED: ATOM     14  O   UNL     1      36.963   8.979 120.981 -2.69 -0.00    +0.000 OA
DOCKED: ATOM     15  C   UNL     1      37.017   9.470 122.139 -0.63 -0.00    +0.000 C 
DOCKED: ATOM     16  N   UNL     1      37.000   8.591 123.273 -0.68 -0.00    +0.000 N 
DOCKED: ATOM     17  H   UNL     1      36.943   8.964 124.182 -0.51 -0.00    +0.000 HD
DOCKED: BRANCH  15  17
DOCKED: ATOM     18  O   UNL     1      37.060   7.250 123.095 -2.07 -0.00    +0.000 OA
DOCKED: ATOM     19  H   UNL     1      37.172   7.053 122.152 -0.14 -0.00    +0.000 HD
DOCKED: ENDBRANCH  15  17
DOCKED: ENDBRANCH  11  14
DOCKED: ENDBRANCH   5  12
DOCKED: ENDBRANCH   4   8
DOCKED: ENDBRANCH   1   4
DOCKED: BRANCH   1  19
DOCKED: ATOM     20  C   UNL     1      36.576  19.221 124.988 -0.18 -0.00    +0.000 C 
DOCKED: BRANCH  19  20
DOCKED: ATOM     21  C   UNL     1      35.194  19.719 124.532 -0.16 -0.00    +0.000 C 
DOCKED: BRANCH  20  21
DOCKED: ATOM     22  C   UNL     1      34.244  19.758 125.694 -0.19 -0.00    +0.000 A 
DOCKED: ATOM     23  C   UNL     1      33.742  20.886 126.345 -0.16 -0.00    +0.000 A 
DOCKED: ATOM     24  N   UNL     1      32.964  20.527 127.393 -0.14 -0.00    +0.000 N 
DOCKED: ATOM     25  C   UNL     1      32.988  19.184 127.425 -0.19 -0.00    +0.000 A 
DOCKED: ATOM     26  C   UNL     1      33.762  18.679 126.411 -0.26 -0.00    +0.000 A 
DOCKED: ATOM     27  C   UNL     1      33.962  17.307 126.253 -0.35 -0.00    +0.000 A 
DOCKED: ATOM     28  C   UNL     1      33.333  16.442 127.167 -0.38 -0.00    +0.000 A 
DOCKED: ATOM     29  C   UNL     1      32.532  16.962 128.208 -0.37 -0.00    +0.000 A 
DOCKED: ATOM     30  C   UNL     1      32.354  18.350 128.346 -0.20 -0.00    +0.000 A 
DOCKED: ATOM     31  C   UNL     1      33.986  22.306 125.945 -0.17 -0.00    +0.000 C 
DOCKED: ATOM     32  H   UNL     1      32.480  21.128 128.006 +0.00 -0.00    +0.000 HD
DOCKED: ATOM     33  CM  UNL     1      33.522  19.830 126.677 +0.00 -0.00    +0.000 AC
DOCKED: ATOM     34  CM  UNL     1      33.155  17.821 127.302 +0.00 -0.00    +0.000 AC
DOCKED: ENDBRANCH  20  21
DOCKED: ENDBRANCH  19  20
DOCKED: ENDBRANCH   1  19
DOCKED: TORSDOF 8DOCKED: TER
DOCKED: ENDMDL
________________________________________________________________________________


	BEGINNING GENETIC ALGORITHM DOCKING 61 of 100
Run: 61 Seed: 345026371 811468222 [ Run 61 of 100 GA/GALS ]
Beginning LAMARCKIAN GENETIC ALGORITHM (LGA), with a maximum of 2500000 energy evaluations.

Final-Value: -15.893


	FINAL GENETIC ALGORITHM DOCKED STATE
	_______________________________________________


Detailed state:  trans 37.580 18.211 119.820 quatxyzw 0.302177 0.386071 0.239875 -0.837913 center 0.698 0.076 -0.072 ntor 8 17.1110 132.4966 76.5323 -40.2705 -20.0790 -172.5428 -180.0000 -169.6086
State:	 37.580  18.211 119.820   0.554  0.707  0.439 -66.159     17.11  132.50   76.53  -40.27  -20.08 -172.54 -180.00 -169.61

DOCKED: MODEL       61
DOCKED: USER    Run = 61
DOCKED: USER    DPF = ligand_dock.biased.dpf
DOCKED: USER  
DOCKED: USER    Estimated Free Energy of Binding    =  -11.68 kcal/mol  [=(1)+(2)+(3)-(4)]
DOCKED: USER    Estimated Inhibition Constant, Ki   =    2.76 nM (nanomolar)  [Temperature = 298.15 K]
DOCKED: USER    
DOCKED: USER    (1) Final Intermolecular Energy     =  -14.06 kcal/mol
DOCKED: USER        vdW + Hbond + desolv Energy     =  -14.06 kcal/mol
DOCKED: USER        Electrostatic Energy            =   +0.00 kcal/mol
DOCKED: USER    (2) Final Total Internal Energy     =   -1.83 kcal/mol
DOCKED: USER    (3) Torsional Free Energy           =   +2.39 kcal/mol
DOCKED: USER    (4) Unbound System's Energy  [=(2)] =   -1.83 kcal/mol
DOCKED: USER    
DOCKED: USER    
DOCKED: USER    NEWDPF move ligand.dum.pdbqt
DOCKED: USER    NEWDPF about 0.698000 0.076000 -0.072000
DOCKED: USER    NEWDPF tran0 37.580069 18.211426 119.819990
DOCKED: USER    NEWDPF quaternion0 0.302177 0.386071 0.239875 -0.837913
DOCKED: USER    NEWDPF axisangle0 0.553636 0.707344 0.439490 -66.159232
DOCKED: USER    NEWDPF quat0 0.553636 0.707344 0.439490 -66.159232
DOCKED: USER    NEWDPF dihe0 17.11 132.50 76.53 -40.27 -20.08 -172.54 -180.00 -169.61 
DOCKED: USER  keepresnum = 1 
DOCKED: USER  
DOCKED: REMARK  Name = 
DOCKED: REMARK  9 active torsions:
DOCKED: REMARK  status: ('A' for Active; 'I' for Inactive)
DOCKED: REMARK    1  A    between atoms: C_2  and  C_3
DOCKED: REMARK    2  A    between atoms: C_4  and  C_5
DOCKED: REMARK    3  A    between atoms: C_8  and  C_9
DOCKED: REMARK    4  A    between atoms: C_9  and  N_10
DOCKED: REMARK    5  A    between atoms: N_10  and  C_11
DOCKED: REMARK    6  A    between atoms: C_11  and  C_12
DOCKED: REMARK    7  A    between atoms: C_12  and  C_13
DOCKED: REMARK    8  A    between atoms: C_14  and  C_22
DOCKED: REMARK    9  A    between atoms: N_25  and  O_26
DOCKED: REMARK                            x       y       z     vdW  Elec       q    Type
DOCKED: REMARK                         _______ _______ _______ _____ _____    ______ ____
DOCKED: USER                              x       y       z     vdW  Elec       q    Type
DOCKED: USER                           _______ _______ _______ _____ _____    ______ ____
DOCKED: ROOT
DOCKED: ATOM      1  N   UNL     1      36.721  18.061 120.596 -0.11 -0.00    +0.000 N 
DOCKED: ATOM      2  H   UNL     1      36.012  18.276 119.895 +0.00 -0.00    +0.000 HD
DOCKED: ATOM      3  H   UNL     1      37.084  18.909 121.029 +0.00 -0.00    +0.000 HD
DOCKED: ENDROOT
DOCKED: BRANCH   1   4
DOCKED: ATOM      4  C   UNL     1      37.841  17.374 119.940 -0.09 -0.00    +0.000 C 
DOCKED: BRANCH   4   8
DOCKED: ATOM      5  C   UNL     1      37.611  13.104 120.591 -0.42 -0.00    +0.000 A 
DOCKED: ATOM      6  C   UNL     1      38.312  13.930 121.492 -0.37 -0.00    +0.000 A 
DOCKED: ATOM      7  C   UNL     1      38.379  15.311 121.282 -0.25 -0.00    +0.000 A 
DOCKED: ATOM      8  C   UNL     1      37.733  15.895 120.183 -0.17 -0.00    +0.000 A 
DOCKED: ATOM      9  C   UNL     1      37.032  15.077 119.284 -0.22 -0.00    +0.000 A 
DOCKED: ATOM     10  C   UNL     1      36.962  13.697 119.495 -0.33 -0.00    +0.000 A 
DOCKED: ATOM     11  CM  UNL     1      37.672  14.502 120.388 +0.00 -0.00    +0.000 AC
DOCKED: BRANCH   5  12
DOCKED: ATOM     12  C   UNL     1      37.043  11.058 121.896 -0.54 -0.00    +0.000 C 
DOCKED: ATOM     13  C   UNL     1      37.498  11.636 120.774 -0.45 -0.00    +0.000 C 
DOCKED: BRANCH  11  14
DOCKED: ATOM     14  O   UNL     1      36.691   8.885 121.064 -2.61 -0.00    +0.000 OA
DOCKED: ATOM     15  C   UNL     1      36.934   9.595 122.074 -0.64 -0.00    +0.000 C 
DOCKED: ATOM     16  N   UNL     1      37.070   8.965 123.356 -0.61 -0.00    +0.000 N 
DOCKED: ATOM     17  H   UNL     1      37.164   9.516 124.166 -0.58 -0.00    +0.000 HD
DOCKED: BRANCH  15  17
DOCKED: ATOM     18  O   UNL     1      37.068   7.614 123.453 -2.24 -0.00    +0.000 OA
DOCKED: ATOM     19  H   UNL     1      37.239   7.226 122.581 -0.14 -0.00    +0.000 HD
DOCKED: ENDBRANCH  15  17
DOCKED: ENDBRANCH  11  14
DOCKED: ENDBRANCH   5  12
DOCKED: ENDBRANCH   4   8
DOCKED: ENDBRANCH   1   4
DOCKED: BRANCH   1  19
DOCKED: ATOM     20  C   UNL     1      36.108  17.240 121.653 -0.23 -0.00    +0.000 C 
DOCKED: BRANCH  19  20
DOCKED: ATOM     21  C   UNL     1      36.530  17.689 123.062 -0.23 -0.00    +0.000 C 
DOCKED: BRANCH  20  21
DOCKED: ATOM     22  C   UNL     1      35.605  17.108 124.093 -0.32 -0.00    +0.000 A 
DOCKED: ATOM     23  C   UNL     1      35.234  15.770 124.246 -0.46 -0.00    +0.000 A 
DOCKED: ATOM     24  N   UNL     1      34.329  15.636 125.243 -0.53 -0.00    +0.000 N 
DOCKED: ATOM     25  C   UNL     1      34.107  16.877 125.707 -0.39 -0.00    +0.000 A 
DOCKED: ATOM     26  C   UNL     1      34.860  17.802 125.028 -0.32 -0.00    +0.000 A 
DOCKED: ATOM     27  C   UNL     1      34.781  19.166 125.312 -0.22 -0.00    +0.000 A 
DOCKED: ATOM     28  C   UNL     1      33.905  19.574 126.334 -0.20 -0.00    +0.000 A 
DOCKED: ATOM     29  C   UNL     1      33.133  18.622 127.038 -0.24 -0.00    +0.000 A 
DOCKED: ATOM     30  C   UNL     1      33.230  17.254 126.724 -0.29 -0.00    +0.000 A 
DOCKED: ATOM     31  C   UNL     1      35.769  14.620 123.454 -0.51 -0.00    +0.000 C 
DOCKED: ATOM     32  H   UNL     1      33.919  14.800 125.563 -0.03 -0.00    +0.000 HD
DOCKED: ATOM     33  CM  UNL     1      34.811  16.606 124.875 -0.19 -0.00    +0.000 AC
DOCKED: ATOM     34  CM  UNL     1      34.002  18.215 126.024 -0.13 -0.00    +0.000 AC
DOCKED: ENDBRANCH  20  21
DOCKED: ENDBRANCH  19  20
DOCKED: ENDBRANCH   1  19
DOCKED: TORSDOF 8DOCKED: TER
DOCKED: ENDMDL
________________________________________________________________________________


	BEGINNING GENETIC ALGORITHM DOCKING 62 of 100
Run: 62 Seed: 1182181236 83698795 [ Run 62 of 100 GA/GALS ]
Beginning LAMARCKIAN GENETIC ALGORITHM (LGA), with a maximum of 2500000 energy evaluations.

Final-Value: -15.745


	FINAL GENETIC ALGORITHM DOCKED STATE
	_______________________________________________


Detailed state:  trans 35.752 17.832 123.821 quatxyzw 0.042346 0.963235 0.244284 -0.103495 center 0.698 0.076 -0.072 ntor 8 6.7474 9.7660 -72.1673 174.3964 -97.7305 -175.2651 -131.1487 -109.1593
State:	 35.752  17.832 123.821   0.043  0.968  0.246 -168.119      6.75    9.77  -72.17  174.40  -97.73 -175.27 -131.15 -109.16

DOCKED: MODEL       62
DOCKED: USER    Run = 62
DOCKED: USER    DPF = ligand_dock.biased.dpf
DOCKED: USER  
DOCKED: USER    Estimated Free Energy of Binding    =  -11.65 kcal/mol  [=(1)+(2)+(3)-(4)]
DOCKED: USER    Estimated Inhibition Constant, Ki   =    2.86 nM (nanomolar)  [Temperature = 298.15 K]
DOCKED: USER    
DOCKED: USER    (1) Final Intermolecular Energy     =  -14.04 kcal/mol
DOCKED: USER        vdW + Hbond + desolv Energy     =  -14.04 kcal/mol
DOCKED: USER        Electrostatic Energy            =   +0.00 kcal/mol
DOCKED: USER    (2) Final Total Internal Energy     =   -1.70 kcal/mol
DOCKED: USER    (3) Torsional Free Energy           =   +2.39 kcal/mol
DOCKED: USER    (4) Unbound System's Energy  [=(2)] =   -1.70 kcal/mol
DOCKED: USER    
DOCKED: USER    
DOCKED: USER    NEWDPF move ligand.dum.pdbqt
DOCKED: USER    NEWDPF about 0.698000 0.076000 -0.072000
DOCKED: USER    NEWDPF tran0 35.752478 17.831837 123.821392
DOCKED: USER    NEWDPF quaternion0 0.042346 0.963235 0.244284 -0.103495
DOCKED: USER    NEWDPF axisangle0 0.042574 0.968435 0.245603 -168.119024
DOCKED: USER    NEWDPF quat0 0.042574 0.968435 0.245603 -168.119024
DOCKED: USER    NEWDPF dihe0 6.75 9.77 -72.17 174.40 -97.73 -175.27 -131.15 -109.16 
DOCKED: USER  keepresnum = 1 
DOCKED: USER  
DOCKED: REMARK  Name = 
DOCKED: REMARK  9 active torsions:
DOCKED: REMARK  status: ('A' for Active; 'I' for Inactive)
DOCKED: REMARK    1  A    between atoms: C_2  and  C_3
DOCKED: REMARK    2  A    between atoms: C_4  and  C_5
DOCKED: REMARK    3  A    between atoms: C_8  and  C_9
DOCKED: REMARK    4  A    between atoms: C_9  and  N_10
DOCKED: REMARK    5  A    between atoms: N_10  and  C_11
DOCKED: REMARK    6  A    between atoms: C_11  and  C_12
DOCKED: REMARK    7  A    between atoms: C_12  and  C_13
DOCKED: REMARK    8  A    between atoms: C_14  and  C_22
DOCKED: REMARK    9  A    between atoms: N_25  and  O_26
DOCKED: REMARK                            x       y       z     vdW  Elec       q    Type
DOCKED: REMARK                         _______ _______ _______ _____ _____    ______ ____
DOCKED: USER                              x       y       z     vdW  Elec       q    Type
DOCKED: USER                           _______ _______ _______ _____ _____    ______ ____
DOCKED: ROOT
DOCKED: ATOM      1  N   UNL     1      36.685  18.100 124.471 -0.21 -0.00    +0.000 N 
DOCKED: ATOM      2  H   UNL     1      36.388  17.463 125.210 -0.02 -0.00    +0.000 HD
DOCKED: ATOM      3  H   UNL     1      36.242  19.013 124.569 -0.00 -0.00    +0.000 HD
DOCKED: ENDROOT
DOCKED: BRANCH   1   4
DOCKED: ATOM      4  C   UNL     1      36.282  17.541 123.174 -0.26 -0.00    +0.000 C 
DOCKED: BRANCH   4   8
DOCKED: ATOM      5  C   UNL     1      36.894  13.259 123.100 -0.52 -0.00    +0.000 A 
DOCKED: ATOM      6  C   UNL     1      37.895  14.135 122.637 -0.43 -0.00    +0.000 A 
DOCKED: ATOM      7  C   UNL     1      37.697  15.519 122.668 -0.30 -0.00    +0.000 A 
DOCKED: ATOM      8  C   UNL     1      36.506  16.055 123.179 -0.32 -0.00    +0.000 A 
DOCKED: ATOM      9  C   UNL     1      35.507  15.187 123.645 -0.46 -0.00    +0.000 A 
DOCKED: ATOM     10  C   UNL     1      35.706  13.803 123.616 -0.47 -0.00    +0.000 A 
DOCKED: ATOM     11  CM  UNL     1      36.701  14.659 123.140 +0.00 -0.00    +0.000 AC
DOCKED: BRANCH   5  12
DOCKED: ATOM     12  C   UNL     1      36.622  10.986 122.115 -0.63 -0.00    +0.000 C 
DOCKED: ATOM     13  C   UNL     1      37.057  11.784 123.102 -0.66 -0.00    +0.000 C 
DOCKED: BRANCH  11  14
DOCKED: ATOM     14  O   UNL     1      36.816   8.913 121.018 -2.65 -0.00    +0.000 OA
DOCKED: ATOM     15  C   UNL     1      36.785   9.517 122.122 -0.68 -0.00    +0.000 C 
DOCKED: ATOM     16  N   UNL     1      36.883   8.761 123.337 -0.64 -0.00    +0.000 N 
DOCKED: ATOM     17  H   UNL     1      36.764   9.209 124.205 -0.50 -0.00    +0.000 HD
DOCKED: BRANCH  15  17
DOCKED: ATOM     18  O   UNL     1      37.138   7.431 123.291 -2.14 -0.00    +0.000 OA
DOCKED: ATOM     19  H   UNL     1      37.333   7.170 122.378 -0.17 -0.00    +0.000 HD
DOCKED: ENDBRANCH  15  17
DOCKED: ENDBRANCH  11  14
DOCKED: ENDBRANCH   5  12
DOCKED: ENDBRANCH   4   8
DOCKED: ENDBRANCH   1   4
DOCKED: BRANCH   1  19
DOCKED: ATOM     20  C   UNL     1      38.141  18.291 124.566 -0.20 -0.00    +0.000 C 
DOCKED: BRANCH  19  20
DOCKED: ATOM     21  C   UNL     1      38.521  19.437 125.519 -0.15 -0.00    +0.000 C 
DOCKED: BRANCH  20  21
DOCKED: ATOM     22  C   UNL     1      38.609  18.933 126.931 -0.15 -0.00    +0.000 A 
DOCKED: ATOM     23  C   UNL     1      37.606  18.948 127.903 -0.13 -0.00    +0.000 A 
DOCKED: ATOM     24  N   UNL     1      38.074  18.471 129.080 -0.18 -0.00    +0.000 N 
DOCKED: ATOM     25  C   UNL     1      39.368  18.176 128.868 -0.26 -0.00    +0.000 A 
DOCKED: ATOM     26  C   UNL     1      39.733  18.450 127.574 -0.25 -0.00    +0.000 A 
DOCKED: ATOM     27  C   UNL     1      41.037  18.251 127.120 -0.37 -0.00    +0.000 A 
DOCKED: ATOM     28  C   UNL     1      41.981  17.746 128.034 -0.42 -0.00    +0.000 A 
DOCKED: ATOM     29  C   UNL     1      41.604  17.459 129.365 -0.44 -0.00    +0.000 A 
DOCKED: ATOM     30  C   UNL     1      40.282  17.676 129.795 -0.32 -0.00    +0.000 A 
DOCKED: ATOM     31  C   UNL     1      36.194  19.394 127.695 -0.13 -0.00    +0.000 C 
DOCKED: ATOM     32  H   UNL     1      37.570  18.362 129.919 -0.00 -0.00    +0.000 HD
DOCKED: ATOM     33  CM  UNL     1      38.659  18.592 128.103 +0.00 -0.00    +0.000 AC
DOCKED: ATOM     34  CM  UNL     1      40.667  17.960 128.460 +0.00 -0.00    +0.000 AC
DOCKED: ENDBRANCH  20  21
DOCKED: ENDBRANCH  19  20
DOCKED: ENDBRANCH   1  19
DOCKED: TORSDOF 8DOCKED: TER
DOCKED: ENDMDL
________________________________________________________________________________


	BEGINNING GENETIC ALGORITHM DOCKING 63 of 100
Run: 63 Seed: 1426676685 117529081 [ Run 63 of 100 GA/GALS ]
Beginning LAMARCKIAN GENETIC ALGORITHM (LGA), with a maximum of 2500000 energy evaluations.

Final-Value: -13.975


	FINAL GENETIC ALGORITHM DOCKED STATE
	_______________________________________________


Detailed state:  trans 38.310 14.842 122.332 quatxyzw -0.100987 -0.729339 -0.430425 -0.522112 center 0.698 0.076 -0.072 ntor 8 -9.4174 107.2886 -39.7638 -26.7547 -138.0361 179.1487 -177.6772 -51.0258
State:	 38.310  14.842 122.332  -0.118 -0.855 -0.505 -117.052     -9.42  107.29  -39.76  -26.75 -138.04  179.15 -177.68  -51.03

DOCKED: MODEL       63
DOCKED: USER    Run = 63
DOCKED: USER    DPF = ligand_dock.biased.dpf
DOCKED: USER  
DOCKED: USER    Estimated Free Energy of Binding    =   -9.80 kcal/mol  [=(1)+(2)+(3)-(4)]
DOCKED: USER    Estimated Inhibition Constant, Ki   =   65.29 nM (nanomolar)  [Temperature = 298.15 K]
DOCKED: USER    
DOCKED: USER    (1) Final Intermolecular Energy     =  -12.19 kcal/mol
DOCKED: USER        vdW + Hbond + desolv Energy     =  -12.19 kcal/mol
DOCKED: USER        Electrostatic Energy            =   +0.00 kcal/mol
DOCKED: USER    (2) Final Total Internal Energy     =   -1.79 kcal/mol
DOCKED: USER    (3) Torsional Free Energy           =   +2.39 kcal/mol
DOCKED: USER    (4) Unbound System's Energy  [=(2)] =   -1.79 kcal/mol
DOCKED: USER    
DOCKED: USER    
DOCKED: USER    NEWDPF move ligand.dum.pdbqt
DOCKED: USER    NEWDPF about 0.698000 0.076000 -0.072000
DOCKED: USER    NEWDPF tran0 38.309544 14.841972 122.332088
DOCKED: USER    NEWDPF quaternion0 -0.100987 -0.729339 -0.430425 -0.522112
DOCKED: USER    NEWDPF axisangle0 -0.118407 -0.855151 -0.504674 -117.051975
DOCKED: USER    NEWDPF quat0 -0.118407 -0.855151 -0.504674 -117.051975
DOCKED: USER    NEWDPF dihe0 -9.42 107.29 -39.76 -26.75 -138.04 179.15 -177.68 -51.03 
DOCKED: USER  keepresnum = 1 
DOCKED: USER  
DOCKED: REMARK  Name = 
DOCKED: REMARK  9 active torsions:
DOCKED: REMARK  status: ('A' for Active; 'I' for Inactive)
DOCKED: REMARK    1  A    between atoms: C_2  and  C_3
DOCKED: REMARK    2  A    between atoms: C_4  and  C_5
DOCKED: REMARK    3  A    between atoms: C_8  and  C_9
DOCKED: REMARK    4  A    between atoms: C_9  and  N_10
DOCKED: REMARK    5  A    between atoms: N_10  and  C_11
DOCKED: REMARK    6  A    between atoms: C_11  and  C_12
DOCKED: REMARK    7  A    between atoms: C_12  and  C_13
DOCKED: REMARK    8  A    between atoms: C_14  and  C_22
DOCKED: REMARK    9  A    between atoms: N_25  and  O_26
DOCKED: REMARK                            x       y       z     vdW  Elec       q    Type
DOCKED: REMARK                         _______ _______ _______ _____ _____    ______ ____
DOCKED: USER                              x       y       z     vdW  Elec       q    Type
DOCKED: USER                           _______ _______ _______ _____ _____    ______ ____
DOCKED: ROOT
DOCKED: ATOM      1  N   UNL     1      39.238  15.324 121.812 -0.29 -0.00    +0.000 N 
DOCKED: ATOM      2  H   UNL     1      39.750  14.442 121.846 -0.02 -0.00    +0.000 HD
DOCKED: ATOM      3  H   UNL     1      39.341  15.846 122.682 -0.01 -0.00    +0.000 HD
DOCKED: ENDROOT
DOCKED: BRANCH   1   4
DOCKED: ATOM      4  C   UNL     1      37.810  15.035 121.627 -0.32 -0.00    +0.000 C 
DOCKED: BRANCH   4   8
DOCKED: ATOM      5  C   UNL     1      36.935  10.927 122.665 -0.54 -0.00    +0.000 A 
DOCKED: ATOM      6  C   UNL     1      37.125  11.303 121.320 -0.41 -0.00    +0.000 A 
DOCKED: ATOM      7  C   UNL     1      37.413  12.630 120.989 -0.46 -0.00    +0.000 A 
DOCKED: ATOM      8  C   UNL     1      37.538  13.602 121.992 -0.42 -0.00    +0.000 A 
DOCKED: ATOM      9  C   UNL     1      37.353  13.233 123.333 -0.50 -0.00    +0.000 A 
DOCKED: ATOM     10  C   UNL     1      37.067  11.905 123.665 -0.59 -0.00    +0.000 A 
DOCKED: ATOM     11  CM  UNL     1      37.238  12.267 122.327 +0.00 -0.00    +0.000 AC
DOCKED: BRANCH   5  12
DOCKED: ATOM     12  C   UNL     1      35.539   8.863 122.697 -0.70 -0.00    +0.000 C 
DOCKED: ATOM     13  C   UNL     1      36.640   9.531 123.073 -0.68 -0.00    +0.000 C 
DOCKED: BRANCH  11  14
DOCKED: ATOM     14  O   UNL     1      36.095   6.581 122.844 -1.11 -0.00    +0.000 OA
DOCKED: ATOM     15  C   UNL     1      35.248   7.474 123.108 -0.74 -0.00    +0.000 C 
DOCKED: ATOM     16  N   UNL     1      34.028   7.108 123.768 -0.69 -0.00    +0.000 N 
DOCKED: ATOM     17  H   UNL     1      33.317   7.777 123.893 -0.13 -0.00    +0.000 HD
DOCKED: BRANCH  15  17
DOCKED: ATOM     18  O   UNL     1      33.852   5.843 124.220 -0.68 -0.00    +0.000 OA
DOCKED: ATOM     19  H   UNL     1      34.570   5.279 123.891 -0.56 -0.00    +0.000 HD
DOCKED: ENDBRANCH  15  17
DOCKED: ENDBRANCH  11  14
DOCKED: ENDBRANCH   5  12
DOCKED: ENDBRANCH   4   8
DOCKED: ENDBRANCH   1   4
DOCKED: BRANCH   1  19
DOCKED: ATOM     20  C   UNL     1      39.784  16.147 120.722 -0.19 -0.00    +0.000 C 
DOCKED: BRANCH  19  20
DOCKED: ATOM     21  C   UNL     1      40.019  17.606 121.150 -0.10 -0.00    +0.000 C 
DOCKED: BRANCH  20  21
DOCKED: ATOM     22  C   UNL     1      40.705  17.654 122.485 -0.16 -0.00    +0.000 A 
DOCKED: ATOM     23  C   UNL     1      41.989  17.203 122.798 -0.30 -0.00    +0.000 A 
DOCKED: ATOM     24  N   UNL     1      42.238  17.350 124.120 -0.23 -0.00    +0.000 N 
DOCKED: ATOM     25  C   UNL     1      41.117  17.868 124.650 -0.31 -0.00    +0.000 A 
DOCKED: ATOM     26  C   UNL     1      40.158  18.060 123.687 -0.21 -0.00    +0.000 A 
DOCKED: ATOM     27  C   UNL     1      38.895  18.564 123.999 -0.15 -0.00    +0.000 A 
DOCKED: ATOM     28  C   UNL     1      38.628  18.883 125.343 -0.16 -0.00    +0.000 A 
DOCKED: ATOM     29  C   UNL     1      39.617  18.690 126.334 -0.22 -0.00    +0.000 A 
DOCKED: ATOM     30  C   UNL     1      40.880  18.174 125.990 -0.33 -0.00    +0.000 A 
DOCKED: ATOM     31  C   UNL     1      42.985  16.658 121.824 -0.32 -0.00    +0.000 C 
DOCKED: ATOM     32  H   UNL     1      43.071  17.125 124.596 -0.65 -0.00    +0.000 HD
DOCKED: ATOM     33  CM  UNL     1      41.274  17.618 123.566 +0.00 -0.00    +0.000 AC
DOCKED: ATOM     34  CM  UNL     1      39.883  18.373 125.001 +0.00 -0.00    +0.000 AC
DOCKED: ENDBRANCH  20  21
DOCKED: ENDBRANCH  19  20
DOCKED: ENDBRANCH   1  19
DOCKED: TORSDOF 8DOCKED: TER
DOCKED: ENDMDL
________________________________________________________________________________


	BEGINNING GENETIC ALGORITHM DOCKING 64 of 100
Run: 64 Seed: 954258462 36313118 [ Run 64 of 100 GA/GALS ]
Beginning LAMARCKIAN GENETIC ALGORITHM (LGA), with a maximum of 2500000 energy evaluations.

Final-Value: -15.376


	FINAL GENETIC ALGORITHM DOCKED STATE
	_______________________________________________


Detailed state:  trans 35.225 17.129 121.938 quatxyzw 0.463023 -0.397447 0.641785 0.464497 center 0.698 0.076 -0.072 ntor 8 13.4997 -11.5589 157.0409 179.0454 -179.8727 152.4178 -98.8221 27.4181
State:	 35.225  17.129 121.938   0.523 -0.449  0.725 124.645     13.50  -11.56  157.04  179.05 -179.87  152.42  -98.82   27.42

DOCKED: MODEL       64
DOCKED: USER    Run = 64
DOCKED: USER    DPF = ligand_dock.biased.dpf
DOCKED: USER  
DOCKED: USER    Estimated Free Energy of Binding    =  -11.06 kcal/mol  [=(1)+(2)+(3)-(4)]
DOCKED: USER    Estimated Inhibition Constant, Ki   =    7.87 nM (nanomolar)  [Temperature = 298.15 K]
DOCKED: USER    
DOCKED: USER    (1) Final Intermolecular Energy     =  -13.44 kcal/mol
DOCKED: USER        vdW + Hbond + desolv Energy     =  -13.44 kcal/mol
DOCKED: USER        Electrostatic Energy            =   +0.00 kcal/mol
DOCKED: USER    (2) Final Total Internal Energy     =   -1.93 kcal/mol
DOCKED: USER    (3) Torsional Free Energy           =   +2.39 kcal/mol
DOCKED: USER    (4) Unbound System's Energy  [=(2)] =   -1.93 kcal/mol
DOCKED: USER    
DOCKED: USER    
DOCKED: USER    NEWDPF move ligand.dum.pdbqt
DOCKED: USER    NEWDPF about 0.698000 0.076000 -0.072000
DOCKED: USER    NEWDPF tran0 35.225056 17.128658 121.937524
DOCKED: USER    NEWDPF quaternion0 0.463023 -0.397447 0.641785 0.464497
DOCKED: USER    NEWDPF axisangle0 0.522851 -0.448801 0.724710 124.644607
DOCKED: USER    NEWDPF quat0 0.522851 -0.448801 0.724710 124.644607
DOCKED: USER    NEWDPF dihe0 13.50 -11.56 157.04 179.05 -179.87 152.42 -98.82 27.42 
DOCKED: USER  keepresnum = 1 
DOCKED: USER  
DOCKED: REMARK  Name = 
DOCKED: REMARK  9 active torsions:
DOCKED: REMARK  status: ('A' for Active; 'I' for Inactive)
DOCKED: REMARK    1  A    between atoms: C_2  and  C_3
DOCKED: REMARK    2  A    between atoms: C_4  and  C_5
DOCKED: REMARK    3  A    between atoms: C_8  and  C_9
DOCKED: REMARK    4  A    between atoms: C_9  and  N_10
DOCKED: REMARK    5  A    between atoms: N_10  and  C_11
DOCKED: REMARK    6  A    between atoms: C_11  and  C_12
DOCKED: REMARK    7  A    between atoms: C_12  and  C_13
DOCKED: REMARK    8  A    between atoms: C_14  and  C_22
DOCKED: REMARK    9  A    between atoms: N_25  and  O_26
DOCKED: REMARK                            x       y       z     vdW  Elec       q    Type
DOCKED: REMARK                         _______ _______ _______ _____ _____    ______ ____
DOCKED: USER                              x       y       z     vdW  Elec       q    Type
DOCKED: USER                           _______ _______ _______ _____ _____    ______ ____
DOCKED: ROOT
DOCKED: ATOM      1  N   UNL     1      35.274  17.956 121.115 -0.25 -0.00    +0.000 N 
DOCKED: ATOM      2  H   UNL     1      34.256  18.019 121.078 -0.02 -0.00    +0.000 HD
DOCKED: ATOM      3  H   UNL     1      35.621  17.210 120.512 -0.01 -0.00    +0.000 HD
DOCKED: ENDROOT
DOCKED: BRANCH   1   4
DOCKED: ATOM      4  C   UNL     1      35.680  17.648 122.492 -0.28 -0.00    +0.000 C 
DOCKED: BRANCH   4   8
DOCKED: ATOM      5  C   UNL     1      36.377  13.403 122.951 -0.48 -0.00    +0.000 A 
DOCKED: ATOM      6  C   UNL     1      35.476  14.078 123.799 -0.46 -0.00    +0.000 A 
DOCKED: ATOM      7  C   UNL     1      35.249  15.449 123.644 -0.46 -0.00    +0.000 A 
DOCKED: ATOM      8  C   UNL     1      35.898  16.167 122.630 -0.28 -0.00    +0.000 A 
DOCKED: ATOM      9  C   UNL     1      36.794  15.499 121.781 -0.22 -0.00    +0.000 A 
DOCKED: ATOM     10  C   UNL     1      37.020  14.128 121.934 -0.34 -0.00    +0.000 A 
DOCKED: ATOM     11  CM  UNL     1      36.136  14.787 122.790 +0.00 -0.00    +0.000 AC
DOCKED: BRANCH   5  12
DOCKED: ATOM     12  C   UNL     1      36.688  11.116 122.013 -0.63 -0.00    +0.000 C 
DOCKED: ATOM     13  C   UNL     1      36.646  11.948 123.064 -0.68 -0.00    +0.000 C 
DOCKED: BRANCH  11  14
DOCKED: ATOM     14  O   UNL     1      37.058   8.989 121.074 -2.71 -0.00    +0.000 OA
DOCKED: ATOM     15  C   UNL     1      36.954   9.667 122.130 -0.63 -0.00    +0.000 C 
DOCKED: ATOM     16  N   UNL     1      37.070   9.007 123.399 -0.60 -0.00    +0.000 N 
DOCKED: ATOM     17  H   UNL     1      36.895   9.505 124.229 -0.52 -0.00    +0.000 HD
DOCKED: BRANCH  15  17
DOCKED: ATOM     18  O   UNL     1      37.419   7.699 123.456 -2.18 -0.00    +0.000 OA
DOCKED: ATOM     19  H   UNL     1      37.758   7.416 122.592 -0.25 -0.00    +0.000 HD
DOCKED: ENDBRANCH  15  17
DOCKED: ENDBRANCH  11  14
DOCKED: ENDBRANCH   5  12
DOCKED: ENDBRANCH   4   8
DOCKED: ENDBRANCH   1   4
DOCKED: BRANCH   1  19
DOCKED: ATOM     20  C   UNL     1      35.845  19.225 120.638 -0.17 -0.00    +0.000 C 
DOCKED: BRANCH  19  20
DOCKED: ATOM     21  C   UNL     1      35.343  19.604 119.235 -0.16 -0.00    +0.000 C 
DOCKED: BRANCH  20  21
DOCKED: ATOM     22  C   UNL     1      34.317  18.614 118.763 -0.19 -0.00    +0.000 A 
DOCKED: ATOM     23  C   UNL     1      34.539  17.431 118.056 -0.13 -0.00    +0.000 A 
DOCKED: ATOM     24  N   UNL     1      33.366  16.832 117.745 -0.06 -0.00    +0.000 N 
DOCKED: ATOM     25  C   UNL     1      32.404  17.636 118.229 -0.13 -0.00    +0.000 A 
DOCKED: ATOM     26  C   UNL     1      32.943  18.735 118.849 -0.26 -0.00    +0.000 A 
DOCKED: ATOM     27  C   UNL     1      32.140  19.730 119.409 -0.24 -0.00    +0.000 A 
DOCKED: ATOM     28  C   UNL     1      30.745  19.571 119.327 -0.40 -0.00    +0.000 A 
DOCKED: ATOM     29  C   UNL     1      30.189  18.438 118.693 -0.34 -0.00    +0.000 A 
DOCKED: ATOM     30  C   UNL     1      31.024  17.453 118.133 -0.23 -0.00    +0.000 A 
DOCKED: ATOM     31  C   UNL     1      35.877  16.862 117.703 -0.13 -0.00    +0.000 C 
DOCKED: ATOM     32  H   UNL     1      33.243  15.981 117.264 -0.01 -0.00    +0.000 HD
DOCKED: ATOM     33  CM  UNL     1      33.509  17.817 118.310 +0.00 -0.00    +0.000 AC
DOCKED: ATOM     34  CM  UNL     1      31.574  18.593 118.773 +0.00 -0.00    +0.000 AC
DOCKED: ENDBRANCH  20  21
DOCKED: ENDBRANCH  19  20
DOCKED: ENDBRANCH   1  19
DOCKED: TORSDOF 8DOCKED: TER
DOCKED: ENDMDL
________________________________________________________________________________


	BEGINNING GENETIC ALGORITHM DOCKING 65 of 100
Run: 65 Seed: 1044139978 844711372 [ Run 65 of 100 GA/GALS ]
Beginning LAMARCKIAN GENETIC ALGORITHM (LGA), with a maximum of 2500000 energy evaluations.

Final-Value: -15.828


	FINAL GENETIC ALGORITHM DOCKED STATE
	_______________________________________________


Detailed state:  trans 36.580 17.405 123.771 quatxyzw -0.250073 0.702217 0.449233 0.492488 center 0.698 0.076 -0.072 ntor 8 9.6706 20.4154 -45.8215 154.5208 -169.9772 -170.6649 -69.3769 -39.3816
State:	 36.580  17.405 123.771  -0.287  0.807  0.516 120.992      9.67   20.42  -45.82  154.52 -169.98 -170.66  -69.38  -39.38

DOCKED: MODEL       65
DOCKED: USER    Run = 65
DOCKED: USER    DPF = ligand_dock.biased.dpf
DOCKED: USER  
DOCKED: USER    Estimated Free Energy of Binding    =  -11.10 kcal/mol  [=(1)+(2)+(3)-(4)]
DOCKED: USER    Estimated Inhibition Constant, Ki   =    7.33 nM (nanomolar)  [Temperature = 298.15 K]
DOCKED: USER    
DOCKED: USER    (1) Final Intermolecular Energy     =  -13.48 kcal/mol
DOCKED: USER        vdW + Hbond + desolv Energy     =  -13.48 kcal/mol
DOCKED: USER        Electrostatic Energy            =   +0.00 kcal/mol
DOCKED: USER    (2) Final Total Internal Energy     =   -2.34 kcal/mol
DOCKED: USER    (3) Torsional Free Energy           =   +2.39 kcal/mol
DOCKED: USER    (4) Unbound System's Energy  [=(2)] =   -2.34 kcal/mol
DOCKED: USER    
DOCKED: USER    
DOCKED: USER    NEWDPF move ligand.dum.pdbqt
DOCKED: USER    NEWDPF about 0.698000 0.076000 -0.072000
DOCKED: USER    NEWDPF tran0 36.579834 17.405420 123.771128
DOCKED: USER    NEWDPF quaternion0 -0.250073 0.702217 0.449233 0.492488
DOCKED: USER    NEWDPF axisangle0 -0.287335 0.806850 0.516170 120.991514
DOCKED: USER    NEWDPF quat0 -0.287335 0.806850 0.516170 120.991514
DOCKED: USER    NEWDPF dihe0 9.67 20.42 -45.82 154.52 -169.98 -170.66 -69.38 -39.38 
DOCKED: USER  keepresnum = 1 
DOCKED: USER  
DOCKED: REMARK  Name = 
DOCKED: REMARK  9 active torsions:
DOCKED: REMARK  status: ('A' for Active; 'I' for Inactive)
DOCKED: REMARK    1  A    between atoms: C_2  and  C_3
DOCKED: REMARK    2  A    between atoms: C_4  and  C_5
DOCKED: REMARK    3  A    between atoms: C_8  and  C_9
DOCKED: REMARK    4  A    between atoms: C_9  and  N_10
DOCKED: REMARK    5  A    between atoms: N_10  and  C_11
DOCKED: REMARK    6  A    between atoms: C_11  and  C_12
DOCKED: REMARK    7  A    between atoms: C_12  and  C_13
DOCKED: REMARK    8  A    between atoms: C_14  and  C_22
DOCKED: REMARK    9  A    between atoms: N_25  and  O_26
DOCKED: REMARK                            x       y       z     vdW  Elec       q    Type
DOCKED: REMARK                         _______ _______ _______ _____ _____    ______ ____
DOCKED: USER                              x       y       z     vdW  Elec       q    Type
DOCKED: USER                           _______ _______ _______ _____ _____    ______ ____
DOCKED: ROOT
DOCKED: ATOM      1  N   UNL     1      37.228  18.375 123.840 -0.16 -0.00    +0.000 N 
DOCKED: ATOM      2  H   UNL     1      38.092  17.833 123.797 -0.00 -0.00    +0.000 HD
DOCKED: ATOM      3  H   UNL     1      36.876  18.435 124.794 -0.01 -0.00    +0.000 HD
DOCKED: ENDROOT
DOCKED: BRANCH   1   4
DOCKED: ATOM      4  C   UNL     1      36.208  17.702 123.025 -0.25 -0.00    +0.000 C 
DOCKED: BRANCH   4   8
DOCKED: ATOM      5  C   UNL     1      36.877  13.429 122.958 -0.50 -0.00    +0.000 A 
DOCKED: ATOM      6  C   UNL     1      37.500  14.267 122.012 -0.37 -0.00    +0.000 A 
DOCKED: ATOM      7  C   UNL     1      37.286  15.649 122.040 -0.25 -0.00    +0.000 A 
DOCKED: ATOM      8  C   UNL     1      36.465  16.221 123.023 -0.30 -0.00    +0.000 A 
DOCKED: ATOM      9  C   UNL     1      35.845  15.391 123.969 -0.41 -0.00    +0.000 A 
DOCKED: ATOM     10  C   UNL     1      36.060  14.010 123.942 -0.45 -0.00    +0.000 A 
DOCKED: ATOM     11  CM  UNL     1      36.672  14.827 122.990 +0.00 -0.00    +0.000 AC
DOCKED: BRANCH   5  12
DOCKED: ATOM     12  C   UNL     1      36.622  11.130 122.031 -0.63 -0.00    +0.000 C 
DOCKED: ATOM     13  C   UNL     1      37.079  11.959 122.981 -0.64 -0.00    +0.000 C 
DOCKED: BRANCH  11  14
DOCKED: ATOM     14  O   UNL     1      37.025   9.067 120.970 -2.71 -0.00    +0.000 OA
DOCKED: ATOM     15  C   UNL     1      36.824   9.666 122.059 -0.65 -0.00    +0.000 C 
DOCKED: ATOM     16  N   UNL     1      36.772   8.907 123.276 -0.63 -0.00    +0.000 N 
DOCKED: ATOM     17  H   UNL     1      36.520   9.347 124.119 -0.41 -0.00    +0.000 HD
DOCKED: BRANCH  15  17
DOCKED: ATOM     18  O   UNL     1      37.068   7.585 123.265 -2.26 -0.00    +0.000 OA
DOCKED: ATOM     19  H   UNL     1      37.439   7.343 122.403 -0.16 -0.00    +0.000 HD
DOCKED: ENDBRANCH  15  17
DOCKED: ENDBRANCH  11  14
DOCKED: ENDBRANCH   5  12
DOCKED: ENDBRANCH   4   8
DOCKED: ENDBRANCH   1   4
DOCKED: BRANCH   1  19
DOCKED: ATOM     20  C   UNL     1      37.502  19.742 123.371 -0.11 -0.00    +0.000 C 
DOCKED: BRANCH  19  20
DOCKED: ATOM     21  C   UNL     1      38.972  20.147 123.571 -0.06 -0.00    +0.000 C 
DOCKED: BRANCH  20  21
DOCKED: ATOM     22  C   UNL     1      39.809  18.938 123.876 -0.13 -0.00    +0.000 A 
DOCKED: ATOM     23  C   UNL     1      40.475  18.642 125.067 -0.25 -0.00    +0.000 A 
DOCKED: ATOM     24  N   UNL     1      41.185  17.497 124.946 -0.35 -0.00    +0.000 N 
DOCKED: ATOM     25  C   UNL     1      40.994  17.077 123.684 -0.28 -0.00    +0.000 A 
DOCKED: ATOM     26  C   UNL     1      40.168  17.932 122.998 -0.16 -0.00    +0.000 A 
DOCKED: ATOM     27  C   UNL     1      39.841  17.721 121.658 -0.09 -0.00    +0.000 A 
DOCKED: ATOM     28  C   UNL     1      40.381  16.588 121.021 -0.15 -0.00    +0.000 A 
DOCKED: ATOM     29  C   UNL     1      41.227  15.706 121.728 -0.32 -0.00    +0.000 A 
DOCKED: ATOM     30  C   UNL     1      41.543  15.948 123.078 -0.39 -0.00    +0.000 A 
DOCKED: ATOM     31  C   UNL     1      40.407  19.445 126.327 -0.21 -0.00    +0.000 C 
DOCKED: ATOM     32  H   UNL     1      41.730  17.060 125.641 -0.16 -0.00    +0.000 HD
DOCKED: ATOM     33  CM  UNL     1      40.547  18.001 124.141 +0.00 -0.00    +0.000 AC
DOCKED: ATOM     34  CM  UNL     1      40.693  16.828 122.362 +0.00 -0.00    +0.000 AC
DOCKED: ENDBRANCH  20  21
DOCKED: ENDBRANCH  19  20
DOCKED: ENDBRANCH   1  19
DOCKED: TORSDOF 8DOCKED: TER
DOCKED: ENDMDL
________________________________________________________________________________


	BEGINNING GENETIC ALGORITHM DOCKING 66 of 100
Run: 66 Seed: 1270638826 360834097 [ Run 66 of 100 GA/GALS ]
Beginning LAMARCKIAN GENETIC ALGORITHM (LGA), with a maximum of 2500000 energy evaluations.

Final-Value: -15.098


	FINAL GENETIC ALGORITHM DOCKED STATE
	_______________________________________________


Detailed state:  trans 37.177 17.160 123.878 quatxyzw -0.034371 -0.615218 -0.509980 -0.600205 center 0.698 0.076 -0.072 ntor 8 0.3175 -93.2920 -122.8509 23.6408 161.5810 39.1157 -112.5959 -54.4372
State:	 37.177  17.160 123.878  -0.043 -0.769 -0.638 -106.231      0.32  -93.29 -122.85   23.64  161.58   39.12 -112.60  -54.44

DOCKED: MODEL       66
DOCKED: USER    Run = 66
DOCKED: USER    DPF = ligand_dock.biased.dpf
DOCKED: USER  
DOCKED: USER    Estimated Free Energy of Binding    =  -10.95 kcal/mol  [=(1)+(2)+(3)-(4)]
DOCKED: USER    Estimated Inhibition Constant, Ki   =    9.35 nM (nanomolar)  [Temperature = 298.15 K]
DOCKED: USER    
DOCKED: USER    (1) Final Intermolecular Energy     =  -13.34 kcal/mol
DOCKED: USER        vdW + Hbond + desolv Energy     =  -13.34 kcal/mol
DOCKED: USER        Electrostatic Energy            =   +0.00 kcal/mol
DOCKED: USER    (2) Final Total Internal Energy     =   -1.76 kcal/mol
DOCKED: USER    (3) Torsional Free Energy           =   +2.39 kcal/mol
DOCKED: USER    (4) Unbound System's Energy  [=(2)] =   -1.76 kcal/mol
DOCKED: USER    
DOCKED: USER    
DOCKED: USER    NEWDPF move ligand.dum.pdbqt
DOCKED: USER    NEWDPF about 0.698000 0.076000 -0.072000
DOCKED: USER    NEWDPF tran0 37.176795 17.159664 123.877885
DOCKED: USER    NEWDPF quaternion0 -0.034371 -0.615218 -0.509980 -0.600205
DOCKED: USER    NEWDPF axisangle0 -0.042972 -0.769170 -0.637598 -106.230867
DOCKED: USER    NEWDPF quat0 -0.042972 -0.769170 -0.637598 -106.230867
DOCKED: USER    NEWDPF dihe0 0.32 -93.29 -122.85 23.64 161.58 39.12 -112.60 -54.44 
DOCKED: USER  keepresnum = 1 
DOCKED: USER  
DOCKED: REMARK  Name = 
DOCKED: REMARK  9 active torsions:
DOCKED: REMARK  status: ('A' for Active; 'I' for Inactive)
DOCKED: REMARK    1  A    between atoms: C_2  and  C_3
DOCKED: REMARK    2  A    between atoms: C_4  and  C_5
DOCKED: REMARK    3  A    between atoms: C_8  and  C_9
DOCKED: REMARK    4  A    between atoms: C_9  and  N_10
DOCKED: REMARK    5  A    between atoms: N_10  and  C_11
DOCKED: REMARK    6  A    between atoms: C_11  and  C_12
DOCKED: REMARK    7  A    between atoms: C_12  and  C_13
DOCKED: REMARK    8  A    between atoms: C_14  and  C_22
DOCKED: REMARK    9  A    between atoms: N_25  and  O_26
DOCKED: REMARK                            x       y       z     vdW  Elec       q    Type
DOCKED: REMARK                         _______ _______ _______ _____ _____    ______ ____
DOCKED: USER                              x       y       z     vdW  Elec       q    Type
DOCKED: USER                           _______ _______ _______ _____ _____    ______ ____
DOCKED: ROOT
DOCKED: ATOM      1  N   UNL     1      37.989  17.846 123.395 -0.17 -0.00    +0.000 N 
DOCKED: ATOM      2  H   UNL     1      38.529  17.037 123.086 -0.00 -0.00    +0.000 HD
DOCKED: ATOM      3  H   UNL     1      38.218  18.100 124.355 -0.01 -0.00    +0.000 HD
DOCKED: ENDROOT
DOCKED: BRANCH   1   4
DOCKED: ATOM      4  C   UNL     1      36.561  17.508 123.346 -0.25 -0.00    +0.000 C 
DOCKED: BRANCH   4   8
DOCKED: ATOM      5  C   UNL     1      36.186  13.210 123.026 -0.47 -0.00    +0.000 A 
DOCKED: ATOM      6  C   UNL     1      35.601  13.903 124.104 -0.37 -0.00    +0.000 A 
DOCKED: ATOM      7  C   UNL     1      35.719  15.292 124.201 -0.42 -0.00    +0.000 A 
DOCKED: ATOM      8  C   UNL     1      36.403  16.018 123.216 -0.33 -0.00    +0.000 A 
DOCKED: ATOM      9  C   UNL     1      36.985  15.334 122.139 -0.28 -0.00    +0.000 A 
DOCKED: ATOM     10  C   UNL     1      36.866  13.944 122.040 -0.33 -0.00    +0.000 A 
DOCKED: ATOM     11  CM  UNL     1      36.294  14.617 123.121 +0.00 -0.00    +0.000 AC
DOCKED: BRANCH   5  12
DOCKED: ATOM     12  C   UNL     1      37.053  10.974 122.349 -0.57 -0.00    +0.000 C 
DOCKED: ATOM     13  C   UNL     1      36.080  11.738 122.867 -0.66 -0.00    +0.000 C 
DOCKED: BRANCH  11  14
DOCKED: ATOM     14  O   UNL     1      36.706   9.046 121.044 -2.62 -0.00    +0.000 OA
DOCKED: ATOM     15  C   UNL     1      36.943   9.508 122.191 -0.65 -0.00    +0.000 C 
DOCKED: ATOM     16  N   UNL     1      37.069   8.605 123.298 -0.68 -0.00    +0.000 N 
DOCKED: ATOM     17  H   UNL     1      37.157   8.958 124.212 -0.56 -0.00    +0.000 HD
DOCKED: BRANCH  15  17
DOCKED: ATOM     18  O   UNL     1      37.066   7.266 123.087 -2.09 -0.00    +0.000 OA
DOCKED: ATOM     19  H   UNL     1      36.977   7.088 122.138 -0.10 -0.00    +0.000 HD
DOCKED: ENDBRANCH  15  17
DOCKED: ENDBRANCH  11  14
DOCKED: ENDBRANCH   5  12
DOCKED: ENDBRANCH   4   8
DOCKED: ENDBRANCH   1   4
DOCKED: BRANCH   1  19
DOCKED: ATOM     20  C   UNL     1      38.319  18.992 122.533 -0.09 -0.00    +0.000 C 
DOCKED: BRANCH  19  20
DOCKED: ATOM     21  C   UNL     1      39.754  19.499 122.756 -0.06 -0.00    +0.000 C 
DOCKED: BRANCH  20  21
DOCKED: ATOM     22  C   UNL     1      40.317  18.929 124.025 -0.15 -0.00    +0.000 A 
DOCKED: ATOM     23  C   UNL     1      41.399  18.056 124.160 -0.27 -0.00    +0.000 A 
DOCKED: ATOM     24  N   UNL     1      41.572  17.704 125.455 -0.24 -0.00    +0.000 N 
DOCKED: ATOM     25  C   UNL     1      40.597  18.328 126.138 -0.32 -0.00    +0.000 A 
DOCKED: ATOM     26  C   UNL     1      39.808  19.077 125.302 -0.18 -0.00    +0.000 A 
DOCKED: ATOM     27  C   UNL     1      38.711  19.798 125.776 -0.11 -0.00    +0.000 A 
DOCKED: ATOM     28  C   UNL     1      38.435  19.742 127.155 -0.11 -0.00    +0.000 A 
DOCKED: ATOM     29  C   UNL     1      39.250  18.975 128.017 -0.18 -0.00    +0.000 A 
DOCKED: ATOM     30  C   UNL     1      40.347  18.254 127.508 -0.33 -0.00    +0.000 A 
DOCKED: ATOM     31  C   UNL     1      42.281  17.582 123.049 -0.32 -0.00    +0.000 C 
DOCKED: ATOM     32  H   UNL     1      42.270  17.114 125.821 -0.43 -0.00    +0.000 HD
DOCKED: ATOM     33  CM  UNL     1      40.766  18.396 125.030 +0.00 -0.00    +0.000 AC
DOCKED: ATOM     34  CM  UNL     1      39.525  19.029 126.650 +0.00 -0.00    +0.000 AC
DOCKED: ENDBRANCH  20  21
DOCKED: ENDBRANCH  19  20
DOCKED: ENDBRANCH   1  19
DOCKED: TORSDOF 8DOCKED: TER
DOCKED: ENDMDL
________________________________________________________________________________


	BEGINNING GENETIC ALGORITHM DOCKING 67 of 100
Run: 67 Seed: 2145376753 368040921 [ Run 67 of 100 GA/GALS ]
Beginning LAMARCKIAN GENETIC ALGORITHM (LGA), with a maximum of 2500000 energy evaluations.

Final-Value: -15.510


	FINAL GENETIC ALGORITHM DOCKED STATE
	_______________________________________________


Detailed state:  trans 35.078 17.989 124.059 quatxyzw 0.387851 -0.473993 0.637528 -0.467397 center 0.698 0.076 -0.072 ntor 8 -12.3669 88.0332 43.3458 47.1985 -7.1272 -156.9693 -52.1366 141.0398
State:	 35.078  17.989 124.059   0.439 -0.536  0.721 -124.269    -12.37   88.03   43.35   47.20   -7.13 -156.97  -52.14  141.04

DOCKED: MODEL       67
DOCKED: USER    Run = 67
DOCKED: USER    DPF = ligand_dock.biased.dpf
DOCKED: USER  
DOCKED: USER    Estimated Free Energy of Binding    =  -11.01 kcal/mol  [=(1)+(2)+(3)-(4)]
DOCKED: USER    Estimated Inhibition Constant, Ki   =    8.57 nM (nanomolar)  [Temperature = 298.15 K]
DOCKED: USER    
DOCKED: USER    (1) Final Intermolecular Energy     =  -13.39 kcal/mol
DOCKED: USER        vdW + Hbond + desolv Energy     =  -13.39 kcal/mol
DOCKED: USER        Electrostatic Energy            =   +0.00 kcal/mol
DOCKED: USER    (2) Final Total Internal Energy     =   -2.12 kcal/mol
DOCKED: USER    (3) Torsional Free Energy           =   +2.39 kcal/mol
DOCKED: USER    (4) Unbound System's Energy  [=(2)] =   -2.12 kcal/mol
DOCKED: USER    
DOCKED: USER    
DOCKED: USER    NEWDPF move ligand.dum.pdbqt
DOCKED: USER    NEWDPF about 0.698000 0.076000 -0.072000
DOCKED: USER    NEWDPF tran0 35.077689 17.989364 124.059341
DOCKED: USER    NEWDPF quaternion0 0.387851 -0.473993 0.637528 -0.467397
DOCKED: USER    NEWDPF axisangle0 0.438722 -0.536162 0.721147 -124.269036
DOCKED: USER    NEWDPF quat0 0.438722 -0.536162 0.721147 -124.269036
DOCKED: USER    NEWDPF dihe0 -12.37 88.03 43.35 47.20 -7.13 -156.97 -52.14 141.04 
DOCKED: USER  keepresnum = 1 
DOCKED: USER  
DOCKED: REMARK  Name = 
DOCKED: REMARK  9 active torsions:
DOCKED: REMARK  status: ('A' for Active; 'I' for Inactive)
DOCKED: REMARK    1  A    between atoms: C_2  and  C_3
DOCKED: REMARK    2  A    between atoms: C_4  and  C_5
DOCKED: REMARK    3  A    between atoms: C_8  and  C_9
DOCKED: REMARK    4  A    between atoms: C_9  and  N_10
DOCKED: REMARK    5  A    between atoms: N_10  and  C_11
DOCKED: REMARK    6  A    between atoms: C_11  and  C_12
DOCKED: REMARK    7  A    between atoms: C_12  and  C_13
DOCKED: REMARK    8  A    between atoms: C_14  and  C_22
DOCKED: REMARK    9  A    between atoms: N_25  and  O_26
DOCKED: REMARK                            x       y       z     vdW  Elec       q    Type
DOCKED: REMARK                         _______ _______ _______ _____ _____    ______ ____
DOCKED: USER                              x       y       z     vdW  Elec       q    Type
DOCKED: USER                           _______ _______ _______ _____ _____    ______ ____
DOCKED: ROOT
DOCKED: ATOM      1  N   UNL     1      34.770  17.919 122.935 -0.33 -0.00    +0.000 N 
DOCKED: ATOM      2  H   UNL     1      34.906  18.922 122.806 -0.02 -0.00    +0.000 HD
DOCKED: ATOM      3  H   UNL     1      33.839  17.714 123.295 -0.03 -0.00    +0.000 HD
DOCKED: ENDROOT
DOCKED: BRANCH   1   4
DOCKED: ATOM      4  C   UNL     1      35.750  17.431 123.915 -0.32 -0.00    +0.000 C 
DOCKED: BRANCH   4   8
DOCKED: ATOM      5  C   UNL     1      36.781  13.307 123.117 -0.52 -0.00    +0.000 A 
DOCKED: ATOM      6  C   UNL     1      35.535  13.638 123.686 -0.40 -0.00    +0.000 A 
DOCKED: ATOM      7  C   UNL     1      35.202  14.972 123.937 -0.50 -0.00    +0.000 A 
DOCKED: ATOM      8  C   UNL     1      36.096  16.002 123.607 -0.36 -0.00    +0.000 A 
DOCKED: ATOM      9  C   UNL     1      37.336  15.678 123.038 -0.31 -0.00    +0.000 A 
DOCKED: ATOM     10  C   UNL     1      37.669  14.344 122.784 -0.42 -0.00    +0.000 A 
DOCKED: ATOM     11  CM  UNL     1      36.437  14.656 123.362 +0.00 -0.00    +0.000 AC
DOCKED: BRANCH   5  12
DOCKED: ATOM     12  C   UNL     1      36.305  10.901 122.674 -0.69 -0.00    +0.000 C 
DOCKED: ATOM     13  C   UNL     1      37.179  11.909 122.818 -0.58 -0.00    +0.000 C 
DOCKED: BRANCH  11  14
DOCKED: ATOM     14  O   UNL     1      37.065   9.225 121.207 -2.73 -0.00    +0.000 OA
DOCKED: ATOM     15  C   UNL     1      36.706   9.509 122.379 -0.71 -0.00    +0.000 C 
DOCKED: ATOM     16  N   UNL     1      36.676   8.474 123.372 -0.67 -0.00    +0.000 N 
DOCKED: ATOM     17  H   UNL     1      36.306   8.661 124.265 -0.28 -0.00    +0.000 HD
DOCKED: BRANCH  15  17
DOCKED: ATOM     18  O   UNL     1      37.153   7.240 123.082 -2.00 -0.00    +0.000 OA
DOCKED: ATOM     19  H   UNL     1      37.295   7.163 122.126 -0.15 -0.00    +0.000 HD
DOCKED: ENDBRANCH  15  17
DOCKED: ENDBRANCH  11  14
DOCKED: ENDBRANCH   5  12
DOCKED: ENDBRANCH   4   8
DOCKED: ENDBRANCH   1   4
DOCKED: BRANCH   1  19
DOCKED: ATOM     20  C   UNL     1      34.909  17.252 121.631 -0.27 -0.00    +0.000 C 
DOCKED: BRANCH  19  20
DOCKED: ATOM     21  C   UNL     1      34.995  18.252 120.466 -0.27 -0.00    +0.000 C 
DOCKED: BRANCH  20  21
DOCKED: ATOM     22  C   UNL     1      35.213  17.525 119.170 -0.14 -0.00    +0.000 A 
DOCKED: ATOM     23  C   UNL     1      34.622  17.794 117.934 -0.13 -0.00    +0.000 A 
DOCKED: ATOM     24  N   UNL     1      35.010  16.884 117.010 -0.11 -0.00    +0.000 N 
DOCKED: ATOM     25  C   UNL     1      35.823  16.030 117.655 -0.16 -0.00    +0.000 A 
DOCKED: ATOM     26  C   UNL     1      35.965  16.383 118.974 -0.12 -0.00    +0.000 A 
DOCKED: ATOM     27  C   UNL     1      36.742  15.630 119.855 -0.16 -0.00    +0.000 A 
DOCKED: ATOM     28  C   UNL     1      37.392  14.489 119.349 -0.27 -0.00    +0.000 A 
DOCKED: ATOM     29  C   UNL     1      37.249  14.129 117.991 -0.32 -0.00    +0.000 A 
DOCKED: ATOM     30  C   UNL     1      36.454  14.905 117.127 -0.24 -0.00    +0.000 A 
DOCKED: ATOM     31  C   UNL     1      33.707  18.939 117.634 -0.14 -0.00    +0.000 C 
DOCKED: ATOM     32  H   UNL     1      34.751  16.856 116.060 +0.00 -0.00    +0.000 HD
DOCKED: ATOM     33  CM  UNL     1      35.316  16.923 118.112 +0.00 -0.00    +0.000 AC
DOCKED: ATOM     34  CM  UNL     1      36.604  15.261 118.491 +0.00 -0.00    +0.000 AC
DOCKED: ENDBRANCH  20  21
DOCKED: ENDBRANCH  19  20
DOCKED: ENDBRANCH   1  19
DOCKED: TORSDOF 8DOCKED: TER
DOCKED: ENDMDL
________________________________________________________________________________


	BEGINNING GENETIC ALGORITHM DOCKING 68 of 100
Run: 68 Seed: 1270597676 409255420 [ Run 68 of 100 GA/GALS ]
Beginning LAMARCKIAN GENETIC ALGORITHM (LGA), with a maximum of 2500000 energy evaluations.

Final-Value: -15.428


	FINAL GENETIC ALGORITHM DOCKED STATE
	_______________________________________________


Detailed state:  trans 34.790 18.169 122.725 quatxyzw 0.296249 -0.527969 0.742117 -0.287658 center 0.698 0.076 -0.072 ntor 8 6.0296 18.8015 114.2866 -28.5656 -142.6182 -179.0296 -123.1381 121.1397
State:	 34.790  18.169 122.725   0.309 -0.551  0.775 -146.564      6.03   18.80  114.29  -28.57 -142.62 -179.03 -123.14  121.14

DOCKED: MODEL       68
DOCKED: USER    Run = 68
DOCKED: USER    DPF = ligand_dock.biased.dpf
DOCKED: USER  
DOCKED: USER    Estimated Free Energy of Binding    =  -11.34 kcal/mol  [=(1)+(2)+(3)-(4)]
DOCKED: USER    Estimated Inhibition Constant, Ki   =    4.86 nM (nanomolar)  [Temperature = 298.15 K]
DOCKED: USER    
DOCKED: USER    (1) Final Intermolecular Energy     =  -13.73 kcal/mol
DOCKED: USER        vdW + Hbond + desolv Energy     =  -13.73 kcal/mol
DOCKED: USER        Electrostatic Energy            =   +0.00 kcal/mol
DOCKED: USER    (2) Final Total Internal Energy     =   -1.70 kcal/mol
DOCKED: USER    (3) Torsional Free Energy           =   +2.39 kcal/mol
DOCKED: USER    (4) Unbound System's Energy  [=(2)] =   -1.70 kcal/mol
DOCKED: USER    
DOCKED: USER    
DOCKED: USER    NEWDPF move ligand.dum.pdbqt
DOCKED: USER    NEWDPF about 0.698000 0.076000 -0.072000
DOCKED: USER    NEWDPF tran0 34.789527 18.169075 122.724923
DOCKED: USER    NEWDPF quaternion0 0.296249 -0.527969 0.742117 -0.287658
DOCKED: USER    NEWDPF axisangle0 0.309323 -0.551269 0.774868 -146.564437
DOCKED: USER    NEWDPF quat0 0.309323 -0.551269 0.774868 -146.564437
DOCKED: USER    NEWDPF dihe0 6.03 18.80 114.29 -28.57 -142.62 -179.03 -123.14 121.14 
DOCKED: USER  keepresnum = 1 
DOCKED: USER  
DOCKED: REMARK  Name = 
DOCKED: REMARK  9 active torsions:
DOCKED: REMARK  status: ('A' for Active; 'I' for Inactive)
DOCKED: REMARK    1  A    between atoms: C_2  and  C_3
DOCKED: REMARK    2  A    between atoms: C_4  and  C_5
DOCKED: REMARK    3  A    between atoms: C_8  and  C_9
DOCKED: REMARK    4  A    between atoms: C_9  and  N_10
DOCKED: REMARK    5  A    between atoms: N_10  and  C_11
DOCKED: REMARK    6  A    between atoms: C_11  and  C_12
DOCKED: REMARK    7  A    between atoms: C_12  and  C_13
DOCKED: REMARK    8  A    between atoms: C_14  and  C_22
DOCKED: REMARK    9  A    between atoms: N_25  and  O_26
DOCKED: REMARK                            x       y       z     vdW  Elec       q    Type
DOCKED: REMARK                         _______ _______ _______ _____ _____    ______ ____
DOCKED: USER                              x       y       z     vdW  Elec       q    Type
DOCKED: USER                           _______ _______ _______ _____ _____    ______ ____
DOCKED: ROOT
DOCKED: ATOM      1  N   UNL     1      34.985  18.115 121.575 -0.30 -0.00    +0.000 N 
DOCKED: ATOM      2  H   UNL     1      34.960  19.132 121.494 -0.02 -0.00    +0.000 HD
DOCKED: ATOM      3  H   UNL     1      34.048  17.716 121.525 -0.03 -0.00    +0.000 HD
DOCKED: ENDROOT
DOCKED: BRANCH   1   4
DOCKED: ATOM      4  C   UNL     1      35.558  17.758 122.879 -0.30 -0.00    +0.000 C 
DOCKED: BRANCH   4   8
DOCKED: ATOM      5  C   UNL     1      36.398  13.519 123.070 -0.50 -0.00    +0.000 A 
DOCKED: ATOM      6  C   UNL     1      35.199  14.037 123.599 -0.27 -0.00    +0.000 A 
DOCKED: ATOM      7  C   UNL     1      34.928  15.407 123.530 -0.44 -0.00    +0.000 A 
DOCKED: ATOM      8  C   UNL     1      35.836  16.281 122.915 -0.31 -0.00    +0.000 A 
DOCKED: ATOM      9  C   UNL     1      37.030  15.770 122.385 -0.27 -0.00    +0.000 A 
DOCKED: ATOM     10  C   UNL     1      37.301  14.400 122.452 -0.39 -0.00    +0.000 A 
DOCKED: ATOM     11  CM  UNL     1      36.116  14.902 122.992 +0.00 -0.00    +0.000 AC
DOCKED: BRANCH   5  12
DOCKED: ATOM     12  C   UNL     1      36.427  11.215 122.118 -0.63 -0.00    +0.000 C 
DOCKED: ATOM     13  C   UNL     1      36.730  12.073 123.105 -0.67 -0.00    +0.000 C 
DOCKED: BRANCH  11  14
DOCKED: ATOM     14  O   UNL     1      37.068   9.202 121.082 -2.74 -0.00    +0.000 OA
DOCKED: ATOM     15  C   UNL     1      36.757   9.775 122.159 -0.67 -0.00    +0.000 C 
DOCKED: ATOM     16  N   UNL     1      36.709   9.010 123.371 -0.58 -0.00    +0.000 N 
DOCKED: ATOM     17  H   UNL     1      36.374   9.423 124.200 -0.37 -0.00    +0.000 HD
DOCKED: BRANCH  15  17
DOCKED: ATOM     18  O   UNL     1      37.122   7.720 123.378 -2.29 -0.00    +0.000 OA
DOCKED: ATOM     19  H   UNL     1      37.507   7.498 122.515 -0.15 -0.00    +0.000 HD
DOCKED: ENDBRANCH  15  17
DOCKED: ENDBRANCH  11  14
DOCKED: ENDBRANCH   5  12
DOCKED: ENDBRANCH   4   8
DOCKED: ENDBRANCH   1   4
DOCKED: BRANCH   1  19
DOCKED: ATOM     20  C   UNL     1      35.768  17.571 120.455 -0.21 -0.00    +0.000 C 
DOCKED: BRANCH  19  20
DOCKED: ATOM     21  C   UNL     1      34.956  17.499 119.151 -0.13 -0.00    +0.000 C 
DOCKED: BRANCH  20  21
DOCKED: ATOM     22  C   UNL     1      34.120  18.736 118.988 -0.22 -0.00    +0.000 A 
DOCKED: ATOM     23  C   UNL     1      34.566  20.051 118.842 -0.12 -0.00    +0.000 A 
DOCKED: ATOM     24  N   UNL     1      33.520  20.908 118.791 +0.03 -0.00    +0.000 N 
DOCKED: ATOM     25  C   UNL     1      32.417  20.150 118.925 -0.21 -0.00    +0.000 A 
DOCKED: ATOM     26  C   UNL     1      32.742  18.823 119.055 -0.29 -0.00    +0.000 A 
DOCKED: ATOM     27  C   UNL     1      31.766  17.842 119.235 -0.24 -0.00    +0.000 A 
DOCKED: ATOM     28  C   UNL     1      30.421  18.253 119.272 -0.40 -0.00    +0.000 A 
DOCKED: ATOM     29  C   UNL     1      30.086  19.619 119.133 -0.32 -0.00    +0.000 A 
DOCKED: ATOM     30  C   UNL     1      31.093  20.586 118.958 -0.25 -0.00    +0.000 A 
DOCKED: ATOM     31  C   UNL     1      35.993  20.481 118.725 -0.10 -0.00    +0.000 C 
DOCKED: ATOM     32  H   UNL     1      33.558  21.885 118.677 -0.35 -0.00    +0.000 HD
DOCKED: ATOM     33  CM  UNL     1      33.475  19.771 118.916 +0.00 -0.00    +0.000 AC
DOCKED: ATOM     34  CM  UNL     1      31.421  19.213 119.096 +0.00 -0.00    +0.000 AC
DOCKED: ENDBRANCH  20  21
DOCKED: ENDBRANCH  19  20
DOCKED: ENDBRANCH   1  19
DOCKED: TORSDOF 8DOCKED: TER
DOCKED: ENDMDL
________________________________________________________________________________


	BEGINNING GENETIC ALGORITHM DOCKING 69 of 100
Run: 69 Seed: 1574478007 1854812048 [ Run 69 of 100 GA/GALS ]
Beginning LAMARCKIAN GENETIC ALGORITHM (LGA), with a maximum of 2500000 energy evaluations.

Final-Value: -15.840


	FINAL GENETIC ALGORITHM DOCKED STATE
	_______________________________________________


Detailed state:  trans 38.239 16.955 122.689 quatxyzw -0.233761 0.215280 -0.504283 -0.802938 center 0.698 0.076 -0.072 ntor 8 -4.0776 -172.2085 -58.0231 165.0061 -152.4811 147.1239 -11.6852 -31.7970
State:	 38.239  16.955 122.689  -0.392  0.361 -0.846 -73.177     -4.08 -172.21  -58.02  165.01 -152.48  147.12  -11.69  -31.80

DOCKED: MODEL       69
DOCKED: USER    Run = 69
DOCKED: USER    DPF = ligand_dock.biased.dpf
DOCKED: USER  
DOCKED: USER    Estimated Free Energy of Binding    =  -10.98 kcal/mol  [=(1)+(2)+(3)-(4)]
DOCKED: USER    Estimated Inhibition Constant, Ki   =    8.88 nM (nanomolar)  [Temperature = 298.15 K]
DOCKED: USER    
DOCKED: USER    (1) Final Intermolecular Energy     =  -13.37 kcal/mol
DOCKED: USER        vdW + Hbond + desolv Energy     =  -13.37 kcal/mol
DOCKED: USER        Electrostatic Energy            =   +0.00 kcal/mol
DOCKED: USER    (2) Final Total Internal Energy     =   -2.47 kcal/mol
DOCKED: USER    (3) Torsional Free Energy           =   +2.39 kcal/mol
DOCKED: USER    (4) Unbound System's Energy  [=(2)] =   -2.47 kcal/mol
DOCKED: USER    
DOCKED: USER    
DOCKED: USER    NEWDPF move ligand.dum.pdbqt
DOCKED: USER    NEWDPF about 0.698000 0.076000 -0.072000
DOCKED: USER    NEWDPF tran0 38.239440 16.955224 122.688581
DOCKED: USER    NEWDPF quaternion0 -0.233761 0.215280 -0.504283 -0.802938
DOCKED: USER    NEWDPF axisangle0 -0.392174 0.361171 -0.846023 -73.176891
DOCKED: USER    NEWDPF quat0 -0.392174 0.361171 -0.846023 -73.176891
DOCKED: USER    NEWDPF dihe0 -4.08 -172.21 -58.02 165.01 -152.48 147.12 -11.69 -31.80 
DOCKED: USER  keepresnum = 1 
DOCKED: USER  
DOCKED: REMARK  Name = 
DOCKED: REMARK  9 active torsions:
DOCKED: REMARK  status: ('A' for Active; 'I' for Inactive)
DOCKED: REMARK    1  A    between atoms: C_2  and  C_3
DOCKED: REMARK    2  A    between atoms: C_4  and  C_5
DOCKED: REMARK    3  A    between atoms: C_8  and  C_9
DOCKED: REMARK    4  A    between atoms: C_9  and  N_10
DOCKED: REMARK    5  A    between atoms: N_10  and  C_11
DOCKED: REMARK    6  A    between atoms: C_11  and  C_12
DOCKED: REMARK    7  A    between atoms: C_12  and  C_13
DOCKED: REMARK    8  A    between atoms: C_14  and  C_22
DOCKED: REMARK    9  A    between atoms: N_25  and  O_26
DOCKED: REMARK                            x       y       z     vdW  Elec       q    Type
DOCKED: REMARK                         _______ _______ _______ _____ _____    ______ ____
DOCKED: USER                              x       y       z     vdW  Elec       q    Type
DOCKED: USER                           _______ _______ _______ _____ _____    ______ ____
DOCKED: ROOT
DOCKED: ATOM      1  N   UNL     1      38.120  18.040 122.273 -0.10 -0.00    +0.000 N 
DOCKED: ATOM      2  H   UNL     1      37.419  17.735 121.598 +0.00 -0.00    +0.000 HD
DOCKED: ATOM      3  H   UNL     1      39.064  17.910 121.912 +0.00 -0.00    +0.000 HD
DOCKED: ENDROOT
DOCKED: BRANCH   1   4
DOCKED: ATOM      4  C   UNL     1      37.988  17.230 123.491 -0.24 -0.00    +0.000 C 
DOCKED: BRANCH   4   8
DOCKED: ATOM      5  C   UNL     1      37.066  13.126 122.483 -0.49 -0.00    +0.000 A 
DOCKED: ATOM      6  C   UNL     1      36.306  13.815 123.449 -0.50 -0.00    +0.000 A 
DOCKED: ATOM      7  C   UNL     1      36.603  15.144 123.768 -0.35 -0.00    +0.000 A 
DOCKED: ATOM      8  C   UNL     1      37.648  15.815 123.117 -0.30 -0.00    +0.000 A 
DOCKED: ATOM      9  C   UNL     1      38.406  15.134 122.152 -0.32 -0.00    +0.000 A 
DOCKED: ATOM     10  C   UNL     1      38.108  13.806 121.831 -0.40 -0.00    +0.000 A 
DOCKED: ATOM     11  CM  UNL     1      37.357  14.473 122.800 +0.00 -0.00    +0.000 AC
DOCKED: BRANCH   5  12
DOCKED: ATOM     12  C   UNL     1      37.192  10.658 122.809 -0.41 -0.00    +0.000 C 
DOCKED: ATOM     13  C   UNL     1      36.786  11.721 122.097 -0.61 -0.00    +0.000 C 
DOCKED: BRANCH  11  14
DOCKED: ATOM     14  O   UNL     1      36.688   9.009 121.207 -2.62 -0.00    +0.000 OA
DOCKED: ATOM     15  C   UNL     1      36.913   9.260 122.420 -0.68 -0.00    +0.000 C 
DOCKED: ATOM     16  N   UNL     1      36.865   8.192 123.376 -0.72 -0.00    +0.000 N 
DOCKED: ATOM     17  H   UNL     1      36.942   8.389 124.337 -0.41 -0.00    +0.000 HD
DOCKED: BRANCH  15  17
DOCKED: ATOM     18  O   UNL     1      36.711   6.912 122.959 -1.62 -0.00    +0.000 OA
DOCKED: ATOM     19  H   UNL     1      36.586   6.898 121.997 -0.08 -0.00    +0.000 HD
DOCKED: ENDBRANCH  15  17
DOCKED: ENDBRANCH  11  14
DOCKED: ENDBRANCH   5  12
DOCKED: ENDBRANCH   4   8
DOCKED: ENDBRANCH   1   4
DOCKED: BRANCH   1  19
DOCKED: ATOM     20  C   UNL     1      37.931  19.475 122.537 -0.09 -0.00    +0.000 C 
DOCKED: BRANCH  19  20
DOCKED: ATOM     21  C   UNL     1      36.457  19.902 122.429 -0.16 -0.00    +0.000 C 
DOCKED: BRANCH  20  21
DOCKED: ATOM     22  C   UNL     1      35.556  18.773 122.840 -0.21 -0.00    +0.000 A 
DOCKED: ATOM     23  C   UNL     1      34.816  17.929 122.009 -0.31 -0.00    +0.000 A 
DOCKED: ATOM     24  N   UNL     1      34.067  17.072 122.742 -0.41 -0.00    +0.000 N 
DOCKED: ATOM     25  C   UNL     1      34.309  17.380 124.027 -0.38 -0.00    +0.000 A 
DOCKED: ATOM     26  C   UNL     1      35.205  18.415 124.128 -0.26 -0.00    +0.000 A 
DOCKED: ATOM     27  C   UNL     1      35.594  18.932 125.365 -0.20 -0.00    +0.000 A 
DOCKED: ATOM     28  C   UNL     1      35.044  18.351 126.522 -0.19 -0.00    +0.000 A 
DOCKED: ATOM     29  C   UNL     1      34.126  17.282 126.418 -0.31 -0.00    +0.000 A 
DOCKED: ATOM     30  C   UNL     1      33.748  16.786 125.157 -0.23 -0.00    +0.000 A 
DOCKED: ATOM     31  C   UNL     1      34.848  17.929 120.514 -0.28 -0.00    +0.000 C 
DOCKED: ATOM     32  H   UNL     1      33.469  16.368 122.402 -0.04 -0.00    +0.000 HD
DOCKED: ATOM     33  CM  UNL     1      34.768  17.887 123.136 -0.04 -0.00    +0.000 AC
DOCKED: ATOM     34  CM  UNL     1      34.671  17.857 125.269 -0.45 -0.00    +0.000 AC
DOCKED: ENDBRANCH  20  21
DOCKED: ENDBRANCH  19  20
DOCKED: ENDBRANCH   1  19
DOCKED: TORSDOF 8DOCKED: TER
DOCKED: ENDMDL
________________________________________________________________________________


	BEGINNING GENETIC ALGORITHM DOCKING 70 of 100
Run: 70 Seed: 543989898 125724689 [ Run 70 of 100 GA/GALS ]
Beginning LAMARCKIAN GENETIC ALGORITHM (LGA), with a maximum of 2500000 energy evaluations.

Final-Value: -15.990


	FINAL GENETIC ALGORITHM DOCKED STATE
	_______________________________________________


Detailed state:  trans 36.827 16.976 122.782 quatxyzw -0.244082 0.220901 -0.633065 -0.700611 center 0.698 0.076 -0.072 ntor 8 6.7755 4.8136 115.0716 179.3213 142.9655 150.3392 179.5326 3.7220
State:	 36.827  16.976 122.782  -0.342  0.310 -0.887 -91.048      6.78    4.81  115.07  179.32  142.97  150.34  179.53    3.72

DOCKED: MODEL       70
DOCKED: USER    Run = 70
DOCKED: USER    DPF = ligand_dock.biased.dpf
DOCKED: USER  
DOCKED: USER    Estimated Free Energy of Binding    =  -11.03 kcal/mol  [=(1)+(2)+(3)-(4)]
DOCKED: USER    Estimated Inhibition Constant, Ki   =    8.26 nM (nanomolar)  [Temperature = 298.15 K]
DOCKED: USER    
DOCKED: USER    (1) Final Intermolecular Energy     =  -13.41 kcal/mol
DOCKED: USER        vdW + Hbond + desolv Energy     =  -13.41 kcal/mol
DOCKED: USER        Electrostatic Energy            =   +0.00 kcal/mol
DOCKED: USER    (2) Final Total Internal Energy     =   -2.58 kcal/mol
DOCKED: USER    (3) Torsional Free Energy           =   +2.39 kcal/mol
DOCKED: USER    (4) Unbound System's Energy  [=(2)] =   -2.58 kcal/mol
DOCKED: USER    
DOCKED: USER    
DOCKED: USER    NEWDPF move ligand.dum.pdbqt
DOCKED: USER    NEWDPF about 0.698000 0.076000 -0.072000
DOCKED: USER    NEWDPF tran0 36.827435 16.975778 122.782262
DOCKED: USER    NEWDPF quaternion0 -0.244082 0.220901 -0.633065 -0.700611
DOCKED: USER    NEWDPF axisangle0 -0.342070 0.309583 -0.887213 -91.047920
DOCKED: USER    NEWDPF quat0 -0.342070 0.309583 -0.887213 -91.047920
DOCKED: USER    NEWDPF dihe0 6.78 4.81 115.07 179.32 142.97 150.34 179.53 3.72 
DOCKED: USER  keepresnum = 1 
DOCKED: USER  
DOCKED: REMARK  Name = 
DOCKED: REMARK  9 active torsions:
DOCKED: REMARK  status: ('A' for Active; 'I' for Inactive)
DOCKED: REMARK    1  A    between atoms: C_2  and  C_3
DOCKED: REMARK    2  A    between atoms: C_4  and  C_5
DOCKED: REMARK    3  A    between atoms: C_8  and  C_9
DOCKED: REMARK    4  A    between atoms: C_9  and  N_10
DOCKED: REMARK    5  A    between atoms: N_10  and  C_11
DOCKED: REMARK    6  A    between atoms: C_11  and  C_12
DOCKED: REMARK    7  A    between atoms: C_12  and  C_13
DOCKED: REMARK    8  A    between atoms: C_14  and  C_22
DOCKED: REMARK    9  A    between atoms: N_25  and  O_26
DOCKED: REMARK                            x       y       z     vdW  Elec       q    Type
DOCKED: REMARK                         _______ _______ _______ _____ _____    ______ ____
DOCKED: USER                              x       y       z     vdW  Elec       q    Type
DOCKED: USER                           _______ _______ _______ _____ _____    ______ ____
DOCKED: ROOT
DOCKED: ATOM      1  N   UNL     1      37.035  17.992 122.245 -0.13 -0.00    +0.000 N 
DOCKED: ATOM      2  H   UNL     1      36.260  17.841 121.599 +0.00 -0.00    +0.000 HD
DOCKED: ATOM      3  H   UNL     1      37.887  17.541 121.915 +0.00 -0.00    +0.000 HD
DOCKED: ENDROOT
DOCKED: BRANCH   1   4
DOCKED: ATOM      4  C   UNL     1      36.688  17.403 123.545 -0.26 -0.00    +0.000 C 
DOCKED: BRANCH   4   8
DOCKED: ATOM      5  C   UNL     1      36.909  13.087 123.356 -0.54 -0.00    +0.000 A 
DOCKED: ATOM      6  C   UNL     1      35.746  13.725 123.832 -0.48 -0.00    +0.000 A 
DOCKED: ATOM      7  C   UNL     1      35.676  15.121 123.886 -0.46 -0.00    +0.000 A 
DOCKED: ATOM      8  C   UNL     1      36.754  15.904 123.448 -0.32 -0.00    +0.000 A 
DOCKED: ATOM      9  C   UNL     1      37.913  15.273 122.971 -0.33 -0.00    +0.000 A 
DOCKED: ATOM     10  C   UNL     1      37.983  13.878 122.915 -0.44 -0.00    +0.000 A 
DOCKED: ATOM     11  CM  UNL     1      36.830  14.498 123.402 +0.00 -0.00    +0.000 AC
DOCKED: BRANCH   5  12
DOCKED: ATOM     12  C   UNL     1      36.728  10.904 122.166 -0.63 -0.00    +0.000 C 
DOCKED: ATOM     13  C   UNL     1      37.032  11.610 123.266 -0.67 -0.00    +0.000 C 
DOCKED: BRANCH  11  14
DOCKED: ATOM     14  O   UNL     1      36.934   8.904 120.942 -2.68 -0.00    +0.000 OA
DOCKED: ATOM     15  C   UNL     1      36.850   9.434 122.081 -0.67 -0.00    +0.000 C 
DOCKED: ATOM     16  N   UNL     1      36.848   8.595 123.245 -0.68 -0.00    +0.000 N 
DOCKED: ATOM     17  H   UNL     1      36.686   8.987 124.133 -0.44 -0.00    +0.000 HD
DOCKED: BRANCH  15  17
DOCKED: ATOM     18  O   UNL     1      37.068   7.263 123.123 -2.08 -0.00    +0.000 OA
DOCKED: ATOM     19  H   UNL     1      37.314   7.058 122.208 -0.18 -0.00    +0.000 HD
DOCKED: ENDBRANCH  15  17
DOCKED: ENDBRANCH  11  14
DOCKED: ENDBRANCH   5  12
DOCKED: ENDBRANCH   4   8
DOCKED: ENDBRANCH   1   4
DOCKED: BRANCH   1  19
DOCKED: ATOM     20  C   UNL     1      37.296  19.437 122.342 -0.12 -0.00    +0.000 C 
DOCKED: BRANCH  19  20
DOCKED: ATOM     21  C   UNL     1      38.798  19.764 122.318 -0.05 -0.00    +0.000 C 
DOCKED: BRANCH  20  21
DOCKED: ATOM     22  C   UNL     1      39.581  18.670 122.985 -0.10 -0.00    +0.000 A 
DOCKED: ATOM     23  C   UNL     1      39.909  18.563 124.339 -0.19 -0.00    +0.000 A 
DOCKED: ATOM     24  N   UNL     1      40.683  17.475 124.558 -0.32 -0.00    +0.000 N 
DOCKED: ATOM     25  C   UNL     1      40.867  16.906 123.354 -0.29 -0.00    +0.000 A 
DOCKED: ATOM     26  C   UNL     1      40.217  17.609 122.371 -0.14 -0.00    +0.000 A 
DOCKED: ATOM     27  C   UNL     1      40.282  17.226 121.030 -0.10 -0.00    +0.000 A 
DOCKED: ATOM     28  C   UNL     1      41.034  16.081 120.709 -0.18 -0.00    +0.000 A 
DOCKED: ATOM     29  C   UNL     1      41.698  15.355 121.722 -0.32 -0.00    +0.000 A 
DOCKED: ATOM     30  C   UNL     1      41.619  15.768 123.065 -0.40 -0.00    +0.000 A 
DOCKED: ATOM     31  C   UNL     1      39.457  19.489 125.423 -0.15 -0.00    +0.000 C 
DOCKED: ATOM     32  H   UNL     1      41.038  17.164 125.422 -0.06 -0.00    +0.000 HD
DOCKED: ATOM     33  CM  UNL     1      40.265  17.833 123.555 +0.00 -0.00    +0.000 AC
DOCKED: ATOM     34  CM  UNL     1      40.953  16.491 122.043 +0.00 -0.00    +0.000 AC
DOCKED: ENDBRANCH  20  21
DOCKED: ENDBRANCH  19  20
DOCKED: ENDBRANCH   1  19
DOCKED: TORSDOF 8DOCKED: TER
DOCKED: ENDMDL
________________________________________________________________________________


	BEGINNING GENETIC ALGORITHM DOCKING 71 of 100
Run: 71 Seed: 16162705 366557927 [ Run 71 of 100 GA/GALS ]
Beginning LAMARCKIAN GENETIC ALGORITHM (LGA), with a maximum of 2500000 energy evaluations.

Final-Value: -15.948


	FINAL GENETIC ALGORITHM DOCKED STATE
	_______________________________________________


Detailed state:  trans 36.270 17.316 122.307 quatxyzw 0.115557 -0.267699 0.765182 0.574003 center 0.698 0.076 -0.072 ntor 8 3.6065 -32.5622 -165.7458 176.8075 96.8203 94.1680 -145.4465 30.2984
State:	 36.270  17.316 122.307   0.141 -0.327  0.934 109.940      3.61  -32.56 -165.75  176.81   96.82   94.17 -145.45   30.30

DOCKED: MODEL       71
DOCKED: USER    Run = 71
DOCKED: USER    DPF = ligand_dock.biased.dpf
DOCKED: USER  
DOCKED: USER    Estimated Free Energy of Binding    =  -11.21 kcal/mol  [=(1)+(2)+(3)-(4)]
DOCKED: USER    Estimated Inhibition Constant, Ki   =    6.09 nM (nanomolar)  [Temperature = 298.15 K]
DOCKED: USER    
DOCKED: USER    (1) Final Intermolecular Energy     =  -13.59 kcal/mol
DOCKED: USER        vdW + Hbond + desolv Energy     =  -13.59 kcal/mol
DOCKED: USER        Electrostatic Energy            =   +0.00 kcal/mol
DOCKED: USER    (2) Final Total Internal Energy     =   -2.35 kcal/mol
DOCKED: USER    (3) Torsional Free Energy           =   +2.39 kcal/mol
DOCKED: USER    (4) Unbound System's Energy  [=(2)] =   -2.35 kcal/mol
DOCKED: USER    
DOCKED: USER    
DOCKED: USER    NEWDPF move ligand.dum.pdbqt
DOCKED: USER    NEWDPF about 0.698000 0.076000 -0.072000
DOCKED: USER    NEWDPF tran0 36.270386 17.316100 122.306866
DOCKED: USER    NEWDPF quaternion0 0.115557 -0.267699 0.765182 0.574003
DOCKED: USER    NEWDPF axisangle0 0.141121 -0.326920 0.934456 109.940313
DOCKED: USER    NEWDPF quat0 0.141121 -0.326920 0.934456 109.940313
DOCKED: USER    NEWDPF dihe0 3.61 -32.56 -165.75 176.81 96.82 94.17 -145.45 30.30 
DOCKED: USER  keepresnum = 1 
DOCKED: USER  
DOCKED: REMARK  Name = 
DOCKED: REMARK  9 active torsions:
DOCKED: REMARK  status: ('A' for Active; 'I' for Inactive)
DOCKED: REMARK    1  A    between atoms: C_2  and  C_3
DOCKED: REMARK    2  A    between atoms: C_4  and  C_5
DOCKED: REMARK    3  A    between atoms: C_8  and  C_9
DOCKED: REMARK    4  A    between atoms: C_9  and  N_10
DOCKED: REMARK    5  A    between atoms: N_10  and  C_11
DOCKED: REMARK    6  A    between atoms: C_11  and  C_12
DOCKED: REMARK    7  A    between atoms: C_12  and  C_13
DOCKED: REMARK    8  A    between atoms: C_14  and  C_22
DOCKED: REMARK    9  A    between atoms: N_25  and  O_26
DOCKED: REMARK                            x       y       z     vdW  Elec       q    Type
DOCKED: REMARK                         _______ _______ _______ _____ _____    ______ ____
DOCKED: USER                              x       y       z     vdW  Elec       q    Type
DOCKED: USER                           _______ _______ _______ _____ _____    ______ ____
DOCKED: ROOT
DOCKED: ATOM      1  N   UNL     1      36.941  18.197 121.934 -0.12 -0.00    +0.000 N 
DOCKED: ATOM      2  H   UNL     1      36.262  18.446 121.214 +0.00 -0.00    +0.000 HD
DOCKED: ATOM      3  H   UNL     1      37.570  17.462 121.611 +0.00 -0.00    +0.000 HD
DOCKED: ENDROOT
DOCKED: BRANCH   1   4
DOCKED: ATOM      4  C   UNL     1      36.221  17.688 123.108 -0.25 -0.00    +0.000 C 
DOCKED: BRANCH   4   8
DOCKED: ATOM      5  C   UNL     1      36.385  13.366 123.137 -0.51 -0.00    +0.000 A 
DOCKED: ATOM      6  C   UNL     1      35.779  14.068 124.198 -0.40 -0.00    +0.000 A 
DOCKED: ATOM      7  C   UNL     1      35.722  15.465 124.183 -0.41 -0.00    +0.000 A 
DOCKED: ATOM      8  C   UNL     1      36.249  16.186 123.102 -0.32 -0.00    +0.000 A 
DOCKED: ATOM      9  C   UNL     1      36.852  15.491 122.042 -0.26 -0.00    +0.000 A 
DOCKED: ATOM     10  C   UNL     1      36.907  14.095 122.055 -0.33 -0.00    +0.000 A 
DOCKED: ATOM     11  CM  UNL     1      36.316  14.778 123.120 +0.00 -0.00    +0.000 AC
DOCKED: BRANCH   5  12
DOCKED: ATOM     12  C   UNL     1      36.884  11.189 122.030 -0.59 -0.00    +0.000 C 
DOCKED: ATOM     13  C   UNL     1      36.461  11.884 123.097 -0.69 -0.00    +0.000 C 
DOCKED: BRANCH  11  14
DOCKED: ATOM     14  O   UNL     1      37.058   9.146 120.875 -2.73 -0.00    +0.000 OA
DOCKED: ATOM     15  C   UNL     1      36.956   9.714 121.994 -0.62 -0.00    +0.000 C 
DOCKED: ATOM     16  N   UNL     1      36.887   8.912 123.182 -0.66 -0.00    +0.000 N 
DOCKED: ATOM     17  H   UNL     1      36.711   9.337 124.052 -0.47 -0.00    +0.000 HD
DOCKED: BRANCH  15  17
DOCKED: ATOM     18  O   UNL     1      37.064   7.571 123.108 -2.28 -0.00    +0.000 OA
DOCKED: ATOM     19  H   UNL     1      37.283   7.323 122.196 -0.12 -0.00    +0.000 HD
DOCKED: ENDBRANCH  15  17
DOCKED: ENDBRANCH  11  14
DOCKED: ENDBRANCH   5  12
DOCKED: ENDBRANCH   4   8
DOCKED: ENDBRANCH   1   4
DOCKED: BRANCH   1  19
DOCKED: ATOM     20  C   UNL     1      37.754  19.382 122.249 -0.10 -0.00    +0.000 C 
DOCKED: BRANCH  19  20
DOCKED: ATOM     21  C   UNL     1      39.142  19.334 121.588 -0.04 -0.00    +0.000 C 
DOCKED: BRANCH  20  21
DOCKED: ATOM     22  C   UNL     1      40.061  18.441 122.371 -0.09 -0.00    +0.000 A 
DOCKED: ATOM     23  C   UNL     1      40.924  18.806 123.407 -0.15 -0.00    +0.000 A 
DOCKED: ATOM     24  N   UNL     1      41.646  17.741 123.825 -0.32 -0.00    +0.000 N 
DOCKED: ATOM     25  C   UNL     1      41.266  16.712 123.049 -0.33 -0.00    +0.000 A 
DOCKED: ATOM     26  C   UNL     1      40.308  17.100 122.146 -0.17 -0.00    +0.000 A 
DOCKED: ATOM     27  C   UNL     1      39.774  16.210 121.213 -0.18 -0.00    +0.000 A 
DOCKED: ATOM     28  C   UNL     1      40.243  14.884 121.227 -0.17 -0.00    +0.000 A 
DOCKED: ATOM     29  C   UNL     1      41.226  14.483 122.159 -0.24 -0.00    +0.000 A 
DOCKED: ATOM     30  C   UNL     1      41.750  15.404 123.085 -0.40 +0.00    +0.000 A 
DOCKED: ATOM     31  C   UNL     1      41.034  20.169 124.012 -0.10 -0.00    +0.000 C 
DOCKED: ATOM     32  H   UNL     1      42.313  17.724 124.550 -0.58 -0.00    +0.000 HD
DOCKED: ATOM     33  CM  UNL     1      40.866  17.760 122.987 +0.00 -0.00    +0.000 AC
DOCKED: ATOM     34  CM  UNL     1      40.761  15.799 122.147 +0.00 -0.00    +0.000 AC
DOCKED: ENDBRANCH  20  21
DOCKED: ENDBRANCH  19  20
DOCKED: ENDBRANCH   1  19
DOCKED: TORSDOF 8DOCKED: TER
DOCKED: ENDMDL
________________________________________________________________________________


	BEGINNING GENETIC ALGORITHM DOCKING 72 of 100
Run: 72 Seed: 1540636167 247737071 [ Run 72 of 100 GA/GALS ]
Beginning LAMARCKIAN GENETIC ALGORITHM (LGA), with a maximum of 2500000 energy evaluations.

Final-Value: -14.827


	FINAL GENETIC ALGORITHM DOCKED STATE
	_______________________________________________


Detailed state:  trans 36.989 15.042 122.660 quatxyzw -0.540636 0.688257 0.369921 0.311727 center 0.698 0.076 -0.072 ntor 8 142.2378 -156.6886 -143.9273 -180.0000 -120.5241 131.0437 159.0781 -5.1484
State:	 36.989  15.042 122.660  -0.569  0.724  0.389 143.673    142.24 -156.69 -143.93 -180.00 -120.52  131.04  159.08   -5.15

DOCKED: MODEL       72
DOCKED: USER    Run = 72
DOCKED: USER    DPF = ligand_dock.biased.dpf
DOCKED: USER  
DOCKED: USER    Estimated Free Energy of Binding    =  -11.21 kcal/mol  [=(1)+(2)+(3)-(4)]
DOCKED: USER    Estimated Inhibition Constant, Ki   =    6.05 nM (nanomolar)  [Temperature = 298.15 K]
DOCKED: USER    
DOCKED: USER    (1) Final Intermolecular Energy     =  -13.60 kcal/mol
DOCKED: USER        vdW + Hbond + desolv Energy     =  -13.60 kcal/mol
DOCKED: USER        Electrostatic Energy            =   +0.00 kcal/mol
DOCKED: USER    (2) Final Total Internal Energy     =   -1.23 kcal/mol
DOCKED: USER    (3) Torsional Free Energy           =   +2.39 kcal/mol
DOCKED: USER    (4) Unbound System's Energy  [=(2)] =   -1.23 kcal/mol
DOCKED: USER    
DOCKED: USER    
DOCKED: USER    NEWDPF move ligand.dum.pdbqt
DOCKED: USER    NEWDPF about 0.698000 0.076000 -0.072000
DOCKED: USER    NEWDPF tran0 36.988875 15.042335 122.659654
DOCKED: USER    NEWDPF quaternion0 -0.540636 0.688257 0.369921 0.311727
DOCKED: USER    NEWDPF axisangle0 -0.568988 0.724350 0.389320 143.673343
DOCKED: USER    NEWDPF quat0 -0.568988 0.724350 0.389320 143.673343
DOCKED: USER    NEWDPF dihe0 142.24 -156.69 -143.93 -180.00 -120.52 131.04 159.08 -5.15 
DOCKED: USER  keepresnum = 1 
DOCKED: USER  
DOCKED: REMARK  Name = 
DOCKED: REMARK  9 active torsions:
DOCKED: REMARK  status: ('A' for Active; 'I' for Inactive)
DOCKED: REMARK    1  A    between atoms: C_2  and  C_3
DOCKED: REMARK    2  A    between atoms: C_4  and  C_5
DOCKED: REMARK    3  A    between atoms: C_8  and  C_9
DOCKED: REMARK    4  A    between atoms: C_9  and  N_10
DOCKED: REMARK    5  A    between atoms: N_10  and  C_11
DOCKED: REMARK    6  A    between atoms: C_11  and  C_12
DOCKED: REMARK    7  A    between atoms: C_12  and  C_13
DOCKED: REMARK    8  A    between atoms: C_14  and  C_22
DOCKED: REMARK    9  A    between atoms: N_25  and  O_26
DOCKED: REMARK                            x       y       z     vdW  Elec       q    Type
DOCKED: REMARK                         _______ _______ _______ _____ _____    ______ ____
DOCKED: USER                              x       y       z     vdW  Elec       q    Type
DOCKED: USER                           _______ _______ _______ _____ _____    ______ ____
DOCKED: ROOT
DOCKED: ATOM      1  N   UNL     1      37.102  16.050 123.240 -0.30 -0.00    +0.000 N 
DOCKED: ATOM      2  H   UNL     1      38.020  15.777 123.590 -0.02 -0.00    +0.000 HD
DOCKED: ATOM      3  H   UNL     1      36.356  15.688 123.834 -0.02 -0.00    +0.000 HD
DOCKED: ENDROOT
DOCKED: BRANCH   1   4
DOCKED: ATOM      4  C   UNL     1      36.922  15.485 121.896 -0.29 -0.00    +0.000 C 
DOCKED: BRANCH   4   8
DOCKED: ATOM      5  C   UNL     1      36.829  11.165 122.093 -0.53 -0.00    +0.000 A 
DOCKED: ATOM      6  C   UNL     1      37.379  11.820 120.973 -0.44 -0.00    +0.000 A 
DOCKED: ATOM      7  C   UNL     1      37.413  13.217 120.916 -0.42 -0.00    +0.000 A 
DOCKED: ATOM      8  C   UNL     1      36.919  13.985 121.980 -0.33 -0.00    +0.000 A 
DOCKED: ATOM      9  C   UNL     1      36.372  13.337 123.098 -0.51 -0.00    +0.000 A 
DOCKED: ATOM     10  C   UNL     1      36.340  11.940 123.157 -0.61 -0.00    +0.000 A 
DOCKED: ATOM     11  CM  UNL     1      36.875  12.577 122.036 +0.00 -0.00    +0.000 AC
DOCKED: BRANCH   5  12
DOCKED: ATOM     12  C   UNL     1      36.042   9.037 123.125 -0.65 -0.00    +0.000 C 
DOCKED: ATOM     13  C   UNL     1      36.779   9.686 122.211 -0.67 -0.00    +0.000 C 
DOCKED: BRANCH  11  14
DOCKED: ATOM     14  O   UNL     1      37.067   6.918 123.082 -1.73 -0.00    +0.000 OA
DOCKED: ATOM     15  C   UNL     1      35.998   7.564 123.240 -0.76 -0.00    +0.000 C 
DOCKED: ATOM     16  N   UNL     1      34.781   6.850 123.500 -0.71 -0.00    +0.000 N 
DOCKED: ATOM     17  H   UNL     1      33.924   7.335 123.529 -0.08 -0.00    +0.000 HD
DOCKED: BRANCH  15  17
DOCKED: ATOM     18  O   UNL     1      34.808   5.511 123.702 -0.96 -0.00    +0.000 OA
DOCKED: ATOM     19  H   UNL     1      34.164   5.274 124.388 -0.64 -0.00    +0.000 HD
DOCKED: ENDBRANCH  15  17
DOCKED: ENDBRANCH  11  14
DOCKED: ENDBRANCH   5  12
DOCKED: ENDBRANCH   4   8
DOCKED: ENDBRANCH   1   4
DOCKED: BRANCH   1  19
DOCKED: ATOM     20  C   UNL     1      37.010  17.518 123.243 -0.23 -0.00    +0.000 C 
DOCKED: BRANCH  19  20
DOCKED: ATOM     21  C   UNL     1      35.555  18.015 123.274 -0.29 -0.00    +0.000 C 
DOCKED: BRANCH  20  21
DOCKED: ATOM     22  C   UNL     1      34.884  17.585 124.546 -0.34 -0.00    +0.000 A 
DOCKED: ATOM     23  C   UNL     1      34.202  16.390 124.787 -0.45 -0.00    +0.000 A 
DOCKED: ATOM     24  N   UNL     1      33.671  16.385 126.032 -0.47 -0.00    +0.000 N 
DOCKED: ATOM     25  C   UNL     1      33.990  17.574 126.572 -0.32 -0.00    +0.000 A 
DOCKED: ATOM     26  C   UNL     1      34.722  18.335 125.696 -0.27 -0.00    +0.000 A 
DOCKED: ATOM     27  C   UNL     1      35.150  19.623 126.021 -0.17 -0.00    +0.000 A 
DOCKED: ATOM     28  C   UNL     1      34.813  20.125 127.292 -0.10 -0.00    +0.000 A 
DOCKED: ATOM     29  C   UNL     1      34.064  19.340 128.196 -0.10 -0.00    +0.000 A 
DOCKED: ATOM     30  C   UNL     1      33.642  18.046 127.837 -0.22 -0.00    +0.000 A 
DOCKED: ATOM     31  C   UNL     1      34.084  15.245 123.833 -0.57 -0.00    +0.000 C 
DOCKED: ATOM     32  H   UNL     1      33.156  15.659 126.454 -0.13 -0.00    +0.000 HD
DOCKED: ATOM     33  CM  UNL     1      34.274  17.226 125.542 -0.25 -0.00    +0.000 AC
DOCKED: ATOM     34  CM  UNL     1      34.397  18.840 126.936 -0.02 -0.00    +0.000 AC
DOCKED: ENDBRANCH  20  21
DOCKED: ENDBRANCH  19  20
DOCKED: ENDBRANCH   1  19
DOCKED: TORSDOF 8DOCKED: TER
DOCKED: ENDMDL
________________________________________________________________________________


	BEGINNING GENETIC ALGORITHM DOCKING 73 of 100
Run: 73 Seed: 1295810712 1633112002 [ Run 73 of 100 GA/GALS ]
Beginning LAMARCKIAN GENETIC ALGORITHM (LGA), with a maximum of 2500000 energy evaluations.

Final-Value: -15.255


	FINAL GENETIC ALGORITHM DOCKED STATE
	_______________________________________________


Detailed state:  trans 38.062 16.462 122.996 quatxyzw -0.653544 0.428056 -0.207196 0.588827 center 0.698 0.076 -0.072 ntor 8 3.1557 -43.4894 94.4744 178.3022 157.3854 58.5008 -124.3783 95.4132
State:	 38.062  16.462 122.996  -0.809  0.530 -0.256 107.852      3.16  -43.49   94.47  178.30  157.39   58.50 -124.38   95.41

DOCKED: MODEL       73
DOCKED: USER    Run = 73
DOCKED: USER    DPF = ligand_dock.biased.dpf
DOCKED: USER  
DOCKED: USER    Estimated Free Energy of Binding    =  -10.63 kcal/mol  [=(1)+(2)+(3)-(4)]
DOCKED: USER    Estimated Inhibition Constant, Ki   =   16.09 nM (nanomolar)  [Temperature = 298.15 K]
DOCKED: USER    
DOCKED: USER    (1) Final Intermolecular Energy     =  -13.02 kcal/mol
DOCKED: USER        vdW + Hbond + desolv Energy     =  -13.02 kcal/mol
DOCKED: USER        Electrostatic Energy            =   +0.00 kcal/mol
DOCKED: USER    (2) Final Total Internal Energy     =   -2.24 kcal/mol
DOCKED: USER    (3) Torsional Free Energy           =   +2.39 kcal/mol
DOCKED: USER    (4) Unbound System's Energy  [=(2)] =   -2.24 kcal/mol
DOCKED: USER    
DOCKED: USER    
DOCKED: USER    NEWDPF move ligand.dum.pdbqt
DOCKED: USER    NEWDPF about 0.698000 0.076000 -0.072000
DOCKED: USER    NEWDPF tran0 38.061571 16.462038 122.996269
DOCKED: USER    NEWDPF quaternion0 -0.653544 0.428056 -0.207196 0.588827
DOCKED: USER    NEWDPF axisangle0 -0.808583 0.529603 -0.256349 107.852330
DOCKED: USER    NEWDPF quat0 -0.808583 0.529603 -0.256349 107.852330
DOCKED: USER    NEWDPF dihe0 3.16 -43.49 94.47 178.30 157.39 58.50 -124.38 95.41 
DOCKED: USER  keepresnum = 1 
DOCKED: USER  
DOCKED: REMARK  Name = 
DOCKED: REMARK  9 active torsions:
DOCKED: REMARK  status: ('A' for Active; 'I' for Inactive)
DOCKED: REMARK    1  A    between atoms: C_2  and  C_3
DOCKED: REMARK    2  A    between atoms: C_4  and  C_5
DOCKED: REMARK    3  A    between atoms: C_8  and  C_9
DOCKED: REMARK    4  A    between atoms: C_9  and  N_10
DOCKED: REMARK    5  A    between atoms: N_10  and  C_11
DOCKED: REMARK    6  A    between atoms: C_11  and  C_12
DOCKED: REMARK    7  A    between atoms: C_12  and  C_13
DOCKED: REMARK    8  A    between atoms: C_14  and  C_22
DOCKED: REMARK    9  A    between atoms: N_25  and  O_26
DOCKED: REMARK                            x       y       z     vdW  Elec       q    Type
DOCKED: REMARK                         _______ _______ _______ _____ _____    ______ ____
DOCKED: USER                              x       y       z     vdW  Elec       q    Type
DOCKED: USER                           _______ _______ _______ _____ _____    ______ ____
DOCKED: ROOT
DOCKED: ATOM      1  N   UNL     1      37.110  17.026 122.621 -0.19 -0.00    +0.000 N 
DOCKED: ATOM      2  H   UNL     1      37.554  17.932 122.770 +0.00 -0.00    +0.000 HD
DOCKED: ATOM      3  H   UNL     1      36.677  16.680 123.476 -0.01 -0.00    +0.000 HD
DOCKED: ENDROOT
DOCKED: BRANCH   1   4
DOCKED: ATOM      4  C   UNL     1      38.137  16.058 122.212 -0.26 -0.00    +0.000 C 
DOCKED: BRANCH   4   8
DOCKED: ATOM      5  C   UNL     1      36.500  12.070 122.562 -0.56 -0.00    +0.000 A 
DOCKED: ATOM      6  C   UNL     1      37.333  12.410 121.478 -0.46 -0.00    +0.000 A 
DOCKED: ATOM      7  C   UNL     1      37.865  13.699 121.371 -0.39 -0.00    +0.000 A 
DOCKED: ATOM      8  C   UNL     1      37.594  14.664 122.352 -0.37 -0.00    +0.000 A 
DOCKED: ATOM      9  C   UNL     1      36.767  14.328 123.435 -0.44 -0.00    +0.000 A 
DOCKED: ATOM     10  C   UNL     1      36.236  13.040 123.544 -0.56 -0.00    +0.000 A 
DOCKED: ATOM     11  CM  UNL     1      37.049  13.368 122.457 +0.00 -0.00    +0.000 AC
DOCKED: BRANCH   5  12
DOCKED: ATOM     12  C   UNL     1      36.636   9.636 123.082 -0.67 -0.00    +0.000 C 
DOCKED: ATOM     13  C   UNL     1      35.919  10.714 122.731 -0.69 -0.00    +0.000 C 
DOCKED: BRANCH  11  14
DOCKED: ATOM     14  O   UNL     1      36.795   7.288 123.059 -2.00 -0.00    +0.000 OA
DOCKED: ATOM     15  C   UNL     1      36.054   8.288 123.246 -0.67 -0.00    +0.000 C 
DOCKED: ATOM     16  N   UNL     1      34.675   8.082 123.585 -0.60 -0.00    +0.000 N 
DOCKED: ATOM     17  H   UNL     1      34.063   8.851 123.639 -0.48 -0.00    +0.000 HD
DOCKED: BRANCH  15  17
DOCKED: ATOM     18  O   UNL     1      34.213   6.832 123.829 -0.83 -0.00    +0.000 OA
DOCKED: ATOM     19  H   UNL     1      34.948   6.201 123.782 -0.06 -0.00    +0.000 HD
DOCKED: ENDBRANCH  15  17
DOCKED: ENDBRANCH  11  14
DOCKED: ENDBRANCH   5  12
DOCKED: ENDBRANCH   4   8
DOCKED: ENDBRANCH   1   4
DOCKED: BRANCH   1  19
DOCKED: ATOM     20  C   UNL     1      36.054  17.177 121.608 -0.24 -0.00    +0.000 C 
DOCKED: BRANCH  19  20
DOCKED: ATOM     21  C   UNL     1      34.751  17.742 122.199 -0.37 -0.00    +0.000 C 
DOCKED: BRANCH  20  21
DOCKED: ATOM     22  C   UNL     1      34.737  17.569 123.690 -0.35 -0.00    +0.000 A 
DOCKED: ATOM     23  C   UNL     1      34.246  16.481 124.416 -0.44 -0.00    +0.000 A 
DOCKED: ATOM     24  N   UNL     1      34.341  16.711 125.746 -0.42 -0.00    +0.000 N 
DOCKED: ATOM     25  C   UNL     1      34.867  17.942 125.869 -0.26 -0.00    +0.000 A 
DOCKED: ATOM     26  C   UNL     1      35.115  18.499 124.640 -0.26 -0.00    +0.000 A 
DOCKED: ATOM     27  C   UNL     1      35.637  19.787 124.509 -0.17 -0.00    +0.000 A 
DOCKED: ATOM     28  C   UNL     1      35.916  20.505 125.686 -0.12 -0.00    +0.000 A 
DOCKED: ATOM     29  C   UNL     1      35.665  19.930 126.951 -0.11 -0.00    +0.000 A 
DOCKED: ATOM     30  C   UNL     1      35.132  18.632 127.052 -0.16 -0.00    +0.000 A 
DOCKED: ATOM     31  C   UNL     1      33.711  15.212 123.832 -0.37 -0.00    +0.000 C 
DOCKED: ATOM     32  H   UNL     1      34.080  16.101 126.474 -0.04 -0.00    +0.000 HD
DOCKED: ATOM     33  CM  UNL     1      34.651  17.417 124.900 -0.42 -0.00    +0.000 AC
DOCKED: ATOM     34  CM  UNL     1      35.388  19.215 125.785 -0.07 -0.00    +0.000 AC
DOCKED: ENDBRANCH  20  21
DOCKED: ENDBRANCH  19  20
DOCKED: ENDBRANCH   1  19
DOCKED: TORSDOF 8DOCKED: TER
DOCKED: ENDMDL
________________________________________________________________________________


	BEGINNING GENETIC ALGORITHM DOCKING 74 of 100
Run: 74 Seed: 416191682 271810149 [ Run 74 of 100 GA/GALS ]
Beginning LAMARCKIAN GENETIC ALGORITHM (LGA), with a maximum of 2500000 energy evaluations.

Final-Value: -15.443


	FINAL GENETIC ALGORITHM DOCKED STATE
	_______________________________________________


Detailed state:  trans 37.758 17.978 123.236 quatxyzw 0.082607 -0.356302 0.332375 -0.869340 center 0.698 0.076 -0.072 ntor 8 11.8710 -173.2232 149.9765 167.1455 135.0428 -26.5716 169.5405 -161.8876
State:	 37.758  17.978 123.236   0.167 -0.721  0.673 -59.236     11.87 -173.22  149.98  167.15  135.04  -26.57  169.54 -161.89

DOCKED: MODEL       74
DOCKED: USER    Run = 74
DOCKED: USER    DPF = ligand_dock.biased.dpf
DOCKED: USER  
DOCKED: USER    Estimated Free Energy of Binding    =  -11.17 kcal/mol  [=(1)+(2)+(3)-(4)]
DOCKED: USER    Estimated Inhibition Constant, Ki   =    6.51 nM (nanomolar)  [Temperature = 298.15 K]
DOCKED: USER    
DOCKED: USER    (1) Final Intermolecular Energy     =  -13.55 kcal/mol
DOCKED: USER        vdW + Hbond + desolv Energy     =  -13.55 kcal/mol
DOCKED: USER        Electrostatic Energy            =   +0.00 kcal/mol
DOCKED: USER    (2) Final Total Internal Energy     =   -1.89 kcal/mol
DOCKED: USER    (3) Torsional Free Energy           =   +2.39 kcal/mol
DOCKED: USER    (4) Unbound System's Energy  [=(2)] =   -1.89 kcal/mol
DOCKED: USER    
DOCKED: USER    
DOCKED: USER    NEWDPF move ligand.dum.pdbqt
DOCKED: USER    NEWDPF about 0.698000 0.076000 -0.072000
DOCKED: USER    NEWDPF tran0 37.758371 17.978476 123.236046
DOCKED: USER    NEWDPF quaternion0 0.082607 -0.356302 0.332375 -0.869340
DOCKED: USER    NEWDPF axisangle0 0.167148 -0.720946 0.672531 -59.235961
DOCKED: USER    NEWDPF quat0 0.167148 -0.720946 0.672531 -59.235961
DOCKED: USER    NEWDPF dihe0 11.87 -173.22 149.98 167.15 135.04 -26.57 169.54 -161.89 
DOCKED: USER  keepresnum = 1 
DOCKED: USER  
DOCKED: REMARK  Name = 
DOCKED: REMARK  9 active torsions:
DOCKED: REMARK  status: ('A' for Active; 'I' for Inactive)
DOCKED: REMARK    1  A    between atoms: C_2  and  C_3
DOCKED: REMARK    2  A    between atoms: C_4  and  C_5
DOCKED: REMARK    3  A    between atoms: C_8  and  C_9
DOCKED: REMARK    4  A    between atoms: C_9  and  N_10
DOCKED: REMARK    5  A    between atoms: N_10  and  C_11
DOCKED: REMARK    6  A    between atoms: C_11  and  C_12
DOCKED: REMARK    7  A    between atoms: C_12  and  C_13
DOCKED: REMARK    8  A    between atoms: C_14  and  C_22
DOCKED: REMARK    9  A    between atoms: N_25  and  O_26
DOCKED: REMARK                            x       y       z     vdW  Elec       q    Type
DOCKED: REMARK                         _______ _______ _______ _____ _____    ______ ____
DOCKED: USER                              x       y       z     vdW  Elec       q    Type
DOCKED: USER                           _______ _______ _______ _____ _____    ______ ____
DOCKED: ROOT
DOCKED: ATOM      1  N   UNL     1      37.001  17.993 122.347 -0.14 -0.00    +0.000 N 
DOCKED: ATOM      2  H   UNL     1      37.737  18.245 121.687 +0.01 -0.00    +0.000 HD
DOCKED: ATOM      3  H   UNL     1      36.615  18.817 122.806 +0.00 -0.00    +0.000 HD
DOCKED: ENDROOT
DOCKED: BRANCH   1   4
DOCKED: ATOM      4  C   UNL     1      37.574  17.126 123.385 -0.24 -0.00    +0.000 C 
DOCKED: BRANCH   4   8
DOCKED: ATOM      5  C   UNL     1      36.992  13.008 122.196 -0.47 -0.00    +0.000 A 
DOCKED: ATOM      6  C   UNL     1      37.668  13.910 121.351 -0.37 -0.00    +0.000 A 
DOCKED: ATOM      7  C   UNL     1      37.860  15.239 121.741 -0.27 -0.00    +0.000 A 
DOCKED: ATOM      8  C   UNL     1      37.400  15.687 122.987 -0.31 -0.00    +0.000 A 
DOCKED: ATOM      9  C   UNL     1      36.728  14.792 123.834 -0.33 -0.00    +0.000 A 
DOCKED: ATOM     10  C   UNL     1      36.538  13.462 123.445 -0.53 -0.00    +0.000 A 
DOCKED: ATOM     11  CM  UNL     1      37.197  14.349 122.592 +0.00 -0.00    +0.000 AC
DOCKED: BRANCH   5  12
DOCKED: ATOM     12  C   UNL     1      37.112  10.556 122.629 -0.50 -0.00    +0.000 C 
DOCKED: ATOM     13  C   UNL     1      36.773  11.584 121.837 -0.59 -0.00    +0.000 C 
DOCKED: BRANCH  11  14
DOCKED: ATOM     14  O   UNL     1      36.786   8.844 121.047 -2.64 -0.00    +0.000 OA
DOCKED: ATOM     15  C   UNL     1      36.894   9.140 122.266 -0.69 -0.00    +0.000 C 
DOCKED: ATOM     16  N   UNL     1      36.776   8.104 123.251 -0.73 -0.00    +0.000 N 
DOCKED: ATOM     17  H   UNL     1      36.762   8.336 124.208 -0.37 -0.00    +0.000 HD
DOCKED: BRANCH  15  17
DOCKED: ATOM     18  O   UNL     1      36.683   6.808 122.868 -1.51 -0.00    +0.000 OA
DOCKED: ATOM     19  H   UNL     1      36.898   6.733 121.925 -0.19 -0.00    +0.000 HD
DOCKED: ENDBRANCH  15  17
DOCKED: ENDBRANCH  11  14
DOCKED: ENDBRANCH   5  12
DOCKED: ENDBRANCH   4   8
DOCKED: ENDBRANCH   1   4
DOCKED: BRANCH   1  19
DOCKED: ATOM     20  C   UNL     1      35.911  17.333 121.611 -0.24 -0.00    +0.000 C 
DOCKED: BRANCH  19  20
DOCKED: ATOM     21  C   UNL     1      34.530  17.626 122.221 -0.39 -0.00    +0.000 C 
DOCKED: BRANCH  20  21
DOCKED: ATOM     22  C   UNL     1      34.602  17.580 123.720 -0.36 -0.00    +0.000 A 
DOCKED: ATOM     23  C   UNL     1      34.200  16.540 124.560 -0.44 -0.00    +0.000 A 
DOCKED: ATOM     24  N   UNL     1      34.355  16.886 125.859 -0.39 -0.00    +0.000 N 
DOCKED: ATOM     25  C   UNL     1      34.829  18.144 125.850 -0.27 -0.00    +0.000 A 
DOCKED: ATOM     26  C   UNL     1      34.986  18.604 124.566 -0.26 -0.00    +0.000 A 
DOCKED: ATOM     27  C   UNL     1      35.442  19.896 124.299 -0.10 -0.00    +0.000 A 
DOCKED: ATOM     28  C   UNL     1      35.748  20.723 125.395 -0.13 -0.00    +0.000 A 
DOCKED: ATOM     29  C   UNL     1      35.591  20.248 126.716 -0.10 -0.00    +0.000 A 
DOCKED: ATOM     30  C   UNL     1      35.125  18.942 126.954 -0.16 -0.00    +0.000 A 
DOCKED: ATOM     31  C   UNL     1      33.695  15.204 124.115 -0.33 -0.00    +0.000 C 
DOCKED: ATOM     32  H   UNL     1      34.161  16.330 126.648 -0.03 -0.00    +0.000 HD
DOCKED: ATOM     33  CM  UNL     1      34.587  17.529 124.941 -0.43 -0.00    +0.000 AC
DOCKED: ATOM     34  CM  UNL     1      35.287  19.426 125.631 -0.05 -0.00    +0.000 AC
DOCKED: ENDBRANCH  20  21
DOCKED: ENDBRANCH  19  20
DOCKED: ENDBRANCH   1  19
DOCKED: TORSDOF 8DOCKED: TER
DOCKED: ENDMDL
________________________________________________________________________________


	BEGINNING GENETIC ALGORITHM DOCKING 75 of 100
Run: 75 Seed: 1369330582 1982603697 [ Run 75 of 100 GA/GALS ]
Beginning LAMARCKIAN GENETIC ALGORITHM (LGA), with a maximum of 2500000 energy evaluations.

Final-Value: -15.736


	FINAL GENETIC ALGORITHM DOCKED STATE
	_______________________________________________


Detailed state:  trans 35.549 17.054 124.480 quatxyzw -0.538650 0.736883 0.368802 0.175627 center 0.698 0.076 -0.072 ntor 8 -2.7706 -3.5249 -58.0786 174.5573 108.2987 173.4840 -118.5839 -25.5496
State:	 35.549  17.054 124.480  -0.547  0.749  0.375 159.770     -2.77   -3.52  -58.08  174.56  108.30  173.48 -118.58  -25.55

DOCKED: MODEL       75
DOCKED: USER    Run = 75
DOCKED: USER    DPF = ligand_dock.biased.dpf
DOCKED: USER  
DOCKED: USER    Estimated Free Energy of Binding    =  -11.51 kcal/mol  [=(1)+(2)+(3)-(4)]
DOCKED: USER    Estimated Inhibition Constant, Ki   =    3.65 nM (nanomolar)  [Temperature = 298.15 K]
DOCKED: USER    
DOCKED: USER    (1) Final Intermolecular Energy     =  -13.90 kcal/mol
DOCKED: USER        vdW + Hbond + desolv Energy     =  -13.90 kcal/mol
DOCKED: USER        Electrostatic Energy            =   +0.00 kcal/mol
DOCKED: USER    (2) Final Total Internal Energy     =   -1.84 kcal/mol
DOCKED: USER    (3) Torsional Free Energy           =   +2.39 kcal/mol
DOCKED: USER    (4) Unbound System's Energy  [=(2)] =   -1.84 kcal/mol
DOCKED: USER    
DOCKED: USER    
DOCKED: USER    NEWDPF move ligand.dum.pdbqt
DOCKED: USER    NEWDPF about 0.698000 0.076000 -0.072000
DOCKED: USER    NEWDPF tran0 35.549081 17.054353 124.479709
DOCKED: USER    NEWDPF quaternion0 -0.538650 0.736883 0.368802 0.175627
DOCKED: USER    NEWDPF axisangle0 -0.547155 0.748517 0.374625 159.769744
DOCKED: USER    NEWDPF quat0 -0.547155 0.748517 0.374625 159.769744
DOCKED: USER    NEWDPF dihe0 -2.77 -3.52 -58.08 174.56 108.30 173.48 -118.58 -25.55 
DOCKED: USER  keepresnum = 1 
DOCKED: USER  
DOCKED: REMARK  Name = 
DOCKED: REMARK  9 active torsions:
DOCKED: REMARK  status: ('A' for Active; 'I' for Inactive)
DOCKED: REMARK    1  A    between atoms: C_2  and  C_3
DOCKED: REMARK    2  A    between atoms: C_4  and  C_5
DOCKED: REMARK    3  A    between atoms: C_8  and  C_9
DOCKED: REMARK    4  A    between atoms: C_9  and  N_10
DOCKED: REMARK    5  A    between atoms: N_10  and  C_11
DOCKED: REMARK    6  A    between atoms: C_11  and  C_12
DOCKED: REMARK    7  A    between atoms: C_12  and  C_13
DOCKED: REMARK    8  A    between atoms: C_14  and  C_22
DOCKED: REMARK    9  A    between atoms: N_25  and  O_26
DOCKED: REMARK                            x       y       z     vdW  Elec       q    Type
DOCKED: REMARK                         _______ _______ _______ _____ _____    ______ ____
DOCKED: USER                              x       y       z     vdW  Elec       q    Type
DOCKED: USER                           _______ _______ _______ _____ _____    ______ ____
DOCKED: ROOT
DOCKED: ATOM      1  N   UNL     1      35.671  17.972 125.191 -0.25 -0.00    +0.000 N 
DOCKED: ATOM      2  H   UNL     1      36.440  17.521 125.687 -0.02 -0.00    +0.000 HD
DOCKED: ATOM      3  H   UNL     1      34.768  17.687 125.569 -0.01 -0.00    +0.000 HD
DOCKED: ENDROOT
DOCKED: BRANCH   1   4
DOCKED: ATOM      4  C   UNL     1      35.718  17.569 123.780 -0.31 -0.00    +0.000 C 
DOCKED: BRANCH   4   8
DOCKED: ATOM      5  C   UNL     1      36.464  13.323 123.428 -0.54 -0.00    +0.000 A 
DOCKED: ATOM      6  C   UNL     1      37.490  14.255 123.173 -0.42 -0.00    +0.000 A 
DOCKED: ATOM      7  C   UNL     1      37.246  15.627 123.293 -0.32 -0.00    +0.000 A 
DOCKED: ATOM      8  C   UNL     1      35.985  16.093 123.690 -0.36 -0.00    +0.000 A 
DOCKED: ATOM      9  C   UNL     1      34.961  15.169 123.948 -0.51 -0.00    +0.000 A 
DOCKED: ATOM     10  C   UNL     1      35.204  13.797 123.830 -0.21 -0.00    +0.000 A 
DOCKED: ATOM     11  CM  UNL     1      36.225  14.710 123.560 +0.00 -0.00    +0.000 AC
DOCKED: BRANCH   5  12
DOCKED: ATOM     12  C   UNL     1      36.653  11.180 122.169 -0.64 -0.00    +0.000 C 
DOCKED: ATOM     13  C   UNL     1      36.671  11.857 123.328 -0.69 -0.00    +0.000 C 
DOCKED: BRANCH  11  14
DOCKED: ATOM     14  O   UNL     1      37.060   9.216 120.939 -2.74 -0.00    +0.000 OA
DOCKED: ATOM     15  C   UNL     1      36.857   9.720 122.074 -0.64 -0.00    +0.000 C 
DOCKED: ATOM     16  N   UNL     1      36.806   8.860 123.222 -0.65 -0.00    +0.000 N 
DOCKED: ATOM     17  H   UNL     1      36.552   9.228 124.099 -0.42 -0.00    +0.000 HD
DOCKED: BRANCH  15  17
DOCKED: ATOM     18  O   UNL     1      37.104   7.545 123.101 -2.24 -0.00    +0.000 OA
DOCKED: ATOM     19  H   UNL     1      37.288   7.339 122.171 -0.11 -0.00    +0.000 HD
DOCKED: ENDBRANCH  15  17
DOCKED: ENDBRANCH  11  14
DOCKED: ENDBRANCH   5  12
DOCKED: ENDBRANCH   4   8
DOCKED: ENDBRANCH   1   4
DOCKED: BRANCH   1  19
DOCKED: ATOM     20  C   UNL     1      35.790  19.429 125.358 -0.20 -0.00    +0.000 C 
DOCKED: BRANCH  19  20
DOCKED: ATOM     21  C   UNL     1      35.366  19.896 126.761 -0.14 -0.00    +0.000 C 
DOCKED: BRANCH  20  21
DOCKED: ATOM     22  C   UNL     1      33.889  19.699 126.951 -0.16 -0.00    +0.000 A 
DOCKED: ATOM     23  C   UNL     1      32.871  20.629 126.730 -0.17 -0.00    +0.000 A 
DOCKED: ATOM     24  N   UNL     1      31.669  20.113 127.076 -0.26 -0.00    +0.000 N 
DOCKED: ATOM     25  C   UNL     1      31.918  18.874 127.534 -0.20 -0.00    +0.000 A 
DOCKED: ATOM     26  C   UNL     1      33.260  18.588 127.480 -0.21 -0.00    +0.000 A 
DOCKED: ATOM     27  C   UNL     1      33.769  17.368 127.927 -0.28 -0.00    +0.000 A 
DOCKED: ATOM     28  C   UNL     1      32.858  16.422 128.433 -0.36 -0.00    +0.000 A 
DOCKED: ATOM     29  C   UNL     1      31.477  16.715 128.483 -0.42 -0.00    +0.000 A 
DOCKED: ATOM     30  C   UNL     1      30.994  17.956 128.031 -0.19 -0.00    +0.000 A 
DOCKED: ATOM     31  C   UNL     1      33.050  22.001 126.163 -0.18 -0.00    +0.000 C 
DOCKED: ATOM     32  H   UNL     1      30.791  20.555 127.005 -0.02 -0.00    +0.000 HD
DOCKED: ATOM     33  CM  UNL     1      32.688  19.598 127.151 +0.00 -0.00    +0.000 AC
DOCKED: ATOM     34  CM  UNL     1      32.379  17.654 127.981 +0.00 -0.00    +0.000 AC
DOCKED: ENDBRANCH  20  21
DOCKED: ENDBRANCH  19  20
DOCKED: ENDBRANCH   1  19
DOCKED: TORSDOF 8DOCKED: TER
DOCKED: ENDMDL
________________________________________________________________________________


	BEGINNING GENETIC ALGORITHM DOCKING 76 of 100
Run: 76 Seed: 830259255 395563459 [ Run 76 of 100 GA/GALS ]
Beginning LAMARCKIAN GENETIC ALGORITHM (LGA), with a maximum of 2500000 energy evaluations.

Final-Value: -14.622


	FINAL GENETIC ALGORITHM DOCKED STATE
	_______________________________________________


Detailed state:  trans 37.738 14.889 122.464 quatxyzw 0.380525 -0.902795 -0.182881 -0.081952 center 0.698 0.076 -0.072 ntor 8 -7.4424 -11.0288 60.7840 180.0000 -177.7533 100.6287 -165.9055 -16.3462
State:	 37.738  14.889 122.464   0.382 -0.906 -0.183 -170.599     -7.44  -11.03   60.78  180.00 -177.75  100.63 -165.91  -16.35

DOCKED: MODEL       76
DOCKED: USER    Run = 76
DOCKED: USER    DPF = ligand_dock.biased.dpf
DOCKED: USER  
DOCKED: USER    Estimated Free Energy of Binding    =  -10.40 kcal/mol  [=(1)+(2)+(3)-(4)]
DOCKED: USER    Estimated Inhibition Constant, Ki   =   23.86 nM (nanomolar)  [Temperature = 298.15 K]
DOCKED: USER    
DOCKED: USER    (1) Final Intermolecular Energy     =  -12.79 kcal/mol
DOCKED: USER        vdW + Hbond + desolv Energy     =  -12.79 kcal/mol
DOCKED: USER        Electrostatic Energy            =   +0.00 kcal/mol
DOCKED: USER    (2) Final Total Internal Energy     =   -1.84 kcal/mol
DOCKED: USER    (3) Torsional Free Energy           =   +2.39 kcal/mol
DOCKED: USER    (4) Unbound System's Energy  [=(2)] =   -1.84 kcal/mol
DOCKED: USER    
DOCKED: USER    
DOCKED: USER    NEWDPF move ligand.dum.pdbqt
DOCKED: USER    NEWDPF about 0.698000 0.076000 -0.072000
DOCKED: USER    NEWDPF tran0 37.737903 14.888990 122.463729
DOCKED: USER    NEWDPF quaternion0 0.380525 -0.902795 -0.182881 -0.081952
DOCKED: USER    NEWDPF axisangle0 0.381809 -0.905842 -0.183499 -170.598506
DOCKED: USER    NEWDPF quat0 0.381809 -0.905842 -0.183499 -170.598506
DOCKED: USER    NEWDPF dihe0 -7.44 -11.03 60.78 180.00 -177.75 100.63 -165.91 -16.35 
DOCKED: USER  keepresnum = 1 
DOCKED: USER  
DOCKED: REMARK  Name = 
DOCKED: REMARK  9 active torsions:
DOCKED: REMARK  status: ('A' for Active; 'I' for Inactive)
DOCKED: REMARK    1  A    between atoms: C_2  and  C_3
DOCKED: REMARK    2  A    between atoms: C_4  and  C_5
DOCKED: REMARK    3  A    between atoms: C_8  and  C_9
DOCKED: REMARK    4  A    between atoms: C_9  and  N_10
DOCKED: REMARK    5  A    between atoms: N_10  and  C_11
DOCKED: REMARK    6  A    between atoms: C_11  and  C_12
DOCKED: REMARK    7  A    between atoms: C_12  and  C_13
DOCKED: REMARK    8  A    between atoms: C_14  and  C_22
DOCKED: REMARK    9  A    between atoms: N_25  and  O_26
DOCKED: REMARK                            x       y       z     vdW  Elec       q    Type
DOCKED: REMARK                         _______ _______ _______ _____ _____    ______ ____
DOCKED: USER                              x       y       z     vdW  Elec       q    Type
DOCKED: USER                           _______ _______ _______ _____ _____    ______ ____
DOCKED: ROOT
DOCKED: ATOM      1  N   UNL     1      38.115  15.908 122.892 -0.28 -0.00    +0.000 N 
DOCKED: ATOM      2  H   UNL     1      38.491  15.452 123.723 -0.03 -0.00    +0.000 HD
DOCKED: ATOM      3  H   UNL     1      37.125  16.126 123.003 -0.00 -0.00    +0.000 HD
DOCKED: ENDROOT
DOCKED: BRANCH   1   4
DOCKED: ATOM      4  C   UNL     1      38.250  14.995 121.750 -0.35 -0.00    +0.000 C 
DOCKED: BRANCH   4   8
DOCKED: ATOM      5  C   UNL     1      36.402  11.201 122.703 -0.61 -0.00    +0.000 A 
DOCKED: ATOM      6  C   UNL     1      37.061  11.389 121.472 -0.47 -0.00    +0.000 A 
DOCKED: ATOM      7  C   UNL     1      37.662  12.614 121.169 -0.44 -0.00    +0.000 A 
DOCKED: ATOM      8  C   UNL     1      37.636  13.667 122.096 -0.43 -0.00    +0.000 A 
DOCKED: ATOM      9  C   UNL     1      36.984  13.484 123.324 -0.50 -0.00    +0.000 A 
DOCKED: ATOM     10  C   UNL     1      36.384  12.259 123.628 -0.61 -0.00    +0.000 A 
DOCKED: ATOM     11  CM  UNL     1      37.021  12.436 122.399 +0.00 -0.00    +0.000 AC
DOCKED: BRANCH   5  12
DOCKED: ATOM     12  C   UNL     1      36.270   8.714 122.783 -0.75 -0.00    +0.000 C 
DOCKED: ATOM     13  C   UNL     1      35.759   9.918 123.080 -0.66 -0.00    +0.000 C 
DOCKED: BRANCH  11  14
DOCKED: ATOM     14  O   UNL     1      36.236   6.364 122.917 -1.14 -0.00    +0.000 OA
DOCKED: ATOM     15  C   UNL     1      35.625   7.439 123.159 -0.75 -0.00    +0.000 C 
DOCKED: ATOM     16  N   UNL     1      34.324   7.384 123.760 -0.69 -0.00    +0.000 N 
DOCKED: ATOM     17  H   UNL     1      33.796   8.208 123.865 -0.19 -0.00    +0.000 HD
DOCKED: BRANCH  15  17
DOCKED: ATOM     18  O   UNL     1      33.819   6.200 124.183 -0.90 -0.00    +0.000 OA
DOCKED: ATOM     19  H   UNL     1      34.405   5.480 123.903 -0.58 -0.00    +0.000 HD
DOCKED: ENDBRANCH  15  17
DOCKED: ENDBRANCH  11  14
DOCKED: ENDBRANCH   5  12
DOCKED: ENDBRANCH   4   8
DOCKED: ENDBRANCH   1   4
DOCKED: BRANCH   1  19
DOCKED: ATOM     20  C   UNL     1      38.835  17.174 122.680 -0.20 -0.00    +0.000 C 
DOCKED: BRANCH  19  20
DOCKED: ATOM     21  C   UNL     1      37.892  18.388 122.653 -0.12 -0.00    +0.000 C 
DOCKED: BRANCH  20  21
DOCKED: ATOM     22  C   UNL     1      36.492  17.969 123.002 -0.18 -0.00    +0.000 A 
DOCKED: ATOM     23  C   UNL     1      35.499  17.512 122.132 -0.26 -0.00    +0.000 A 
DOCKED: ATOM     24  N   UNL     1      34.343  17.294 122.800 -0.40 -0.00    +0.000 N 
DOCKED: ATOM     25  C   UNL     1      34.587  17.629 124.078 -0.36 -0.00    +0.000 A 
DOCKED: ATOM     26  C   UNL     1      35.883  18.051 124.240 -0.24 -0.00    +0.000 A 
DOCKED: ATOM     27  C   UNL     1      36.368  18.478 125.476 -0.17 -0.00    +0.000 A 
DOCKED: ATOM     28  C   UNL     1      35.485  18.456 126.571 -0.15 -0.00    +0.000 A 
DOCKED: ATOM     29  C   UNL     1      34.152  18.016 126.407 -0.29 -0.00    +0.000 A 
DOCKED: ATOM     30  C   UNL     1      33.690  17.597 125.145 -0.31 -0.00    +0.000 A 
DOCKED: ATOM     31  C   UNL     1      35.670  17.261 120.668 -0.21 -0.00    +0.000 C 
DOCKED: ATOM     32  H   UNL     1      33.496  16.958 122.425 -0.04 -0.00    +0.000 HD
DOCKED: ATOM     33  CM  UNL     1      35.329  17.678 123.235 -0.05 -0.00    +0.000 AC
DOCKED: ATOM     34  CM  UNL     1      35.027  18.038 125.319 -0.42 -0.00    +0.000 AC
DOCKED: ENDBRANCH  20  21
DOCKED: ENDBRANCH  19  20
DOCKED: ENDBRANCH   1  19
DOCKED: TORSDOF 8DOCKED: TER
DOCKED: ENDMDL
________________________________________________________________________________


	BEGINNING GENETIC ALGORITHM DOCKING 77 of 100
Run: 77 Seed: 202521144 1332982728 [ Run 77 of 100 GA/GALS ]
Beginning LAMARCKIAN GENETIC ALGORITHM (LGA), with a maximum of 2500000 energy evaluations.

Final-Value: -15.715


	FINAL GENETIC ALGORITHM DOCKED STATE
	_______________________________________________


Detailed state:  trans 37.102 17.022 123.449 quatxyzw -0.230544 0.372363 0.608775 0.661505 center 0.698 0.076 -0.072 ntor 8 169.1282 10.3154 119.3137 156.5194 173.3691 52.2639 -104.9383 -7.6275
State:	 37.102  17.022 123.449  -0.307  0.497  0.812 97.171    169.13   10.32  119.31  156.52  173.37   52.26 -104.94   -7.63

DOCKED: MODEL       77
DOCKED: USER    Run = 77
DOCKED: USER    DPF = ligand_dock.biased.dpf
DOCKED: USER  
DOCKED: USER    Estimated Free Energy of Binding    =  -11.71 kcal/mol  [=(1)+(2)+(3)-(4)]
DOCKED: USER    Estimated Inhibition Constant, Ki   =    2.60 nM (nanomolar)  [Temperature = 298.15 K]
DOCKED: USER    
DOCKED: USER    (1) Final Intermolecular Energy     =  -14.10 kcal/mol
DOCKED: USER        vdW + Hbond + desolv Energy     =  -14.10 kcal/mol
DOCKED: USER        Electrostatic Energy            =   +0.00 kcal/mol
DOCKED: USER    (2) Final Total Internal Energy     =   -1.62 kcal/mol
DOCKED: USER    (3) Torsional Free Energy           =   +2.39 kcal/mol
DOCKED: USER    (4) Unbound System's Energy  [=(2)] =   -1.62 kcal/mol
DOCKED: USER    
DOCKED: USER    
DOCKED: USER    NEWDPF move ligand.dum.pdbqt
DOCKED: USER    NEWDPF about 0.698000 0.076000 -0.072000
DOCKED: USER    NEWDPF tran0 37.101620 17.022077 123.449193
DOCKED: USER    NEWDPF quaternion0 -0.230544 0.372363 0.608775 0.661505
DOCKED: USER    NEWDPF axisangle0 -0.307416 0.496523 0.811764 97.170521
DOCKED: USER    NEWDPF quat0 -0.307416 0.496523 0.811764 97.170521
DOCKED: USER    NEWDPF dihe0 169.13 10.32 119.31 156.52 173.37 52.26 -104.94 -7.63 
DOCKED: USER  keepresnum = 1 
DOCKED: USER  
DOCKED: REMARK  Name = 
DOCKED: REMARK  9 active torsions:
DOCKED: REMARK  status: ('A' for Active; 'I' for Inactive)
DOCKED: REMARK    1  A    between atoms: C_2  and  C_3
DOCKED: REMARK    2  A    between atoms: C_4  and  C_5
DOCKED: REMARK    3  A    between atoms: C_8  and  C_9
DOCKED: REMARK    4  A    between atoms: C_9  and  N_10
DOCKED: REMARK    5  A    between atoms: N_10  and  C_11
DOCKED: REMARK    6  A    between atoms: C_11  and  C_12
DOCKED: REMARK    7  A    between atoms: C_12  and  C_13
DOCKED: REMARK    8  A    between atoms: C_14  and  C_22
DOCKED: REMARK    9  A    between atoms: N_25  and  O_26
DOCKED: REMARK                            x       y       z     vdW  Elec       q    Type
DOCKED: REMARK                         _______ _______ _______ _____ _____    ______ ____
DOCKED: USER                              x       y       z     vdW  Elec       q    Type
DOCKED: USER                           _______ _______ _______ _____ _____    ______ ____
DOCKED: ROOT
DOCKED: ATOM      1  N   UNL     1      37.662  18.043 123.535 -0.16 -0.00    +0.000 N 
DOCKED: ATOM      2  H   UNL     1      38.295  17.792 122.775 +0.00 -0.00    +0.000 HD
DOCKED: ATOM      3  H   UNL     1      37.995  17.683 124.429 -0.01 -0.00    +0.000 HD
DOCKED: ENDROOT
DOCKED: BRANCH   1   4
DOCKED: ATOM      4  C   UNL     1      36.346  17.447 123.271 -0.26 -0.00    +0.000 C 
DOCKED: BRANCH   4   8
DOCKED: ATOM      5  C   UNL     1      36.765  13.142 123.235 -0.54 -0.00    +0.000 A 
DOCKED: ATOM      6  C   UNL     1      35.704  13.753 123.932 -0.43 -0.00    +0.000 A 
DOCKED: ATOM      7  C   UNL     1      35.568  15.145 123.937 -0.46 -0.00    +0.000 A 
DOCKED: ATOM      8  C   UNL     1      36.474  15.950 123.231 -0.33 -0.00    +0.000 A 
DOCKED: ATOM      9  C   UNL     1      37.530  15.346 122.532 -0.31 -0.00    +0.000 A 
DOCKED: ATOM     10  C   UNL     1      37.665  13.954 122.526 -0.43 -0.00    +0.000 A 
DOCKED: ATOM     11  CM  UNL     1      36.618  14.548 123.232 +0.00 -0.00    +0.000 AC
DOCKED: BRANCH   5  12
DOCKED: ATOM     12  C   UNL     1      36.517  10.899 122.176 -0.64 -0.00    +0.000 C 
DOCKED: ATOM     13  C   UNL     1      36.949  11.670 123.186 -0.67 -0.00    +0.000 C 
DOCKED: BRANCH  11  14
DOCKED: ATOM     14  O   UNL     1      36.742   8.867 121.010 -2.63 -0.00    +0.000 OA
DOCKED: ATOM     15  C   UNL     1      36.700   9.433 122.134 -0.71 -0.00    +0.000 C 
DOCKED: ATOM     16  N   UNL     1      36.804   8.637 123.322 -0.66 -0.00    +0.000 N 
DOCKED: ATOM     17  H   UNL     1      36.676   9.053 124.205 -0.46 -0.00    +0.000 HD
DOCKED: BRANCH  15  17
DOCKED: ATOM     18  O   UNL     1      37.077   7.313 123.232 -2.10 -0.00    +0.000 OA
DOCKED: ATOM     19  H   UNL     1      37.281   6.964 124.114 -0.45 -0.00    +0.000 HD
DOCKED: ENDBRANCH  15  17
DOCKED: ENDBRANCH  11  14
DOCKED: ENDBRANCH   5  12
DOCKED: ENDBRANCH   4   8
DOCKED: ENDBRANCH   1   4
DOCKED: BRANCH   1  19
DOCKED: ATOM     20  C   UNL     1      37.599  19.510 123.633 -0.11 -0.00    +0.000 C 
DOCKED: BRANCH  19  20
DOCKED: ATOM     21  C   UNL     1      38.966  20.136 123.956 -0.07 -0.00    +0.000 C 
DOCKED: BRANCH  20  21
DOCKED: ATOM     22  C   UNL     1      39.998  19.062 124.152 -0.14 -0.00    +0.000 A 
DOCKED: ATOM     23  C   UNL     1      40.644  18.708 125.338 -0.26 -0.00    +0.000 A 
DOCKED: ATOM     24  N   UNL     1      41.561  17.739 125.113 -0.30 -0.00    +0.000 N 
DOCKED: ATOM     25  C   UNL     1      41.518  17.493 123.792 -0.32 -0.00    +0.000 A 
DOCKED: ATOM     26  C   UNL     1      40.583  18.283 123.172 -0.16 -0.00    +0.000 A 
DOCKED: ATOM     27  C   UNL     1      40.372  18.227 121.793 -0.07 -0.00    +0.000 A 
DOCKED: ATOM     28  C   UNL     1      41.147  17.320 121.047 -0.11 -0.00    +0.000 A 
DOCKED: ATOM     29  C   UNL     1      42.106  16.503 121.686 -0.26 -0.00    +0.000 A 
DOCKED: ATOM     30  C   UNL     1      42.300  16.586 123.077 -0.39 -0.00    +0.000 A 
DOCKED: ATOM     31  C   UNL     1      40.361  19.282 126.690 -0.24 -0.00    +0.000 C 
DOCKED: ATOM     32  H   UNL     1      42.141  17.305 125.780 -0.41 -0.00    +0.000 HD
DOCKED: ATOM     33  CM  UNL     1      40.883  18.241 124.339 +0.00 -0.00    +0.000 AC
DOCKED: ATOM     34  CM  UNL     1      41.338  17.402 122.428 +0.00 -0.00    +0.000 AC
DOCKED: ENDBRANCH  20  21
DOCKED: ENDBRANCH  19  20
DOCKED: ENDBRANCH   1  19
DOCKED: TORSDOF 8DOCKED: TER
DOCKED: ENDMDL
________________________________________________________________________________


	BEGINNING GENETIC ALGORITHM DOCKING 78 of 100
Run: 78 Seed: 1265488388 1584666593 [ Run 78 of 100 GA/GALS ]
Beginning LAMARCKIAN GENETIC ALGORITHM (LGA), with a maximum of 2500000 energy evaluations.

Final-Value: -15.149


	FINAL GENETIC ALGORITHM DOCKED STATE
	_______________________________________________


Detailed state:  trans 36.969 17.055 124.241 quatxyzw -0.288044 0.482565 0.604157 0.564938 center 0.698 0.076 -0.072 ntor 8 105.7181 160.8861 158.3357 154.1453 -170.8538 -143.3393 -79.7603 -27.9482
State:	 36.969  17.055 124.241  -0.349  0.585  0.732 111.204    105.72  160.89  158.34  154.15 -170.85 -143.34  -79.76  -27.95

DOCKED: MODEL       78
DOCKED: USER    Run = 78
DOCKED: USER    DPF = ligand_dock.biased.dpf
DOCKED: USER  
DOCKED: USER    Estimated Free Energy of Binding    =  -11.02 kcal/mol  [=(1)+(2)+(3)-(4)]
DOCKED: USER    Estimated Inhibition Constant, Ki   =    8.30 nM (nanomolar)  [Temperature = 298.15 K]
DOCKED: USER    
DOCKED: USER    (1) Final Intermolecular Energy     =  -13.41 kcal/mol
DOCKED: USER        vdW + Hbond + desolv Energy     =  -13.41 kcal/mol
DOCKED: USER        Electrostatic Energy            =   +0.00 kcal/mol
DOCKED: USER    (2) Final Total Internal Energy     =   -1.74 kcal/mol
DOCKED: USER    (3) Torsional Free Energy           =   +2.39 kcal/mol
DOCKED: USER    (4) Unbound System's Energy  [=(2)] =   -1.74 kcal/mol
DOCKED: USER    
DOCKED: USER    
DOCKED: USER    NEWDPF move ligand.dum.pdbqt
DOCKED: USER    NEWDPF about 0.698000 0.076000 -0.072000
DOCKED: USER    NEWDPF tran0 36.969409 17.055426 124.241356
DOCKED: USER    NEWDPF quaternion0 -0.288044 0.482565 0.604157 0.564938
DOCKED: USER    NEWDPF axisangle0 -0.349088 0.584833 0.732194 111.204020
DOCKED: USER    NEWDPF quat0 -0.349088 0.584833 0.732194 111.204020
DOCKED: USER    NEWDPF dihe0 105.72 160.89 158.34 154.15 -170.85 -143.34 -79.76 -27.95 
DOCKED: USER  keepresnum = 1 
DOCKED: USER  
DOCKED: REMARK  Name = 
DOCKED: REMARK  9 active torsions:
DOCKED: REMARK  status: ('A' for Active; 'I' for Inactive)
DOCKED: REMARK    1  A    between atoms: C_2  and  C_3
DOCKED: REMARK    2  A    between atoms: C_4  and  C_5
DOCKED: REMARK    3  A    between atoms: C_8  and  C_9
DOCKED: REMARK    4  A    between atoms: C_9  and  N_10
DOCKED: REMARK    5  A    between atoms: N_10  and  C_11
DOCKED: REMARK    6  A    between atoms: C_11  and  C_12
DOCKED: REMARK    7  A    between atoms: C_12  and  C_13
DOCKED: REMARK    8  A    between atoms: C_14  and  C_22
DOCKED: REMARK    9  A    between atoms: N_25  and  O_26
DOCKED: REMARK                            x       y       z     vdW  Elec       q    Type
DOCKED: REMARK                         _______ _______ _______ _____ _____    ______ ____
DOCKED: USER                              x       y       z     vdW  Elec       q    Type
DOCKED: USER                           _______ _______ _______ _____ _____    ______ ____
DOCKED: ROOT
DOCKED: ATOM      1  N   UNL     1      37.601  18.007 124.485 -0.20 -0.00    +0.000 N 
DOCKED: ATOM      2  H   UNL     1      38.389  17.659 123.939 -0.01 -0.00    +0.000 HD
DOCKED: ATOM      3  H   UNL     1      37.619  17.642 125.437 -0.01 -0.00    +0.000 HD
DOCKED: ENDROOT
DOCKED: BRANCH   1   4
DOCKED: ATOM      4  C   UNL     1      36.353  17.559 123.854 -0.27 -0.00    +0.000 C 
DOCKED: BRANCH   4   8
DOCKED: ATOM      5  C   UNL     1      36.734  13.477 122.474 -0.44 -0.00    +0.000 A 
DOCKED: ATOM      6  C   UNL     1      37.579  14.486 121.971 -0.35 -0.00    +0.000 A 
DOCKED: ATOM      7  C   UNL     1      37.457  15.803 122.423 -0.27 -0.00    +0.000 A 
DOCKED: ATOM      8  C   UNL     1      36.506  16.134 123.400 -0.32 -0.00    +0.000 A 
DOCKED: ATOM      9  C   UNL     1      35.664  15.132 123.906 -0.46 -0.00    +0.000 A 
DOCKED: ATOM     10  C   UNL     1      35.787  13.815 123.455 -0.47 -0.00    +0.000 A 
DOCKED: ATOM     11  CM  UNL     1      36.621  14.808 122.938 +0.00 -0.00    +0.000 AC
DOCKED: BRANCH   5  12
DOCKED: ATOM     12  C   UNL     1      36.787  11.018 122.881 -0.67 -0.00    +0.000 C 
DOCKED: ATOM     13  C   UNL     1      36.829  12.061 122.038 -0.59 -0.00    +0.000 C 
DOCKED: BRANCH  11  14
DOCKED: ATOM     14  O   UNL     1      36.957   9.371 121.208 -2.58 -0.00    +0.000 OA
DOCKED: ATOM     15  C   UNL     1      36.885   9.611 122.442 -0.65 -0.00    +0.000 C 
DOCKED: ATOM     16  N   UNL     1      36.874   8.515 123.368 -0.67 -0.00    +0.000 N 
DOCKED: ATOM     17  H   UNL     1      36.721   8.683 124.326 -0.40 -0.00    +0.000 HD
DOCKED: BRANCH  15  17
DOCKED: ATOM     18  O   UNL     1      37.073   7.250 122.927 -1.98 -0.00    +0.000 OA
DOCKED: ATOM     19  H   UNL     1      37.963   6.956 123.175 -0.48 -0.00    +0.000 HD
DOCKED: ENDBRANCH  15  17
DOCKED: ENDBRANCH  11  14
DOCKED: ENDBRANCH   5  12
DOCKED: ENDBRANCH   4   8
DOCKED: ENDBRANCH   1   4
DOCKED: BRANCH   1  19
DOCKED: ATOM     20  C   UNL     1      37.689  19.474 124.562 -0.13 -0.00    +0.000 C 
DOCKED: BRANCH  19  20
DOCKED: ATOM     21  C   UNL     1      39.142  19.969 124.669 -0.09 -0.00    +0.000 C 
DOCKED: BRANCH  20  21
DOCKED: ATOM     22  C   UNL     1      40.097  18.855 124.349 -0.17 -0.00    +0.000 A 
DOCKED: ATOM     23  C   UNL     1      41.006  18.240 125.213 -0.30 -0.00    +0.000 A 
DOCKED: ATOM     24  N   UNL     1      41.747  17.322 124.552 -0.21 -0.00    +0.000 N 
DOCKED: ATOM     25  C   UNL     1      41.333  17.366 123.274 -0.29 -0.00    +0.000 A 
DOCKED: ATOM     26  C   UNL     1      40.334  18.293 123.110 -0.15 -0.00    +0.000 A 
DOCKED: ATOM     27  C   UNL     1      39.759  18.539 121.862 -0.06 -0.00    +0.000 A 
DOCKED: ATOM     28  C   UNL     1      40.230  17.798 120.763 -0.06 -0.00    +0.000 A 
DOCKED: ATOM     29  C   UNL     1      41.255  16.840 120.933 -0.15 -0.00    +0.000 A 
DOCKED: ATOM     30  C   UNL     1      41.819  16.617 122.203 -0.30 -0.00    +0.000 A 
DOCKED: ATOM     31  C   UNL     1      41.142  18.515 126.677 -0.37 -0.00    +0.000 C 
DOCKED: ATOM     32  H   UNL     1      42.446  16.740 124.930 -0.33 +0.00    +0.000 HD
DOCKED: ATOM     33  CM  UNL     1      40.930  17.993 124.114 +0.00 -0.00    +0.000 AC
DOCKED: ATOM     34  CM  UNL     1      40.789  17.575 122.025 +0.00 -0.00    +0.000 AC
DOCKED: ENDBRANCH  20  21
DOCKED: ENDBRANCH  19  20
DOCKED: ENDBRANCH   1  19
DOCKED: TORSDOF 8DOCKED: TER
DOCKED: ENDMDL
________________________________________________________________________________


	BEGINNING GENETIC ALGORITHM DOCKING 79 of 100
Run: 79 Seed: 335230290 1374072958 [ Run 79 of 100 GA/GALS ]
Beginning LAMARCKIAN GENETIC ALGORITHM (LGA), with a maximum of 2500000 energy evaluations.

Final-Value: -16.321


	FINAL GENETIC ALGORITHM DOCKED STATE
	_______________________________________________


Detailed state:  trans 35.758 17.655 124.028 quatxyzw -0.014661 -0.963722 -0.256472 -0.072443 center 0.698 0.076 -0.072 ntor 8 10.8727 -17.5044 -35.6448 0.7885 -20.1219 -168.0281 -51.4445 -98.3669
State:	 35.758  17.655 124.028  -0.015 -0.966 -0.257 -171.691     10.87  -17.50  -35.64    0.79  -20.12 -168.03  -51.44  -98.37

DOCKED: MODEL       79
DOCKED: USER    Run = 79
DOCKED: USER    DPF = ligand_dock.biased.dpf
DOCKED: USER  
DOCKED: USER    Estimated Free Energy of Binding    =  -11.95 kcal/mol  [=(1)+(2)+(3)-(4)]
DOCKED: USER    Estimated Inhibition Constant, Ki   =    1.73 nM (nanomolar)  [Temperature = 298.15 K]
DOCKED: USER    
DOCKED: USER    (1) Final Intermolecular Energy     =  -14.34 kcal/mol
DOCKED: USER        vdW + Hbond + desolv Energy     =  -14.34 kcal/mol
DOCKED: USER        Electrostatic Energy            =   +0.00 kcal/mol
DOCKED: USER    (2) Final Total Internal Energy     =   -1.98 kcal/mol
DOCKED: USER    (3) Torsional Free Energy           =   +2.39 kcal/mol
DOCKED: USER    (4) Unbound System's Energy  [=(2)] =   -1.98 kcal/mol
DOCKED: USER    
DOCKED: USER    
DOCKED: USER    NEWDPF move ligand.dum.pdbqt
DOCKED: USER    NEWDPF about 0.698000 0.076000 -0.072000
DOCKED: USER    NEWDPF tran0 35.758089 17.654631 124.027649
DOCKED: USER    NEWDPF quaternion0 -0.014661 -0.963722 -0.256472 -0.072443
DOCKED: USER    NEWDPF axisangle0 -0.014699 -0.966260 -0.257147 -171.691325
DOCKED: USER    NEWDPF quat0 -0.014699 -0.966260 -0.257147 -171.691325
DOCKED: USER    NEWDPF dihe0 10.87 -17.50 -35.64 0.79 -20.12 -168.03 -51.44 -98.37 
DOCKED: USER  keepresnum = 1 
DOCKED: USER  
DOCKED: REMARK  Name = 
DOCKED: REMARK  9 active torsions:
DOCKED: REMARK  status: ('A' for Active; 'I' for Inactive)
DOCKED: REMARK    1  A    between atoms: C_2  and  C_3
DOCKED: REMARK    2  A    between atoms: C_4  and  C_5
DOCKED: REMARK    3  A    between atoms: C_8  and  C_9
DOCKED: REMARK    4  A    between atoms: C_9  and  N_10
DOCKED: REMARK    5  A    between atoms: N_10  and  C_11
DOCKED: REMARK    6  A    between atoms: C_11  and  C_12
DOCKED: REMARK    7  A    between atoms: C_12  and  C_13
DOCKED: REMARK    8  A    between atoms: C_14  and  C_22
DOCKED: REMARK    9  A    between atoms: N_25  and  O_26
DOCKED: REMARK                            x       y       z     vdW  Elec       q    Type
DOCKED: REMARK                         _______ _______ _______ _____ _____    ______ ____
DOCKED: USER                              x       y       z     vdW  Elec       q    Type
DOCKED: USER                           _______ _______ _______ _____ _____    ______ ____
DOCKED: ROOT
DOCKED: ATOM      1  N   UNL     1      36.805  18.050 124.362 -0.21 -0.00    +0.000 N 
DOCKED: ATOM      2  H   UNL     1      36.850  17.369 125.121 -0.02 -0.00    +0.000 HD
DOCKED: ATOM      3  H   UNL     1      36.299  18.888 124.645 -0.00 -0.00    +0.000 HD
DOCKED: ENDROOT
DOCKED: BRANCH   1   4
DOCKED: ATOM      4  C   UNL     1      36.085  17.449 123.231 -0.28 -0.00    +0.000 C 
DOCKED: BRANCH   4   8
DOCKED: ATOM      5  C   UNL     1      36.627  13.158 123.180 -0.54 -0.00    +0.000 A 
DOCKED: ATOM      6  C   UNL     1      37.574  14.008 122.573 -0.43 -0.00    +0.000 A 
DOCKED: ATOM      7  C   UNL     1      37.398  15.395 122.597 -0.31 -0.00    +0.000 A 
DOCKED: ATOM      8  C   UNL     1      36.289  15.960 123.243 -0.34 -0.00    +0.000 A 
DOCKED: ATOM      9  C   UNL     1      35.346  15.118 123.851 -0.49 -0.00    +0.000 A 
DOCKED: ATOM     10  C   UNL     1      35.522  13.732 123.829 -0.42 -0.00    +0.000 A 
DOCKED: ATOM     11  CM  UNL     1      36.459  14.561 123.212 +0.00 -0.00    +0.000 AC
DOCKED: BRANCH   5  12
DOCKED: ATOM     12  C   UNL     1      36.870  10.931 122.087 -0.59 -0.00    +0.000 C 
DOCKED: ATOM     13  C   UNL     1      36.771  11.681 123.195 -0.69 -0.00    +0.000 C 
DOCKED: BRANCH  11  14
DOCKED: ATOM     14  O   UNL     1      37.068   8.849 121.008 -2.70 -0.00    +0.000 OA
DOCKED: ATOM     15  C   UNL     1      37.010   9.460 122.107 -0.63 -0.00    +0.000 C 
DOCKED: ATOM     16  N   UNL     1      37.056   8.709 123.328 -0.66 -0.00    +0.000 N 
DOCKED: ATOM     17  H   UNL     1      36.915   9.164 124.190 -0.53 -0.00    +0.000 HD
DOCKED: BRANCH  15  17
DOCKED: ATOM     18  O   UNL     1      37.292   7.376 123.298 -2.04 -0.00    +0.000 OA
DOCKED: ATOM     19  H   UNL     1      37.576   7.117 122.408 -0.25 -0.00    +0.000 HD
DOCKED: ENDBRANCH  15  17
DOCKED: ENDBRANCH  11  14
DOCKED: ENDBRANCH   5  12
DOCKED: ENDBRANCH   4   8
DOCKED: ENDBRANCH   1   4
DOCKED: BRANCH   1  19
DOCKED: ATOM     20  C   UNL     1      38.174  18.449 124.001 -0.18 -0.00    +0.000 C 
DOCKED: BRANCH  19  20
DOCKED: ATOM     21  C   UNL     1      39.224  17.894 124.978 -0.19 -0.00    +0.000 C 
DOCKED: BRANCH  20  21
DOCKED: ATOM     22  C   UNL     1      40.596  17.981 124.375 -0.27 -0.00    +0.000 A 
DOCKED: ATOM     23  C   UNL     1      41.521  19.019 124.508 -0.16 -0.00    +0.000 A 
DOCKED: ATOM     24  N   UNL     1      42.624  18.775 123.764 +0.06 -0.00    +0.000 N 
DOCKED: ATOM     25  C   UNL     1      42.398  17.605 123.143 -0.28 -0.00    +0.000 A 
DOCKED: ATOM     26  C   UNL     1      41.171  17.093 123.484 -0.31 -0.00    +0.000 A 
DOCKED: ATOM     27  C   UNL     1      40.699  15.896 122.945 -0.30 -0.00    +0.000 A 
DOCKED: ATOM     28  C   UNL     1      41.528  15.212 122.037 -0.41 -0.00    +0.000 A 
DOCKED: ATOM     29  C   UNL     1      42.793  15.736 121.690 -0.31 -0.00    +0.000 A 
DOCKED: ATOM     30  C   UNL     1      43.240  16.949 122.245 -0.31 -0.00    +0.000 A 
DOCKED: ATOM     31  C   UNL     1      41.355  20.229 125.371 -0.14 -0.00    +0.000 C 
DOCKED: ATOM     32  H   UNL     1      43.428  19.340 123.692 -0.39 -0.00    +0.000 HD
DOCKED: ATOM     33  CM  UNL     1      41.692  18.117 123.852 +0.00 -0.00    +0.000 AC
DOCKED: ATOM     34  CM  UNL     1      41.972  16.416 122.591 +0.00 -0.00    +0.000 AC
DOCKED: ENDBRANCH  20  21
DOCKED: ENDBRANCH  19  20
DOCKED: ENDBRANCH   1  19
DOCKED: TORSDOF 8DOCKED: TER
DOCKED: ENDMDL
________________________________________________________________________________


	BEGINNING GENETIC ALGORITHM DOCKING 80 of 100
Run: 80 Seed: 134142148 1722915688 [ Run 80 of 100 GA/GALS ]
Beginning LAMARCKIAN GENETIC ALGORITHM (LGA), with a maximum of 2500000 energy evaluations.

Final-Value: -14.973


	FINAL GENETIC ALGORITHM DOCKED STATE
	_______________________________________________


Detailed state:  trans 36.839 17.407 124.512 quatxyzw -0.015546 0.846701 0.445388 0.290664 center 0.698 0.076 -0.072 ntor 8 89.4579 -110.2309 54.9542 -174.4257 -169.7046 -162.1942 -138.1309 -71.1675
State:	 36.839  17.407 124.512  -0.016  0.885  0.465 146.205     89.46 -110.23   54.95 -174.43 -169.70 -162.19 -138.13  -71.17

DOCKED: MODEL       80
DOCKED: USER    Run = 80
DOCKED: USER    DPF = ligand_dock.biased.dpf
DOCKED: USER  
DOCKED: USER    Estimated Free Energy of Binding    =  -11.43 kcal/mol  [=(1)+(2)+(3)-(4)]
DOCKED: USER    Estimated Inhibition Constant, Ki   =    4.22 nM (nanomolar)  [Temperature = 298.15 K]
DOCKED: USER    
DOCKED: USER    (1) Final Intermolecular Energy     =  -13.81 kcal/mol
DOCKED: USER        vdW + Hbond + desolv Energy     =  -13.81 kcal/mol
DOCKED: USER        Electrostatic Energy            =   +0.00 kcal/mol
DOCKED: USER    (2) Final Total Internal Energy     =   -1.16 kcal/mol
DOCKED: USER    (3) Torsional Free Energy           =   +2.39 kcal/mol
DOCKED: USER    (4) Unbound System's Energy  [=(2)] =   -1.16 kcal/mol
DOCKED: USER    
DOCKED: USER    
DOCKED: USER    NEWDPF move ligand.dum.pdbqt
DOCKED: USER    NEWDPF about 0.698000 0.076000 -0.072000
DOCKED: USER    NEWDPF tran0 36.838930 17.407274 124.511558
DOCKED: USER    NEWDPF quaternion0 -0.015546 0.846701 0.445388 0.290664
DOCKED: USER    NEWDPF axisangle0 -0.016247 0.884907 0.465485 146.204557
DOCKED: USER    NEWDPF quat0 -0.016247 0.884907 0.465485 146.204557
DOCKED: USER    NEWDPF dihe0 89.46 -110.23 54.95 -174.43 -169.70 -162.19 -138.13 -71.17 
DOCKED: USER  keepresnum = 1 
DOCKED: USER  
DOCKED: REMARK  Name = 
DOCKED: REMARK  9 active torsions:
DOCKED: REMARK  status: ('A' for Active; 'I' for Inactive)
DOCKED: REMARK    1  A    between atoms: C_2  and  C_3
DOCKED: REMARK    2  A    between atoms: C_4  and  C_5
DOCKED: REMARK    3  A    between atoms: C_8  and  C_9
DOCKED: REMARK    4  A    between atoms: C_9  and  N_10
DOCKED: REMARK    5  A    between atoms: N_10  and  C_11
DOCKED: REMARK    6  A    between atoms: C_11  and  C_12
DOCKED: REMARK    7  A    between atoms: C_12  and  C_13
DOCKED: REMARK    8  A    between atoms: C_14  and  C_22
DOCKED: REMARK    9  A    between atoms: N_25  and  O_26
DOCKED: REMARK                            x       y       z     vdW  Elec       q    Type
DOCKED: REMARK                         _______ _______ _______ _____ _____    ______ ____
DOCKED: USER                              x       y       z     vdW  Elec       q    Type
DOCKED: USER                           _______ _______ _______ _____ _____    ______ ____
DOCKED: ROOT
DOCKED: ATOM      1  N   UNL     1      37.911  17.866 124.577 -0.20 -0.00    +0.000 N 
DOCKED: ATOM      2  H   UNL     1      38.304  16.975 124.881 -0.01 -0.00    +0.000 HD
DOCKED: ATOM      3  H   UNL     1      37.539  18.395 125.365 -0.01 -0.00    +0.000 HD
DOCKED: ENDROOT
DOCKED: BRANCH   1   4
DOCKED: ATOM      4  C   UNL     1      36.804  17.602 123.649 -0.24 -0.00    +0.000 C 
DOCKED: BRANCH   4   8
DOCKED: ATOM      5  C   UNL     1      36.366  13.354 122.962 -0.49 -0.00    +0.000 A 
DOCKED: ATOM      6  C   UNL     1      37.362  14.090 122.291 -0.41 -0.00    +0.000 A 
DOCKED: ATOM      7  C   UNL     1      37.505  15.462 122.520 -0.30 -0.00    +0.000 A 
DOCKED: ATOM      8  C   UNL     1      36.672  16.121 123.436 -0.31 -0.00    +0.000 A 
DOCKED: ATOM      9  C   UNL     1      35.680  15.391 124.109 -0.43 -0.00    +0.000 A 
DOCKED: ATOM     10  C   UNL     1      35.538  14.019 123.882 -0.46 -0.00    +0.000 A 
DOCKED: ATOM     11  CM  UNL     1      36.520  14.739 123.199 +0.00 -0.00    +0.000 AC
DOCKED: BRANCH   5  12
DOCKED: ATOM     12  C   UNL     1      37.183  11.046 122.499 -0.43 -0.00    +0.000 C 
DOCKED: ATOM     13  C   UNL     1      36.179  11.895 122.766 -0.64 -0.00    +0.000 C 
DOCKED: BRANCH  11  14
DOCKED: ATOM     14  O   UNL     1      36.690   9.179 121.152 -2.62 -0.00    +0.000 OA
DOCKED: ATOM     15  C   UNL     1      36.992   9.593 122.302 -0.62 -0.00    +0.000 C 
DOCKED: ATOM     16  N   UNL     1      37.115   8.650 123.376 -0.65 -0.00    +0.000 N 
DOCKED: ATOM     17  H   UNL     1      37.255   8.969 124.296 -0.57 -0.00    +0.000 HD
DOCKED: BRANCH  15  17
DOCKED: ATOM     18  O   UNL     1      37.036   7.321 123.126 -2.12 -0.00    +0.000 OA
DOCKED: ATOM     19  H   UNL     1      37.921   6.975 122.929 -0.48 -0.00    +0.000 HD
DOCKED: ENDBRANCH  15  17
DOCKED: ENDBRANCH  11  14
DOCKED: ENDBRANCH   5  12
DOCKED: ENDBRANCH   4   8
DOCKED: ENDBRANCH   1   4
DOCKED: BRANCH   1  19
DOCKED: ATOM     20  C   UNL     1      38.977  18.668 123.957 -0.16 -0.00    +0.000 C 
DOCKED: BRANCH  19  20
DOCKED: ATOM     21  C   UNL     1      39.634  19.640 124.952 -0.13 -0.00    +0.000 C 
DOCKED: BRANCH  20  21
DOCKED: ATOM     22  C   UNL     1      39.258  19.278 126.360 -0.16 -0.00    +0.000 A 
DOCKED: ATOM     23  C   UNL     1      38.091  19.624 127.045 -0.12 -0.00    +0.000 A 
DOCKED: ATOM     24  N   UNL     1      38.135  19.176 128.321 -0.14 -0.00    +0.000 N 
DOCKED: ATOM     25  C   UNL     1      39.327  18.570 128.456 -0.22 -0.00    +0.000 A 
DOCKED: ATOM     26  C   UNL     1      40.042  18.617 127.286 -0.27 -0.00    +0.000 A 
DOCKED: ATOM     27  C   UNL     1      41.325  18.076 127.187 -0.38 -0.00    +0.000 A 
DOCKED: ATOM     28  C   UNL     1      41.870  17.464 128.331 -0.48 -0.00    +0.000 A 
DOCKED: ATOM     29  C   UNL     1      41.132  17.411 129.534 -0.37 -0.00    +0.000 A 
DOCKED: ATOM     30  C   UNL     1      39.842  17.970 129.605 -0.29 -0.00    +0.000 A 
DOCKED: ATOM     31  C   UNL     1      36.925  20.360 126.466 -0.09 -0.00    +0.000 C 
DOCKED: ATOM     32  H   UNL     1      37.436  19.273 129.008 -0.00 -0.00    +0.000 HD
DOCKED: ATOM     33  CM  UNL     1      38.944  19.057 127.520 +0.00 -0.00    +0.000 AC
DOCKED: ATOM     34  CM  UNL     1      40.589  18.018 128.400 +0.00 -0.00    +0.000 AC
DOCKED: ENDBRANCH  20  21
DOCKED: ENDBRANCH  19  20
DOCKED: ENDBRANCH   1  19
DOCKED: TORSDOF 8DOCKED: TER
DOCKED: ENDMDL
________________________________________________________________________________


	BEGINNING GENETIC ALGORITHM DOCKING 81 of 100
Run: 81 Seed: 1985454948 1493532158 [ Run 81 of 100 GA/GALS ]
Beginning LAMARCKIAN GENETIC ALGORITHM (LGA), with a maximum of 2500000 energy evaluations.

Final-Value: -15.918


	FINAL GENETIC ALGORITHM DOCKED STATE
	_______________________________________________


Detailed state:  trans 35.370 16.851 123.989 quatxyzw -0.681008 0.680322 0.143153 -0.229995 center 0.698 0.076 -0.072 ntor 8 -6.0466 66.1225 57.1777 -168.7682 64.9649 -64.8719 -44.9614 -16.4598
State:	 35.370  16.851 123.989  -0.700  0.699  0.147 -153.407     -6.05   66.12   57.18 -168.77   64.96  -64.87  -44.96  -16.46

DOCKED: MODEL       81
DOCKED: USER    Run = 81
DOCKED: USER    DPF = ligand_dock.biased.dpf
DOCKED: USER  
DOCKED: USER    Estimated Free Energy of Binding    =  -12.02 kcal/mol  [=(1)+(2)+(3)-(4)]
DOCKED: USER    Estimated Inhibition Constant, Ki   =    1.56 nM (nanomolar)  [Temperature = 298.15 K]
DOCKED: USER    
DOCKED: USER    (1) Final Intermolecular Energy     =  -14.40 kcal/mol
DOCKED: USER        vdW + Hbond + desolv Energy     =  -14.40 kcal/mol
DOCKED: USER        Electrostatic Energy            =   +0.00 kcal/mol
DOCKED: USER    (2) Final Total Internal Energy     =   -1.52 kcal/mol
DOCKED: USER    (3) Torsional Free Energy           =   +2.39 kcal/mol
DOCKED: USER    (4) Unbound System's Energy  [=(2)] =   -1.52 kcal/mol
DOCKED: USER    
DOCKED: USER    
DOCKED: USER    NEWDPF move ligand.dum.pdbqt
DOCKED: USER    NEWDPF about 0.698000 0.076000 -0.072000
DOCKED: USER    NEWDPF tran0 35.369777 16.850725 123.989354
DOCKED: USER    NEWDPF quaternion0 -0.681008 0.680322 0.143153 -0.229995
DOCKED: USER    NEWDPF axisangle0 -0.699768 0.699062 0.147097 -153.406502
DOCKED: USER    NEWDPF quat0 -0.699768 0.699062 0.147097 -153.406502
DOCKED: USER    NEWDPF dihe0 -6.05 66.12 57.18 -168.77 64.96 -64.87 -44.96 -16.46 
DOCKED: USER  keepresnum = 1 
DOCKED: USER  
DOCKED: REMARK  Name = 
DOCKED: REMARK  9 active torsions:
DOCKED: REMARK  status: ('A' for Active; 'I' for Inactive)
DOCKED: REMARK    1  A    between atoms: C_2  and  C_3
DOCKED: REMARK    2  A    between atoms: C_4  and  C_5
DOCKED: REMARK    3  A    between atoms: C_8  and  C_9
DOCKED: REMARK    4  A    between atoms: C_9  and  N_10
DOCKED: REMARK    5  A    between atoms: N_10  and  C_11
DOCKED: REMARK    6  A    between atoms: C_11  and  C_12
DOCKED: REMARK    7  A    between atoms: C_12  and  C_13
DOCKED: REMARK    8  A    between atoms: C_14  and  C_22
DOCKED: REMARK    9  A    between atoms: N_25  and  O_26
DOCKED: REMARK                            x       y       z     vdW  Elec       q    Type
DOCKED: REMARK                         _______ _______ _______ _____ _____    ______ ____
DOCKED: USER                              x       y       z     vdW  Elec       q    Type
DOCKED: USER                           _______ _______ _______ _____ _____    ______ ____
DOCKED: ROOT
DOCKED: ATOM      1  N   UNL     1      34.738  17.605 124.619 -0.35 -0.00    +0.000 N 
DOCKED: ATOM      2  H   UNL     1      34.836  17.030 125.457 -0.02 -0.00    +0.000 HD
DOCKED: ATOM      3  H   UNL     1      33.957  17.292 124.044 -0.02 -0.00    +0.000 HD
DOCKED: ENDROOT
DOCKED: BRANCH   1   4
DOCKED: ATOM      4  C   UNL     1      35.963  17.485 123.818 -0.30 -0.00    +0.000 C 
DOCKED: BRANCH   4   8
DOCKED: ATOM      5  C   UNL     1      36.854  13.293 123.225 -0.52 -0.00    +0.000 A 
DOCKED: ATOM      6  C   UNL     1      35.564  13.704 123.618 -0.44 -0.00    +0.000 A 
DOCKED: ATOM      7  C   UNL     1      35.279  15.060 123.804 -0.49 -0.00    +0.000 A 
DOCKED: ATOM      8  C   UNL     1      36.265  16.032 123.580 -0.34 -0.00    +0.000 A 
DOCKED: ATOM      9  C   UNL     1      37.549  15.628 123.186 -0.31 -0.00    +0.000 A 
DOCKED: ATOM     10  C   UNL     1      37.835  14.272 122.998 -0.42 -0.00    +0.000 A 
DOCKED: ATOM     11  CM  UNL     1      36.558  14.665 123.402 +0.00 -0.00    +0.000 AC
DOCKED: BRANCH   5  12
DOCKED: ATOM     12  C   UNL     1      36.357  10.961 122.500 -0.68 -0.00    +0.000 C 
DOCKED: ATOM     13  C   UNL     1      37.207  11.869 123.002 -0.58 -0.00    +0.000 C 
DOCKED: BRANCH  11  14
DOCKED: ATOM     14  O   UNL     1      37.059   9.183 121.127 -2.73 -0.00    +0.000 OA
DOCKED: ATOM     15  C   UNL     1      36.712   9.543 122.282 -0.71 -0.00    +0.000 C 
DOCKED: ATOM     16  N   UNL     1      36.650   8.566 123.331 -0.66 -0.00    +0.000 N 
DOCKED: ATOM     17  H   UNL     1      36.289   8.814 124.212 -0.31 -0.00    +0.000 HD
DOCKED: BRANCH  15  17
DOCKED: ATOM     18  O   UNL     1      37.087   7.303 123.110 -2.11 -0.00    +0.000 OA
DOCKED: ATOM     19  H   UNL     1      37.319   7.199 122.174 -0.15 -0.00    +0.000 HD
DOCKED: ENDBRANCH  15  17
DOCKED: ENDBRANCH  11  14
DOCKED: ENDBRANCH   5  12
DOCKED: ENDBRANCH   4   8
DOCKED: ENDBRANCH   1   4
DOCKED: BRANCH   1  19
DOCKED: ATOM     20  C   UNL     1      34.474  18.993 125.026 -0.27 -0.00    +0.000 C 
DOCKED: BRANCH  19  20
DOCKED: ATOM     21  C   UNL     1      34.386  19.150 126.554 -0.23 -0.00    +0.000 C 
DOCKED: BRANCH  20  21
DOCKED: ATOM     22  C   UNL     1      32.978  19.469 126.966 -0.21 -0.00    +0.000 A 
DOCKED: ATOM     23  C   UNL     1      32.319  20.696 126.865 -0.19 -0.00    +0.000 A 
DOCKED: ATOM     24  N   UNL     1      31.079  20.618 127.401 -0.24 -0.00    +0.000 N 
DOCKED: ATOM     25  C   UNL     1      30.955  19.361 127.861 -0.25 -0.00    +0.000 A 
DOCKED: ATOM     26  C   UNL     1      32.093  18.633 127.621 -0.21 -0.00    +0.000 A 
DOCKED: ATOM     27  C   UNL     1      32.215  17.304 128.030 -0.34 -0.00    +0.000 A 
DOCKED: ATOM     28  C   UNL     1      31.123  16.720 128.697 -0.44 -0.00    +0.000 A 
DOCKED: ATOM     29  C   UNL     1      29.950  17.468 128.940 -0.37 -0.00    +0.000 A 
DOCKED: ATOM     30  C   UNL     1      29.858  18.808 128.520 -0.34 -0.00    +0.000 A 
DOCKED: ATOM     31  C   UNL     1      32.869  21.933 126.230 -0.17 -0.00    +0.000 C 
DOCKED: ATOM     32  H   UNL     1      30.405  21.335 127.445 -0.00 -0.00    +0.000 HD
DOCKED: ATOM     33  CM  UNL     1      31.859  19.783 127.344 +0.00 -0.00    +0.000 AC
DOCKED: ATOM     34  CM  UNL     1      31.032  18.050 128.278 +0.00 -0.00    +0.000 AC
DOCKED: ENDBRANCH  20  21
DOCKED: ENDBRANCH  19  20
DOCKED: ENDBRANCH   1  19
DOCKED: TORSDOF 8DOCKED: TER
DOCKED: ENDMDL
________________________________________________________________________________


	BEGINNING GENETIC ALGORITHM DOCKING 82 of 100
Run: 82 Seed: 1678788622 766610784 [ Run 82 of 100 GA/GALS ]
Beginning LAMARCKIAN GENETIC ALGORITHM (LGA), with a maximum of 2500000 energy evaluations.

Final-Value: -15.181


	FINAL GENETIC ALGORITHM DOCKED STATE
	_______________________________________________


Detailed state:  trans 35.875 16.733 123.086 quatxyzw -0.465309 0.386380 -0.474679 -0.639435 center 0.698 0.076 -0.072 ntor 8 8.3741 20.6586 -85.7623 -5.9226 157.7099 17.6000 171.4581 4.0529
State:	 35.875  16.733 123.086  -0.605  0.503 -0.617 -100.501      8.37   20.66  -85.76   -5.92  157.71   17.60  171.46    4.05

DOCKED: MODEL       82
DOCKED: USER    Run = 82
DOCKED: USER    DPF = ligand_dock.biased.dpf
DOCKED: USER  
DOCKED: USER    Estimated Free Energy of Binding    =  -10.39 kcal/mol  [=(1)+(2)+(3)-(4)]
DOCKED: USER    Estimated Inhibition Constant, Ki   =   24.13 nM (nanomolar)  [Temperature = 298.15 K]
DOCKED: USER    
DOCKED: USER    (1) Final Intermolecular Energy     =  -12.78 kcal/mol
DOCKED: USER        vdW + Hbond + desolv Energy     =  -12.78 kcal/mol
DOCKED: USER        Electrostatic Energy            =   +0.00 kcal/mol
DOCKED: USER    (2) Final Total Internal Energy     =   -2.40 kcal/mol
DOCKED: USER    (3) Torsional Free Energy           =   +2.39 kcal/mol
DOCKED: USER    (4) Unbound System's Energy  [=(2)] =   -2.40 kcal/mol
DOCKED: USER    
DOCKED: USER    
DOCKED: USER    NEWDPF move ligand.dum.pdbqt
DOCKED: USER    NEWDPF about 0.698000 0.076000 -0.072000
DOCKED: USER    NEWDPF tran0 35.875433 16.733438 123.085646
DOCKED: USER    NEWDPF quaternion0 -0.465309 0.386380 -0.474679 -0.639435
DOCKED: USER    NEWDPF axisangle0 -0.605206 0.502546 -0.617393 -100.500544
DOCKED: USER    NEWDPF quat0 -0.605206 0.502546 -0.617393 -100.500544
DOCKED: USER    NEWDPF dihe0 8.37 20.66 -85.76 -5.92 157.71 17.60 171.46 4.05 
DOCKED: USER  keepresnum = 1 
DOCKED: USER  
DOCKED: REMARK  Name = 
DOCKED: REMARK  9 active torsions:
DOCKED: REMARK  status: ('A' for Active; 'I' for Inactive)
DOCKED: REMARK    1  A    between atoms: C_2  and  C_3
DOCKED: REMARK    2  A    between atoms: C_4  and  C_5
DOCKED: REMARK    3  A    between atoms: C_8  and  C_9
DOCKED: REMARK    4  A    between atoms: C_9  and  N_10
DOCKED: REMARK    5  A    between atoms: N_10  and  C_11
DOCKED: REMARK    6  A    between atoms: C_11  and  C_12
DOCKED: REMARK    7  A    between atoms: C_12  and  C_13
DOCKED: REMARK    8  A    between atoms: C_14  and  C_22
DOCKED: REMARK    9  A    between atoms: N_25  and  O_26
DOCKED: REMARK                            x       y       z     vdW  Elec       q    Type
DOCKED: REMARK                         _______ _______ _______ _____ _____    ______ ____
DOCKED: USER                              x       y       z     vdW  Elec       q    Type
DOCKED: USER                           _______ _______ _______ _____ _____    ______ ____
DOCKED: ROOT
DOCKED: ATOM      1  N   UNL     1      35.555  17.705 122.522 -0.25 -0.00    +0.000 N 
DOCKED: ATOM      2  H   UNL     1      34.590  17.383 122.457 -0.02 -0.00    +0.000 HD
DOCKED: ATOM      3  H   UNL     1      36.121  17.340 121.756 +0.00 -0.00    +0.000 HD
DOCKED: ENDROOT
DOCKED: BRANCH   1   4
DOCKED: ATOM      4  C   UNL     1      36.133  17.217 123.781 -0.31 -0.00    +0.000 C 
DOCKED: BRANCH   4   8
DOCKED: ATOM      5  C   UNL     1      36.869  12.974 123.374 -0.55 -0.00    +0.000 A 
DOCKED: ATOM      6  C   UNL     1      37.920  13.901 123.226 -0.39 -0.00    +0.000 A 
DOCKED: ATOM      7  C   UNL     1      37.679  15.272 123.364 -0.29 -0.00    +0.000 A 
DOCKED: ATOM      8  C   UNL     1      36.394  15.741 123.672 -0.35 -0.00    +0.000 A 
DOCKED: ATOM      9  C   UNL     1      35.346  14.821 123.824 -0.50 -0.00    +0.000 A 
DOCKED: ATOM     10  C   UNL     1      35.586  13.450 123.688 -0.41 -0.00    +0.000 A 
DOCKED: ATOM     11  CM  UNL     1      36.632  14.359 123.524 +0.00 -0.00    +0.000 AC
DOCKED: BRANCH   5  12
DOCKED: ATOM     12  C   UNL     1      36.630  10.781 122.214 -0.65 -0.00    +0.000 C 
DOCKED: ATOM     13  C   UNL     1      37.072  11.509 123.251 -0.66 -0.00    +0.000 C 
DOCKED: BRANCH  11  14
DOCKED: ATOM     14  O   UNL     1      37.054   8.838 120.955 -2.70 -0.00    +0.000 OA
DOCKED: ATOM     15  C   UNL     1      36.831   9.322 122.096 -0.69 -0.00    +0.000 C 
DOCKED: ATOM     16  N   UNL     1      36.756   8.442 123.227 -0.70 -0.00    +0.000 N 
DOCKED: ATOM     17  H   UNL     1      36.487   8.794 124.106 -0.36 -0.00    +0.000 HD
DOCKED: BRANCH  15  17
DOCKED: ATOM     18  O   UNL     1      37.052   7.128 123.087 -1.94 -0.00    +0.000 OA
DOCKED: ATOM     19  H   UNL     1      37.421   6.971 122.204 -0.23 -0.00    +0.000 HD
DOCKED: ENDBRANCH  15  17
DOCKED: ENDBRANCH  11  14
DOCKED: ENDBRANCH   5  12
DOCKED: ENDBRANCH   4   8
DOCKED: ENDBRANCH   1   4
DOCKED: BRANCH   1  19
DOCKED: ATOM     20  C   UNL     1      35.571  19.174 122.436 -0.18 -0.00    +0.000 C 
DOCKED: BRANCH  19  20
DOCKED: ATOM     21  C   UNL     1      36.811  19.704 121.695 -0.14 -0.00    +0.000 C 
DOCKED: BRANCH  20  21
DOCKED: ATOM     22  C   UNL     1      37.880  18.651 121.648 -0.07 -0.00    +0.000 A 
DOCKED: ATOM     23  C   UNL     1      38.028  17.630 120.707 -0.07 -0.00    +0.000 A 
DOCKED: ATOM     24  N   UNL     1      39.072  16.831 121.029 -0.11 -0.00    +0.000 N 
DOCKED: ATOM     25  C   UNL     1      39.572  17.323 122.175 -0.14 -0.00    +0.000 A 
DOCKED: ATOM     26  C   UNL     1      38.869  18.427 122.588 -0.09 -0.00    +0.000 A 
DOCKED: ATOM     27  C   UNL     1      39.184  19.100 123.769 -0.10 -0.00    +0.000 A 
DOCKED: ATOM     28  C   UNL     1      40.262  18.616 124.533 -0.21 -0.00    +0.000 A 
DOCKED: ATOM     29  C   UNL     1      40.989  17.482 124.106 -0.30 -0.00    +0.000 A 
DOCKED: ATOM     30  C   UNL     1      40.644  16.821 122.912 -0.27 -0.00    +0.000 A 
DOCKED: ATOM     31  C   UNL     1      37.185  17.438 119.487 -0.10 -0.00    +0.000 C 
DOCKED: ATOM     32  H   UNL     1      39.398  16.050 120.525 +0.00 -0.00    +0.000 HD
DOCKED: ATOM     33  CM  UNL     1      38.696  17.743 121.610 +0.00 -0.00    +0.000 AC
DOCKED: ATOM     34  CM  UNL     1      39.920  17.961 123.347 +0.00 -0.00    +0.000 AC
DOCKED: ENDBRANCH  20  21
DOCKED: ENDBRANCH  19  20
DOCKED: ENDBRANCH   1  19
DOCKED: TORSDOF 8DOCKED: TER
DOCKED: ENDMDL
________________________________________________________________________________


	BEGINNING GENETIC ALGORITHM DOCKING 83 of 100
Run: 83 Seed: 861150009 1999293356 [ Run 83 of 100 GA/GALS ]
Beginning LAMARCKIAN GENETIC ALGORITHM (LGA), with a maximum of 2500000 energy evaluations.

Final-Value: -15.828


	FINAL GENETIC ALGORITHM DOCKED STATE
	_______________________________________________


Detailed state:  trans 35.577 17.244 123.140 quatxyzw 0.321222 -0.459590 0.686326 0.463195 center 0.698 0.076 -0.072 ntor 8 10.0171 -4.3657 118.8137 176.7119 131.5996 177.7300 -160.0668 37.5115
State:	 35.577  17.244 123.140   0.362 -0.519  0.774 124.813     10.02   -4.37  118.81  176.71  131.60  177.73 -160.07   37.51

DOCKED: MODEL       83
DOCKED: USER    Run = 83
DOCKED: USER    DPF = ligand_dock.biased.dpf
DOCKED: USER  
DOCKED: USER    Estimated Free Energy of Binding    =  -10.53 kcal/mol  [=(1)+(2)+(3)-(4)]
DOCKED: USER    Estimated Inhibition Constant, Ki   =   19.00 nM (nanomolar)  [Temperature = 298.15 K]
DOCKED: USER    
DOCKED: USER    (1) Final Intermolecular Energy     =  -12.92 kcal/mol
DOCKED: USER        vdW + Hbond + desolv Energy     =  -12.92 kcal/mol
DOCKED: USER        Electrostatic Energy            =   +0.00 kcal/mol
DOCKED: USER    (2) Final Total Internal Energy     =   -2.91 kcal/mol
DOCKED: USER    (3) Torsional Free Energy           =   +2.39 kcal/mol
DOCKED: USER    (4) Unbound System's Energy  [=(2)] =   -2.91 kcal/mol
DOCKED: USER    
DOCKED: USER    
DOCKED: USER    NEWDPF move ligand.dum.pdbqt
DOCKED: USER    NEWDPF about 0.698000 0.076000 -0.072000
DOCKED: USER    NEWDPF tran0 35.577208 17.243920 123.139645
DOCKED: USER    NEWDPF quaternion0 0.321222 -0.459590 0.686326 0.463195
DOCKED: USER    NEWDPF axisangle0 0.362448 -0.518575 0.774410 124.813002
DOCKED: USER    NEWDPF quat0 0.362448 -0.518575 0.774410 124.813002
DOCKED: USER    NEWDPF dihe0 10.02 -4.37 118.81 176.71 131.60 177.73 -160.07 37.51 
DOCKED: USER  keepresnum = 1 
DOCKED: USER  
DOCKED: REMARK  Name = 
DOCKED: REMARK  9 active torsions:
DOCKED: REMARK  status: ('A' for Active; 'I' for Inactive)
DOCKED: REMARK    1  A    between atoms: C_2  and  C_3
DOCKED: REMARK    2  A    between atoms: C_4  and  C_5
DOCKED: REMARK    3  A    between atoms: C_8  and  C_9
DOCKED: REMARK    4  A    between atoms: C_9  and  N_10
DOCKED: REMARK    5  A    between atoms: N_10  and  C_11
DOCKED: REMARK    6  A    between atoms: C_11  and  C_12
DOCKED: REMARK    7  A    between atoms: C_12  and  C_13
DOCKED: REMARK    8  A    between atoms: C_14  and  C_22
DOCKED: REMARK    9  A    between atoms: N_25  and  O_26
DOCKED: REMARK                            x       y       z     vdW  Elec       q    Type
DOCKED: REMARK                         _______ _______ _______ _____ _____    ______ ____
DOCKED: USER                              x       y       z     vdW  Elec       q    Type
DOCKED: USER                           _______ _______ _______ _____ _____    ______ ____
DOCKED: ROOT
DOCKED: ATOM      1  N   UNL     1      35.936  18.156 122.505 -0.21 -0.00    +0.000 N 
DOCKED: ATOM      2  H   UNL     1      34.974  18.452 122.335 -0.01 -0.00    +0.000 HD
DOCKED: ATOM      3  H   UNL     1      36.233  17.455 121.828 +0.00 -0.00    +0.000 HD
DOCKED: ENDROOT
DOCKED: BRANCH   1   4
DOCKED: ATOM      4  C   UNL     1      36.017  17.555 123.842 -0.29 -0.00    +0.000 C 
DOCKED: BRANCH   4   8
DOCKED: ATOM      5  C   UNL     1      36.446  13.260 123.563 -0.53 -0.00    +0.000 A 
DOCKED: ATOM      6  C   UNL     1      35.190  13.839 123.832 -0.23 -0.00    +0.000 A 
DOCKED: ATOM      7  C   UNL     1      35.054  15.228 123.916 -0.51 -0.00    +0.000 A 
DOCKED: ATOM      8  C   UNL     1      36.161  16.065 123.713 -0.35 -0.00    +0.000 A 
DOCKED: ATOM      9  C   UNL     1      37.413  15.493 123.441 -0.31 -0.00    +0.000 A 
DOCKED: ATOM     10  C   UNL     1      37.550  14.104 123.355 -0.40 -0.00    +0.000 A 
DOCKED: ATOM     11  CM  UNL     1      36.302  14.664 123.637 +0.00 -0.00    +0.000 AC
DOCKED: BRANCH   5  12
DOCKED: ATOM     12  C   UNL     1      36.651  11.130 122.284 -0.65 -0.00    +0.000 C 
DOCKED: ATOM     13  C   UNL     1      36.644  11.793 123.451 -0.70 -0.00    +0.000 C 
DOCKED: BRANCH  11  14
DOCKED: ATOM     14  O   UNL     1      37.059   9.175 121.040 -2.73 -0.00    +0.000 OA
DOCKED: ATOM     15  C   UNL     1      36.846   9.669 122.177 -0.65 -0.00    +0.000 C 
DOCKED: ATOM     16  N   UNL     1      36.775   8.799 123.316 -0.63 -0.00    +0.000 N 
DOCKED: ATOM     17  H   UNL     1      36.514   9.160 124.194 -0.41 -0.00    +0.000 HD
DOCKED: BRANCH  15  17
DOCKED: ATOM     18  O   UNL     1      37.066   7.483 123.185 -2.22 -0.00    +0.000 OA
DOCKED: ATOM     19  H   UNL     1      37.452   7.321 122.310 -0.15 -0.00    +0.000 HD
DOCKED: ENDBRANCH  15  17
DOCKED: ENDBRANCH  11  14
DOCKED: ENDBRANCH   5  12
DOCKED: ENDBRANCH   4   8
DOCKED: ENDBRANCH   1   4
DOCKED: BRANCH   1  19
DOCKED: ATOM     20  C   UNL     1      36.821  19.323 122.365 -0.16 -0.00    +0.000 C 
DOCKED: BRANCH  19  20
DOCKED: ATOM     21  C   UNL     1      37.819  19.166 121.205 -0.08 -0.00    +0.000 C 
DOCKED: BRANCH  20  21
DOCKED: ATOM     22  C   UNL     1      38.421  17.791 121.217 -0.07 -0.00    +0.000 A 
DOCKED: ATOM     23  C   UNL     1      39.594  17.380 121.853 -0.12 -0.00    +0.000 A 
DOCKED: ATOM     24  N   UNL     1      39.855  16.080 121.584 -0.21 -0.00    +0.000 N 
DOCKED: ATOM     25  C   UNL     1      38.870  15.670 120.766 -0.19 -0.00    +0.000 A 
DOCKED: ATOM     26  C   UNL     1      37.982  16.685 120.514 -0.11 -0.00    +0.000 A 
DOCKED: ATOM     27  C   UNL     1      36.886  16.508 119.668 -0.14 -0.00    +0.000 A 
DOCKED: ATOM     28  C   UNL     1      36.707  15.243 119.079 -0.20 -0.00    +0.000 A 
DOCKED: ATOM     29  C   UNL     1      37.619  14.197 119.343 -0.30 -0.00    +0.000 A 
DOCKED: ATOM     30  C   UNL     1      38.719  14.406 120.195 -0.20 -0.00    +0.000 A 
DOCKED: ATOM     31  C   UNL     1      40.449  18.229 122.740 -0.15 -0.00    +0.000 C 
DOCKED: ATOM     32  H   UNL     1      40.610  15.545 121.919 -0.01 -0.00    +0.000 HD
DOCKED: ATOM     33  CM  UNL     1      38.974  16.701 121.200 +0.00 -0.00    +0.000 AC
DOCKED: ATOM     34  CM  UNL     1      37.798  15.451 119.928 +0.00 -0.00    +0.000 AC
DOCKED: ENDBRANCH  20  21
DOCKED: ENDBRANCH  19  20
DOCKED: ENDBRANCH   1  19
DOCKED: TORSDOF 8DOCKED: TER
DOCKED: ENDMDL
________________________________________________________________________________


	BEGINNING GENETIC ALGORITHM DOCKING 84 of 100
Run: 84 Seed: 960211130 418983201 [ Run 84 of 100 GA/GALS ]
Beginning LAMARCKIAN GENETIC ALGORITHM (LGA), with a maximum of 2500000 energy evaluations.

Final-Value: -15.692


	FINAL GENETIC ALGORITHM DOCKED STATE
	_______________________________________________


Detailed state:  trans 37.489 16.919 123.841 quatxyzw 0.647625 -0.595618 -0.420185 -0.221959 center 0.698 0.076 -0.072 ntor 8 2.8028 163.9727 154.4592 9.0602 140.2717 135.1758 -9.1294 7.6963
State:	 37.489  16.919 123.841   0.664 -0.611 -0.431 -154.352      2.80  163.97  154.46    9.06  140.27  135.18   -9.13    7.70

DOCKED: MODEL       84
DOCKED: USER    Run = 84
DOCKED: USER    DPF = ligand_dock.biased.dpf
DOCKED: USER  
DOCKED: USER    Estimated Free Energy of Binding    =  -11.40 kcal/mol  [=(1)+(2)+(3)-(4)]
DOCKED: USER    Estimated Inhibition Constant, Ki   =    4.43 nM (nanomolar)  [Temperature = 298.15 K]
DOCKED: USER    
DOCKED: USER    (1) Final Intermolecular Energy     =  -13.78 kcal/mol
DOCKED: USER        vdW + Hbond + desolv Energy     =  -13.78 kcal/mol
DOCKED: USER        Electrostatic Energy            =   +0.00 kcal/mol
DOCKED: USER    (2) Final Total Internal Energy     =   -1.91 kcal/mol
DOCKED: USER    (3) Torsional Free Energy           =   +2.39 kcal/mol
DOCKED: USER    (4) Unbound System's Energy  [=(2)] =   -1.91 kcal/mol
DOCKED: USER    
DOCKED: USER    
DOCKED: USER    NEWDPF move ligand.dum.pdbqt
DOCKED: USER    NEWDPF about 0.698000 0.076000 -0.072000
DOCKED: USER    NEWDPF tran0 37.489205 16.919014 123.840864
DOCKED: USER    NEWDPF quaternion0 0.647625 -0.595618 -0.420185 -0.221959
DOCKED: USER    NEWDPF axisangle0 0.664193 -0.610855 -0.430934 -154.351780
DOCKED: USER    NEWDPF quat0 0.664193 -0.610855 -0.430934 -154.351780
DOCKED: USER    NEWDPF dihe0 2.80 163.97 154.46 9.06 140.27 135.18 -9.13 7.70 
DOCKED: USER  keepresnum = 1 
DOCKED: USER  
DOCKED: REMARK  Name = 
DOCKED: REMARK  9 active torsions:
DOCKED: REMARK  status: ('A' for Active; 'I' for Inactive)
DOCKED: REMARK    1  A    between atoms: C_2  and  C_3
DOCKED: REMARK    2  A    between atoms: C_4  and  C_5
DOCKED: REMARK    3  A    between atoms: C_8  and  C_9
DOCKED: REMARK    4  A    between atoms: C_9  and  N_10
DOCKED: REMARK    5  A    between atoms: N_10  and  C_11
DOCKED: REMARK    6  A    between atoms: C_11  and  C_12
DOCKED: REMARK    7  A    between atoms: C_12  and  C_13
DOCKED: REMARK    8  A    between atoms: C_14  and  C_22
DOCKED: REMARK    9  A    between atoms: N_25  and  O_26
DOCKED: REMARK                            x       y       z     vdW  Elec       q    Type
DOCKED: REMARK                         _______ _______ _______ _____ _____    ______ ____
DOCKED: USER                              x       y       z     vdW  Elec       q    Type
DOCKED: USER                           _______ _______ _______ _____ _____    ______ ____
DOCKED: ROOT
DOCKED: ATOM      1  N   UNL     1      37.399  17.708 124.697 -0.16 -0.00    +0.000 N 
DOCKED: ATOM      2  H   UNL     1      38.325  17.467 125.054 -0.02 -0.00    +0.000 HD
DOCKED: ATOM      3  H   UNL     1      36.684  17.087 125.073 -0.02 -0.00    +0.000 HD
DOCKED: ENDROOT
DOCKED: BRANCH   1   4
DOCKED: ATOM      4  C   UNL     1      37.403  17.560 123.236 -0.21 -0.00    +0.000 C 
DOCKED: BRANCH   4   8
DOCKED: ATOM      5  C   UNL     1      37.090  13.383 122.155 -0.44 -0.00    +0.000 A 
DOCKED: ATOM      6  C   UNL     1      37.904  14.258 121.409 -0.35 -0.00    +0.000 A 
DOCKED: ATOM      7  C   UNL     1      38.007  15.606 121.764 -0.24 -0.00    +0.000 A 
DOCKED: ATOM      8  C   UNL     1      37.319  16.102 122.881 -0.27 -0.00    +0.000 A 
DOCKED: ATOM      9  C   UNL     1      36.509  15.234 123.629 -0.37 -0.00    +0.000 A 
DOCKED: ATOM     10  C   UNL     1      36.407  13.885 123.275 -0.48 -0.00    +0.000 A 
DOCKED: ATOM     11  CM  UNL     1      37.206  14.744 122.519 +0.00 -0.00    +0.000 AC
DOCKED: BRANCH   5  12
DOCKED: ATOM     12  C   UNL     1      37.064  10.959 122.737 -0.60 -0.00    +0.000 C 
DOCKED: ATOM     13  C   UNL     1      36.955  11.941 121.829 -0.57 -0.00    +0.000 C 
DOCKED: BRANCH  11  14
DOCKED: ATOM     14  O   UNL     1      36.704   9.204 121.211 -2.63 -0.00    +0.000 OA
DOCKED: ATOM     15  C   UNL     1      36.931   9.525 122.407 -0.65 -0.00    +0.000 C 
DOCKED: ATOM     16  N   UNL     1      37.025   8.496 123.403 -0.68 -0.00    +0.000 N 
DOCKED: ATOM     17  H   UNL     1      37.105   8.739 124.353 -0.52 -0.00    +0.000 HD
DOCKED: BRANCH  15  17
DOCKED: ATOM     18  O   UNL     1      37.002   7.192 123.037 -1.97 -0.00    +0.000 OA
DOCKED: ATOM     19  H   UNL     1      36.964   7.127 122.070 -0.10 -0.00    +0.000 HD
DOCKED: ENDBRANCH  15  17
DOCKED: ENDBRANCH  11  14
DOCKED: ENDBRANCH   5  12
DOCKED: ENDBRANCH   4   8
DOCKED: ENDBRANCH   1   4
DOCKED: BRANCH   1  19
DOCKED: ATOM     20  C   UNL     1      37.072  19.080 125.116 -0.17 -0.00    +0.000 C 
DOCKED: BRANCH  19  20
DOCKED: ATOM     21  C   UNL     1      38.311  19.991 125.160 -0.10 -0.00    +0.000 C 
DOCKED: BRANCH  20  21
DOCKED: ATOM     22  C   UNL     1      39.511  19.217 125.623 -0.16 -0.00    +0.000 A 
DOCKED: ATOM     23  C   UNL     1      40.537  18.687 124.838 -0.23 -0.00    +0.000 A 
DOCKED: ATOM     24  N   UNL     1      41.414  17.993 125.601 -0.32 -0.00    +0.000 N 
DOCKED: ATOM     25  C   UNL     1      40.940  18.059 126.857 -0.36 -0.00    +0.000 A 
DOCKED: ATOM     26  C   UNL     1      39.780  18.790 126.910 -0.23 -0.00    +0.000 A 
DOCKED: ATOM     27  C   UNL     1      39.084  18.978 128.106 -0.17 -0.00    +0.000 A 
DOCKED: ATOM     28  C   UNL     1      39.615  18.398 129.273 -0.24 -0.00    +0.000 A 
DOCKED: ATOM     29  C   UNL     1      40.812  17.650 129.219 -0.40 -0.00    +0.000 A 
DOCKED: ATOM     30  C   UNL     1      41.488  17.473 127.998 -0.43 -0.00    +0.000 A 
DOCKED: ATOM     31  C   UNL     1      40.690  18.870 123.362 -0.15 -0.00    +0.000 C 
DOCKED: ATOM     32  H   UNL     1      42.230  17.534 125.298 -0.53 -0.00    +0.000 HD
DOCKED: ATOM     33  CM  UNL     1      40.468  18.531 125.954 +0.00 -0.00    +0.000 AC
DOCKED: ATOM     34  CM  UNL     1      40.287  18.224 128.060 +0.00 -0.00    +0.000 AC
DOCKED: ENDBRANCH  20  21
DOCKED: ENDBRANCH  19  20
DOCKED: ENDBRANCH   1  19
DOCKED: TORSDOF 8DOCKED: TER
DOCKED: ENDMDL
________________________________________________________________________________


	BEGINNING GENETIC ALGORITHM DOCKING 85 of 100
Run: 85 Seed: 781547469 498500549 [ Run 85 of 100 GA/GALS ]
Beginning LAMARCKIAN GENETIC ALGORITHM (LGA), with a maximum of 2500000 energy evaluations.

Final-Value: -15.203


	FINAL GENETIC ALGORITHM DOCKED STATE
	_______________________________________________


Detailed state:  trans 35.253 16.169 124.502 quatxyzw 0.722425 -0.634500 -0.025592 0.273599 center 0.698 0.076 -0.072 ntor 8 4.5576 171.2054 -179.8048 138.6548 -133.9542 44.5636 -70.5326 8.5725
State:	 35.253  16.169 124.502   0.751 -0.660 -0.027 148.243      4.56  171.21 -179.80  138.65 -133.95   44.56  -70.53    8.57

DOCKED: MODEL       85
DOCKED: USER    Run = 85
DOCKED: USER    DPF = ligand_dock.biased.dpf
DOCKED: USER  
DOCKED: USER    Estimated Free Energy of Binding    =  -10.97 kcal/mol  [=(1)+(2)+(3)-(4)]
DOCKED: USER    Estimated Inhibition Constant, Ki   =    9.11 nM (nanomolar)  [Temperature = 298.15 K]
DOCKED: USER    
DOCKED: USER    (1) Final Intermolecular Energy     =  -13.36 kcal/mol
DOCKED: USER        vdW + Hbond + desolv Energy     =  -13.36 kcal/mol
DOCKED: USER        Electrostatic Energy            =   +0.00 kcal/mol
DOCKED: USER    (2) Final Total Internal Energy     =   -1.85 kcal/mol
DOCKED: USER    (3) Torsional Free Energy           =   +2.39 kcal/mol
DOCKED: USER    (4) Unbound System's Energy  [=(2)] =   -1.85 kcal/mol
DOCKED: USER    
DOCKED: USER    
DOCKED: USER    NEWDPF move ligand.dum.pdbqt
DOCKED: USER    NEWDPF about 0.698000 0.076000 -0.072000
DOCKED: USER    NEWDPF tran0 35.252799 16.169205 124.502207
DOCKED: USER    NEWDPF quaternion0 0.722425 -0.634500 -0.025592 0.273599
DOCKED: USER    NEWDPF axisangle0 0.751084 -0.659671 -0.026607 148.242867
DOCKED: USER    NEWDPF quat0 0.751084 -0.659671 -0.026607 148.242867
DOCKED: USER    NEWDPF dihe0 4.56 171.21 -179.80 138.65 -133.95 44.56 -70.53 8.57 
DOCKED: USER  keepresnum = 1 
DOCKED: USER  
DOCKED: REMARK  Name = 
DOCKED: REMARK  9 active torsions:
DOCKED: REMARK  status: ('A' for Active; 'I' for Inactive)
DOCKED: REMARK    1  A    between atoms: C_2  and  C_3
DOCKED: REMARK    2  A    between atoms: C_4  and  C_5
DOCKED: REMARK    3  A    between atoms: C_8  and  C_9
DOCKED: REMARK    4  A    between atoms: C_9  and  N_10
DOCKED: REMARK    5  A    between atoms: N_10  and  C_11
DOCKED: REMARK    6  A    between atoms: C_11  and  C_12
DOCKED: REMARK    7  A    between atoms: C_12  and  C_13
DOCKED: REMARK    8  A    between atoms: C_14  and  C_22
DOCKED: REMARK    9  A    between atoms: N_25  and  O_26
DOCKED: REMARK                            x       y       z     vdW  Elec       q    Type
DOCKED: REMARK                         _______ _______ _______ _____ _____    ______ ____
DOCKED: USER                              x       y       z     vdW  Elec       q    Type
DOCKED: USER                           _______ _______ _______ _____ _____    ______ ____
DOCKED: ROOT
DOCKED: ATOM      1  N   UNL     1      34.454  16.939 124.868 -0.43 -0.00    +0.000 N 
DOCKED: ATOM      2  H   UNL     1      34.359  16.457 125.762 -0.03 -0.00    +0.000 HD
DOCKED: ATOM      3  H   UNL     1      33.856  16.521 124.156 -0.02 -0.00    +0.000 HD
DOCKED: ENDROOT
DOCKED: BRANCH   1   4
DOCKED: ATOM      4  C   UNL     1      35.846  16.820 124.413 -0.32 -0.00    +0.000 C 
DOCKED: BRANCH   4   8
DOCKED: ATOM      5  C   UNL     1      36.404  12.878 122.723 -0.50 -0.00    +0.000 A 
DOCKED: ATOM      6  C   UNL     1      36.750  14.029 121.988 -0.28 -0.00    +0.000 A 
DOCKED: ATOM      7  C   UNL     1      36.574  15.302 122.540 -0.30 -0.00    +0.000 A 
DOCKED: ATOM      8  C   UNL     1      36.070  15.449 123.840 -0.40 -0.00    +0.000 A 
DOCKED: ATOM      9  C   UNL     1      35.726  14.306 124.577 -0.08 -0.00    +0.000 A 
DOCKED: ATOM     10  C   UNL     1      35.904  13.033 124.027 -0.38 -0.00    +0.000 A 
DOCKED: ATOM     11  CM  UNL     1      36.237  14.166 123.282 +0.00 -0.00    +0.000 AC
DOCKED: BRANCH   5  12
DOCKED: ATOM     12  C   UNL     1      36.685  10.413 122.965 -0.68 -0.00    +0.000 C 
DOCKED: ATOM     13  C   UNL     1      36.582  11.504 122.191 -0.63 -0.00    +0.000 C 
DOCKED: BRANCH  11  14
DOCKED: ATOM     14  O   UNL     1      37.065   8.908 121.196 -2.70 -0.00    +0.000 OA
DOCKED: ATOM     15  C   UNL     1      36.865   9.047 122.431 -0.71 -0.00    +0.000 C 
DOCKED: ATOM     16  N   UNL     1      36.793   7.881 123.264 -0.74 -0.00    +0.000 N 
DOCKED: ATOM     17  H   UNL     1      36.542   7.969 124.211 -0.27 -0.00    +0.000 HD
DOCKED: BRANCH  15  17
DOCKED: ATOM     18  O   UNL     1      37.069   6.659 122.748 -1.37 -0.00    +0.000 OA
DOCKED: ATOM     19  H   UNL     1      37.367   6.755 121.830 -0.37 -0.00    +0.000 HD
DOCKED: ENDBRANCH  15  17
DOCKED: ENDBRANCH  11  14
DOCKED: ENDBRANCH   5  12
DOCKED: ENDBRANCH   4   8
DOCKED: ENDBRANCH   1   4
DOCKED: BRANCH   1  19
DOCKED: ATOM     20  C   UNL     1      34.042  18.341 125.039 -0.36 -0.00    +0.000 C 
DOCKED: BRANCH  19  20
DOCKED: ATOM     21  C   UNL     1      33.023  18.519 126.177 -0.28 -0.00    +0.000 C 
DOCKED: BRANCH  20  21
DOCKED: ATOM     22  C   UNL     1      33.511  17.840 127.424 -0.27 -0.00    +0.000 A 
DOCKED: ATOM     23  C   UNL     1      32.812  16.940 128.233 -0.36 -0.00    +0.000 A 
DOCKED: ATOM     24  N   UNL     1      33.553  16.590 129.310 -0.30 -0.00    +0.000 N 
DOCKED: ATOM     25  C   UNL     1      34.704  17.276 129.203 -0.11 -0.00    +0.000 A 
DOCKED: ATOM     26  C   UNL     1      34.713  18.053 128.072 -0.13 -0.00    +0.000 A 
DOCKED: ATOM     27  C   UNL     1      35.794  18.878 127.756 -0.12 -0.00    +0.000 A 
DOCKED: ATOM     28  C   UNL     1      36.892  18.887 128.635 -0.12 -0.00    +0.000 A 
DOCKED: ATOM     29  C   UNL     1      36.885  18.083 129.797 -0.14 -0.00    +0.000 A 
DOCKED: ATOM     30  C   UNL     1      35.778  17.265 130.091 -0.12 -0.00    +0.000 A 
DOCKED: ATOM     31  C   UNL     1      31.446  16.398 127.956 -0.37 -0.00    +0.000 C 
DOCKED: ATOM     32  H   UNL     1      33.300  15.961 130.024 -0.47 -0.00    +0.000 HD
DOCKED: ATOM     33  CM  UNL     1      33.848  17.316 128.475 +0.00 -0.00    +0.000 AC
DOCKED: ATOM     34  CM  UNL     1      35.794  18.073 128.926 +0.00 -0.00    +0.000 AC
DOCKED: ENDBRANCH  20  21
DOCKED: ENDBRANCH  19  20
DOCKED: ENDBRANCH   1  19
DOCKED: TORSDOF 8DOCKED: TER
DOCKED: ENDMDL
________________________________________________________________________________


	BEGINNING GENETIC ALGORITHM DOCKING 86 of 100
Run: 86 Seed: 1097792250 1439322126 [ Run 86 of 100 GA/GALS ]
Beginning LAMARCKIAN GENETIC ALGORITHM (LGA), with a maximum of 2500000 energy evaluations.

Final-Value: -14.339


	FINAL GENETIC ALGORITHM DOCKED STATE
	_______________________________________________


Detailed state:  trans 37.831 14.485 123.126 quatxyzw 0.250990 0.853722 0.298083 0.345412 center 0.698 0.076 -0.072 ntor 8 1.5774 -145.4871 -81.4162 172.8530 -89.1568 -159.8612 176.2683 -86.0747
State:	 37.831  14.485 123.126   0.267  0.910  0.318 139.586      1.58 -145.49  -81.42  172.85  -89.16 -159.86  176.27  -86.07

DOCKED: MODEL       86
DOCKED: USER    Run = 86
DOCKED: USER    DPF = ligand_dock.biased.dpf
DOCKED: USER  
DOCKED: USER    Estimated Free Energy of Binding    =  -10.39 kcal/mol  [=(1)+(2)+(3)-(4)]
DOCKED: USER    Estimated Inhibition Constant, Ki   =   24.02 nM (nanomolar)  [Temperature = 298.15 K]
DOCKED: USER    
DOCKED: USER    (1) Final Intermolecular Energy     =  -12.78 kcal/mol
DOCKED: USER        vdW + Hbond + desolv Energy     =  -12.78 kcal/mol
DOCKED: USER        Electrostatic Energy            =   +0.00 kcal/mol
DOCKED: USER    (2) Final Total Internal Energy     =   -1.56 kcal/mol
DOCKED: USER    (3) Torsional Free Energy           =   +2.39 kcal/mol
DOCKED: USER    (4) Unbound System's Energy  [=(2)] =   -1.56 kcal/mol
DOCKED: USER    
DOCKED: USER    
DOCKED: USER    NEWDPF move ligand.dum.pdbqt
DOCKED: USER    NEWDPF about 0.698000 0.076000 -0.072000
DOCKED: USER    NEWDPF tran0 37.831220 14.485454 123.126288
DOCKED: USER    NEWDPF quaternion0 0.250990 0.853722 0.298083 0.345412
DOCKED: USER    NEWDPF axisangle0 0.267451 0.909714 0.317633 139.586151
DOCKED: USER    NEWDPF quat0 0.267451 0.909714 0.317633 139.586151
DOCKED: USER    NEWDPF dihe0 1.58 -145.49 -81.42 172.85 -89.16 -159.86 176.27 -86.07 
DOCKED: USER  keepresnum = 1 
DOCKED: USER  
DOCKED: REMARK  Name = 
DOCKED: REMARK  9 active torsions:
DOCKED: REMARK  status: ('A' for Active; 'I' for Inactive)
DOCKED: REMARK    1  A    between atoms: C_2  and  C_3
DOCKED: REMARK    2  A    between atoms: C_4  and  C_5
DOCKED: REMARK    3  A    between atoms: C_8  and  C_9
DOCKED: REMARK    4  A    between atoms: C_9  and  N_10
DOCKED: REMARK    5  A    between atoms: N_10  and  C_11
DOCKED: REMARK    6  A    between atoms: C_11  and  C_12
DOCKED: REMARK    7  A    between atoms: C_12  and  C_13
DOCKED: REMARK    8  A    between atoms: C_14  and  C_22
DOCKED: REMARK    9  A    between atoms: N_25  and  O_26
DOCKED: REMARK                            x       y       z     vdW  Elec       q    Type
DOCKED: REMARK                         _______ _______ _______ _____ _____    ______ ____
DOCKED: USER                              x       y       z     vdW  Elec       q    Type
DOCKED: USER                           _______ _______ _______ _____ _____    ______ ____
DOCKED: ROOT
DOCKED: ATOM      1  N   UNL     1      38.927  14.510 122.721 -0.42 -0.00    +0.000 N 
DOCKED: ATOM      2  H   UNL     1      39.182  13.698 123.284 -0.05 -0.00    +0.000 HD
DOCKED: ATOM      3  H   UNL     1      39.010  15.373 123.257 -0.02 -0.00    +0.000 HD
DOCKED: ENDROOT
DOCKED: BRANCH   1   4
DOCKED: ATOM      4  C   UNL     1      37.525  14.373 122.303 -0.44 -0.00    +0.000 C 
DOCKED: BRANCH   4   8
DOCKED: ATOM      5  C   UNL     1      36.192  10.282 122.756 -0.61 -0.00    +0.000 A 
DOCKED: ATOM      6  C   UNL     1      37.008  10.655 121.669 -0.43 -0.00    +0.000 A 
DOCKED: ATOM      7  C   UNL     1      37.442  11.977 121.529 -0.41 -0.00    +0.000 A 
DOCKED: ATOM      8  C   UNL     1      37.088  12.945 122.479 -0.50 -0.00    +0.000 A 
DOCKED: ATOM      9  C   UNL     1      36.278  12.579 123.565 -0.59 -0.00    +0.000 A 
DOCKED: ATOM     10  C   UNL     1      35.845  11.257 123.706 -0.49 -0.00    +0.000 A 
DOCKED: ATOM     11  CM  UNL     1      36.642  11.616 122.617 +0.00 -0.00    +0.000 AC
DOCKED: BRANCH   5  12
DOCKED: ATOM     12  C   UNL     1      34.461   8.490 122.697 -0.70 -0.00    +0.000 C 
DOCKED: ATOM     13  C   UNL     1      35.714   8.892 122.959 -0.69 -0.00    +0.000 C 
DOCKED: BRANCH  11  14
DOCKED: ATOM     14  O   UNL     1      34.205   6.557 124.016 -0.84 -0.00    +0.000 OA
DOCKED: ATOM     15  C   UNL     1      33.988   7.105 122.903 -0.76 -0.00    +0.000 C 
DOCKED: ATOM     16  N   UNL     1      33.319   6.361 121.876 -0.66 -0.00    +0.000 N 
DOCKED: ATOM     17  H   UNL     1      33.230   6.742 120.973 -0.03 -0.00    +0.000 HD
DOCKED: BRANCH  15  17
DOCKED: ATOM     18  O   UNL     1      32.811   5.134 122.145 -0.84 -0.00    +0.000 OA
DOCKED: ATOM     19  H   UNL     1      32.961   4.920 123.079 -0.36 -0.00    +0.000 HD
DOCKED: ENDBRANCH  15  17
DOCKED: ENDBRANCH  11  14
DOCKED: ENDBRANCH   5  12
DOCKED: ENDBRANCH   4   8
DOCKED: ENDBRANCH   1   4
DOCKED: BRANCH   1  19
DOCKED: ATOM     20  C   UNL     1      39.843  14.599 121.574 -0.33 -0.00    +0.000 C 
DOCKED: BRANCH  19  20
DOCKED: ATOM     21  C   UNL     1      40.249  16.048 121.258 -0.24 -0.00    +0.000 C 
DOCKED: BRANCH  20  21
DOCKED: ATOM     22  C   UNL     1      41.550  16.382 121.930 -0.28 -0.00    +0.000 A 
DOCKED: ATOM     23  C   UNL     1      41.735  17.016 123.160 -0.33 -0.00    +0.000 A 
DOCKED: ATOM     24  N   UNL     1      43.051  17.209 123.407 -0.35 -0.00    +0.000 N 
DOCKED: ATOM     25  C   UNL     1      43.700  16.725 122.334 -0.33 -0.00    +0.000 A 
DOCKED: ATOM     26  C   UNL     1      42.821  16.219 121.410 -0.27 -0.00    +0.000 A 
DOCKED: ATOM     27  C   UNL     1      43.256  15.683 120.198 -0.17 -0.00    +0.000 A 
DOCKED: ATOM     28  C   UNL     1      44.641  15.665 119.947 -0.27 +0.00    +0.000 A 
DOCKED: ATOM     29  C   UNL     1      45.547  16.181 120.900 -0.23 +0.00    +0.000 A 
DOCKED: ATOM     30  C   UNL     1      45.077  16.720 122.112 -0.25 +0.00    +0.000 A 
DOCKED: ATOM     31  C   UNL     1      40.649  17.410 124.110 -0.28 -0.00    +0.000 C 
DOCKED: ATOM     32  H   UNL     1      43.451  17.619 124.208 -0.61 -0.00    +0.000 HD
DOCKED: ATOM     33  CM  UNL     1      42.586  16.726 122.479 +0.00 -0.00    +0.000 AC
DOCKED: ATOM     34  CM  UNL     1      44.174  16.199 121.151 +0.00 -0.00    +0.000 AC
DOCKED: ENDBRANCH  20  21
DOCKED: ENDBRANCH  19  20
DOCKED: ENDBRANCH   1  19
DOCKED: TORSDOF 8DOCKED: TER
DOCKED: ENDMDL
________________________________________________________________________________


	BEGINNING GENETIC ALGORITHM DOCKING 87 of 100
Run: 87 Seed: 1770282916 768677740 [ Run 87 of 100 GA/GALS ]
Beginning LAMARCKIAN GENETIC ALGORITHM (LGA), with a maximum of 2500000 energy evaluations.

Final-Value: -16.184


	FINAL GENETIC ALGORITHM DOCKED STATE
	_______________________________________________


Detailed state:  trans 35.633 17.532 123.007 quatxyzw 0.111241 -0.567067 0.778143 0.246075 center 0.698 0.076 -0.072 ntor 8 0.7040 7.1588 112.2225 20.1096 -25.9103 151.9464 69.2571 78.3174
State:	 35.633  17.532 123.007   0.115 -0.585  0.803 151.509      0.70    7.16  112.22   20.11  -25.91  151.95   69.26   78.32

DOCKED: MODEL       87
DOCKED: USER    Run = 87
DOCKED: USER    DPF = ligand_dock.biased.dpf
DOCKED: USER  
DOCKED: USER    Estimated Free Energy of Binding    =  -11.93 kcal/mol  [=(1)+(2)+(3)-(4)]
DOCKED: USER    Estimated Inhibition Constant, Ki   =    1.81 nM (nanomolar)  [Temperature = 298.15 K]
DOCKED: USER    
DOCKED: USER    (1) Final Intermolecular Energy     =  -14.31 kcal/mol
DOCKED: USER        vdW + Hbond + desolv Energy     =  -14.31 kcal/mol
DOCKED: USER        Electrostatic Energy            =   +0.00 kcal/mol
DOCKED: USER    (2) Final Total Internal Energy     =   -1.87 kcal/mol
DOCKED: USER    (3) Torsional Free Energy           =   +2.39 kcal/mol
DOCKED: USER    (4) Unbound System's Energy  [=(2)] =   -1.87 kcal/mol
DOCKED: USER    
DOCKED: USER    
DOCKED: USER    NEWDPF move ligand.dum.pdbqt
DOCKED: USER    NEWDPF about 0.698000 0.076000 -0.072000
DOCKED: USER    NEWDPF tran0 35.633319 17.531605 123.007277
DOCKED: USER    NEWDPF quaternion0 0.111241 -0.567067 0.778143 0.246075
DOCKED: USER    NEWDPF axisangle0 0.114770 -0.585057 0.802830 151.509210
DOCKED: USER    NEWDPF quat0 0.114770 -0.585057 0.802830 151.509210
DOCKED: USER    NEWDPF dihe0 0.70 7.16 112.22 20.11 -25.91 151.95 69.26 78.32 
DOCKED: USER  keepresnum = 1 
DOCKED: USER  
DOCKED: REMARK  Name = 
DOCKED: REMARK  9 active torsions:
DOCKED: REMARK  status: ('A' for Active; 'I' for Inactive)
DOCKED: REMARK    1  A    between atoms: C_2  and  C_3
DOCKED: REMARK    2  A    between atoms: C_4  and  C_5
DOCKED: REMARK    3  A    between atoms: C_8  and  C_9
DOCKED: REMARK    4  A    between atoms: C_9  and  N_10
DOCKED: REMARK    5  A    between atoms: N_10  and  C_11
DOCKED: REMARK    6  A    between atoms: C_11  and  C_12
DOCKED: REMARK    7  A    between atoms: C_12  and  C_13
DOCKED: REMARK    8  A    between atoms: C_14  and  C_22
DOCKED: REMARK    9  A    between atoms: N_25  and  O_26
DOCKED: REMARK                            x       y       z     vdW  Elec       q    Type
DOCKED: REMARK                         _______ _______ _______ _____ _____    ______ ____
DOCKED: USER                              x       y       z     vdW  Elec       q    Type
DOCKED: USER                           _______ _______ _______ _____ _____    ______ ____
DOCKED: ROOT
DOCKED: ATOM      1  N   UNL     1      36.523  18.089 122.496 -0.16 -0.00    +0.000 N 
DOCKED: ATOM      2  H   UNL     1      35.956  18.926 122.359 -0.00 -0.00    +0.000 HD
DOCKED: ATOM      3  H   UNL     1      36.389  17.422 121.738 +0.00 -0.00    +0.000 HD
DOCKED: ENDROOT
DOCKED: BRANCH   1   4
DOCKED: ATOM      4  C   UNL     1      36.111  17.439 123.747 -0.29 -0.00    +0.000 C 
DOCKED: BRANCH   4   8
DOCKED: ATOM      5  C   UNL     1      36.597  13.151 123.456 -0.55 -0.00    +0.000 A 
DOCKED: ATOM      6  C   UNL     1      35.355  13.709 123.822 -0.28 -0.00    +0.000 A 
DOCKED: ATOM      7  C   UNL     1      35.200  15.096 123.909 -0.50 -0.00    +0.000 A 
DOCKED: ATOM      8  C   UNL     1      36.272  15.951 123.614 -0.35 -0.00    +0.000 A 
DOCKED: ATOM      9  C   UNL     1      37.509  15.400 123.247 -0.32 -0.00    +0.000 A 
DOCKED: ATOM     10  C   UNL     1      37.664  14.014 123.158 -0.43 -0.00    +0.000 A 
DOCKED: ATOM     11  CM  UNL     1      36.433  14.553 123.535 +0.00 -0.00    +0.000 AC
DOCKED: BRANCH   5  12
DOCKED: ATOM     12  C   UNL     1      36.615  10.996 122.204 -0.64 -0.00    +0.000 C 
DOCKED: ATOM     13  C   UNL     1      36.812  11.687 123.337 -0.69 -0.00    +0.000 C 
DOCKED: BRANCH  11  14
DOCKED: ATOM     14  O   UNL     1      37.055   9.053 120.950 -2.72 -0.00    +0.000 OA
DOCKED: ATOM     15  C   UNL     1      36.829   9.539 122.089 -0.67 -0.00    +0.000 C 
DOCKED: ATOM     16  N   UNL     1      36.762   8.661 123.222 -0.67 -0.00    +0.000 N 
DOCKED: ATOM     17  H   UNL     1      36.491   9.013 124.101 -0.38 -0.00    +0.000 HD
DOCKED: BRANCH  15  17
DOCKED: ATOM     18  O   UNL     1      37.070   7.349 123.086 -2.16 -0.00    +0.000 OA
DOCKED: ATOM     19  H   UNL     1      37.324   7.170 122.167 -0.16 -0.00    +0.000 HD
DOCKED: ENDBRANCH  15  17
DOCKED: ENDBRANCH  11  14
DOCKED: ENDBRANCH   5  12
DOCKED: ENDBRANCH   4   8
DOCKED: ENDBRANCH   1   4
DOCKED: BRANCH   1  19
DOCKED: ATOM     20  C   UNL     1      37.943  18.476 122.513 -0.11 -0.00    +0.000 C 
DOCKED: BRANCH  19  20
DOCKED: ATOM     21  C   UNL     1      38.589  18.279 123.894 -0.19 -0.00    +0.000 C 
DOCKED: BRANCH  20  21
DOCKED: ATOM     22  C   UNL     1      40.080  18.160 123.761 -0.20 -0.00    +0.000 A 
DOCKED: ATOM     23  C   UNL     1      41.048  19.067 124.197 -0.17 -0.00    +0.000 A 
DOCKED: ATOM     24  N   UNL     1      42.286  18.654 123.839 -0.14 -0.00    +0.000 N 
DOCKED: ATOM     25  C   UNL     1      42.109  17.507 123.162 -0.29 -0.00    +0.000 A 
DOCKED: ATOM     26  C   UNL     1      40.779  17.177 123.087 -0.26 -0.00    +0.000 A 
DOCKED: ATOM     27  C   UNL     1      40.342  16.038 122.409 -0.31 -0.00    +0.000 A 
DOCKED: ATOM     28  C   UNL     1      41.313  15.221 121.803 -0.34 -0.00    +0.000 A 
DOCKED: ATOM     29  C   UNL     1      42.683  15.558 121.884 -0.32 -0.00    +0.000 A 
DOCKED: ATOM     30  C   UNL     1      43.093  16.716 122.571 -0.36 -0.00    +0.000 A 
DOCKED: ATOM     31  C   UNL     1      40.786  20.315 124.979 -0.11 -0.00    +0.000 C 
DOCKED: ATOM     32  H   UNL     1      43.140  19.102 124.036 -0.52 -0.00    +0.000 HD
DOCKED: ATOM     33  CM  UNL     1      41.293  18.131 123.617 +0.00 -0.00    +0.000 AC
DOCKED: ATOM     34  CM  UNL     1      41.720  16.370 122.486 +0.00 -0.00    +0.000 AC
DOCKED: ENDBRANCH  20  21
DOCKED: ENDBRANCH  19  20
DOCKED: ENDBRANCH   1  19
DOCKED: TORSDOF 8DOCKED: TER
DOCKED: ENDMDL
________________________________________________________________________________


	BEGINNING GENETIC ALGORITHM DOCKING 88 of 100
Run: 88 Seed: 781600598 1235850918 [ Run 88 of 100 GA/GALS ]
Beginning LAMARCKIAN GENETIC ALGORITHM (LGA), with a maximum of 2500000 energy evaluations.

Final-Value: -16.456


	FINAL GENETIC ALGORITHM DOCKED STATE
	_______________________________________________


Detailed state:  trans 36.034 17.605 122.736 quatxyzw -0.081011 0.561758 -0.803043 -0.181625 center 0.698 0.076 -0.072 ntor 8 6.5072 -13.4008 -69.9288 180.0000 110.6327 -11.7393 -145.2312 85.5750
State:	 36.034  17.605 122.736  -0.082  0.571 -0.817 -159.071      6.51  -13.40  -69.93  180.00  110.63  -11.74 -145.23   85.58

DOCKED: MODEL       88
DOCKED: USER    Run = 88
DOCKED: USER    DPF = ligand_dock.biased.dpf
DOCKED: USER  
DOCKED: USER    Estimated Free Energy of Binding    =  -10.87 kcal/mol  [=(1)+(2)+(3)-(4)]
DOCKED: USER    Estimated Inhibition Constant, Ki   =   10.70 nM (nanomolar)  [Temperature = 298.15 K]
DOCKED: USER    
DOCKED: USER    (1) Final Intermolecular Energy     =  -13.26 kcal/mol
DOCKED: USER        vdW + Hbond + desolv Energy     =  -13.26 kcal/mol
DOCKED: USER        Electrostatic Energy            =   +0.00 kcal/mol
DOCKED: USER    (2) Final Total Internal Energy     =   -3.20 kcal/mol
DOCKED: USER    (3) Torsional Free Energy           =   +2.39 kcal/mol
DOCKED: USER    (4) Unbound System's Energy  [=(2)] =   -3.20 kcal/mol
DOCKED: USER    
DOCKED: USER    
DOCKED: USER    NEWDPF move ligand.dum.pdbqt
DOCKED: USER    NEWDPF about 0.698000 0.076000 -0.072000
DOCKED: USER    NEWDPF tran0 36.033981 17.604843 122.736049
DOCKED: USER    NEWDPF quaternion0 -0.081011 0.561758 -0.803043 -0.181625
DOCKED: USER    NEWDPF axisangle0 -0.082381 0.571259 -0.816625 -159.071134
DOCKED: USER    NEWDPF quat0 -0.082381 0.571259 -0.816625 -159.071134
DOCKED: USER    NEWDPF dihe0 6.51 -13.40 -69.93 180.00 110.63 -11.74 -145.23 85.58 
DOCKED: USER  keepresnum = 1 
DOCKED: USER  
DOCKED: REMARK  Name = 
DOCKED: REMARK  9 active torsions:
DOCKED: REMARK  status: ('A' for Active; 'I' for Inactive)
DOCKED: REMARK    1  A    between atoms: C_2  and  C_3
DOCKED: REMARK    2  A    between atoms: C_4  and  C_5
DOCKED: REMARK    3  A    between atoms: C_8  and  C_9
DOCKED: REMARK    4  A    between atoms: C_9  and  N_10
DOCKED: REMARK    5  A    between atoms: N_10  and  C_11
DOCKED: REMARK    6  A    between atoms: C_11  and  C_12
DOCKED: REMARK    7  A    between atoms: C_12  and  C_13
DOCKED: REMARK    8  A    between atoms: C_14  and  C_22
DOCKED: REMARK    9  A    between atoms: N_25  and  O_26
DOCKED: REMARK                            x       y       z     vdW  Elec       q    Type
DOCKED: REMARK                         _______ _______ _______ _____ _____    ______ ____
DOCKED: USER                              x       y       z     vdW  Elec       q    Type
DOCKED: USER                           _______ _______ _______ _____ _____    ______ ____
DOCKED: ROOT
DOCKED: ATOM      1  N   UNL     1      36.985  18.009 122.191 -0.13 -0.00    +0.000 N 
DOCKED: ATOM      2  H   UNL     1      36.542  18.914 122.031 +0.00 -0.00    +0.000 HD
DOCKED: ATOM      3  H   UNL     1      36.740  17.342 121.460 +0.00 -0.00    +0.000 HD
DOCKED: ENDROOT
DOCKED: BRANCH   1   4
DOCKED: ATOM      4  C   UNL     1      36.508  17.470 123.471 -0.26 -0.00    +0.000 C 
DOCKED: BRANCH   4   8
DOCKED: ATOM      5  C   UNL     1      36.830  13.158 123.327 -0.54 -0.00    +0.000 A 
DOCKED: ATOM      6  C   UNL     1      37.985  13.962 123.407 -0.30 -0.00    +0.000 A 
DOCKED: ATOM      7  C   UNL     1      37.877  15.355 123.459 -0.22 -0.00    +0.000 A 
DOCKED: ATOM      8  C   UNL     1      36.617  15.971 123.454 -0.33 -0.00    +0.000 A 
DOCKED: ATOM      9  C   UNL     1      35.464  15.175 123.378 -0.40 -0.00    +0.000 A 
DOCKED: ATOM     10  C   UNL     1      35.571  13.782 123.327 -0.30 -0.00    +0.000 A 
DOCKED: ATOM     11  CM  UNL     1      36.724  14.567 123.392 +0.00 -0.00    +0.000 AC
DOCKED: BRANCH   5  12
DOCKED: ATOM     12  C   UNL     1      36.916  10.967 122.143 -0.59 -0.00    +0.000 C 
DOCKED: ATOM     13  C   UNL     1      36.887  11.676 123.282 -0.68 -0.00    +0.000 C 
DOCKED: BRANCH  11  14
DOCKED: ATOM     14  O   UNL     1      37.046   8.924 120.981 -2.71 -0.00    +0.000 OA
DOCKED: ATOM     15  C   UNL     1      36.970   9.491 122.103 -0.64 -0.00    +0.000 C 
DOCKED: ATOM     16  N   UNL     1      36.913   8.687 123.290 -0.66 -0.00    +0.000 N 
DOCKED: ATOM     17  H   UNL     1      36.757   9.112 124.164 -0.48 -0.00    +0.000 HD
DOCKED: BRANCH  15  17
DOCKED: ATOM     18  O   UNL     1      37.073   7.344 123.210 -2.14 -0.00    +0.000 OA
DOCKED: ATOM     19  H   UNL     1      37.318   7.100 122.304 -0.17 -0.00    +0.000 HD
DOCKED: ENDBRANCH  15  17
DOCKED: ENDBRANCH  11  14
DOCKED: ENDBRANCH   5  12
DOCKED: ENDBRANCH   4   8
DOCKED: ENDBRANCH   1   4
DOCKED: BRANCH   1  19
DOCKED: ATOM     20  C   UNL     1      38.445  18.186 122.171 -0.11 -0.00    +0.000 C 
DOCKED: BRANCH  19  20
DOCKED: ATOM     21  C   UNL     1      39.073  17.734 120.842 -0.07 -0.00    +0.000 C 
DOCKED: BRANCH  20  21
DOCKED: ATOM     22  C   UNL     1      38.905  16.252 120.664 -0.14 -0.00    +0.000 A 
DOCKED: ATOM     23  C   UNL     1      39.759  15.239 121.106 -0.25 -0.00    +0.000 A 
DOCKED: ATOM     24  N   UNL     1      39.314  14.027 120.700 -0.24 -0.00    +0.000 N 
DOCKED: ATOM     25  C   UNL     1      38.200  14.265 119.987 -0.27 -0.00    +0.000 A 
DOCKED: ATOM     26  C   UNL     1      37.922  15.608 119.936 -0.18 -0.00    +0.000 A 
DOCKED: ATOM     27  C   UNL     1      36.827  16.105 119.229 -0.15 -0.00    +0.000 A 
DOCKED: ATOM     28  C   UNL     1      35.998  15.181 118.567 -0.11 -0.00    +0.000 A 
DOCKED: ATOM     29  C   UNL     1      36.281  13.798 118.623 -0.30 -0.00    +0.000 A 
DOCKED: ATOM     30  C   UNL     1      37.396  13.327 119.340 -0.39 -0.00    +0.000 A 
DOCKED: ATOM     31  C   UNL     1      40.985  15.434 121.939 -0.41 -0.00    +0.000 C 
DOCKED: ATOM     32  H   UNL     1      39.723  13.152 120.889 -0.09 -0.00    +0.000 HD
DOCKED: ATOM     33  CM  UNL     1      38.836  15.045 120.486 +0.00 -0.00    +0.000 AC
DOCKED: ATOM     34  CM  UNL     1      37.104  14.713 119.280 +0.00 -0.00    +0.000 AC
DOCKED: ENDBRANCH  20  21
DOCKED: ENDBRANCH  19  20
DOCKED: ENDBRANCH   1  19
DOCKED: TORSDOF 8DOCKED: TER
DOCKED: ENDMDL
________________________________________________________________________________


	BEGINNING GENETIC ALGORITHM DOCKING 89 of 100
Run: 89 Seed: 841625029 1801035299 [ Run 89 of 100 GA/GALS ]
Beginning LAMARCKIAN GENETIC ALGORITHM (LGA), with a maximum of 2500000 energy evaluations.

Final-Value: -15.787


	FINAL GENETIC ALGORITHM DOCKED STATE
	_______________________________________________


Detailed state:  trans 37.649 17.138 123.552 quatxyzw -0.798706 0.481541 -0.125050 0.338451 center 0.698 0.076 -0.072 ntor 8 8.4536 -176.0786 166.6376 167.9978 -164.5783 45.1170 -145.6683 73.4473
State:	 37.649  17.138 123.552  -0.849  0.512 -0.133 140.435      8.45 -176.08  166.64  168.00 -164.58   45.12 -145.67   73.45

DOCKED: MODEL       89
DOCKED: USER    Run = 89
DOCKED: USER    DPF = ligand_dock.biased.dpf
DOCKED: USER  
DOCKED: USER    Estimated Free Energy of Binding    =  -11.24 kcal/mol  [=(1)+(2)+(3)-(4)]
DOCKED: USER    Estimated Inhibition Constant, Ki   =    5.80 nM (nanomolar)  [Temperature = 298.15 K]
DOCKED: USER    
DOCKED: USER    (1) Final Intermolecular Energy     =  -13.62 kcal/mol
DOCKED: USER        vdW + Hbond + desolv Energy     =  -13.62 kcal/mol
DOCKED: USER        Electrostatic Energy            =   +0.00 kcal/mol
DOCKED: USER    (2) Final Total Internal Energy     =   -2.16 kcal/mol
DOCKED: USER    (3) Torsional Free Energy           =   +2.39 kcal/mol
DOCKED: USER    (4) Unbound System's Energy  [=(2)] =   -2.16 kcal/mol
DOCKED: USER    
DOCKED: USER    
DOCKED: USER    NEWDPF move ligand.dum.pdbqt
DOCKED: USER    NEWDPF about 0.698000 0.076000 -0.072000
DOCKED: USER    NEWDPF tran0 37.648660 17.138127 123.552447
DOCKED: USER    NEWDPF quaternion0 -0.798706 0.481541 -0.125050 0.338451
DOCKED: USER    NEWDPF axisangle0 -0.848799 0.511742 -0.132893 140.434900
DOCKED: USER    NEWDPF quat0 -0.848799 0.511742 -0.132893 140.434900
DOCKED: USER    NEWDPF dihe0 8.45 -176.08 166.64 168.00 -164.58 45.12 -145.67 73.45 
DOCKED: USER  keepresnum = 1 
DOCKED: USER  
DOCKED: REMARK  Name = 
DOCKED: REMARK  9 active torsions:
DOCKED: REMARK  status: ('A' for Active; 'I' for Inactive)
DOCKED: REMARK    1  A    between atoms: C_2  and  C_3
DOCKED: REMARK    2  A    between atoms: C_4  and  C_5
DOCKED: REMARK    3  A    between atoms: C_8  and  C_9
DOCKED: REMARK    4  A    between atoms: C_9  and  N_10
DOCKED: REMARK    5  A    between atoms: N_10  and  C_11
DOCKED: REMARK    6  A    between atoms: C_11  and  C_12
DOCKED: REMARK    7  A    between atoms: C_12  and  C_13
DOCKED: REMARK    8  A    between atoms: C_14  and  C_22
DOCKED: REMARK    9  A    between atoms: N_25  and  O_26
DOCKED: REMARK                            x       y       z     vdW  Elec       q    Type
DOCKED: REMARK                         _______ _______ _______ _____ _____    ______ ____
DOCKED: USER                              x       y       z     vdW  Elec       q    Type
DOCKED: USER                           _______ _______ _______ _____ _____    ______ ____
DOCKED: ROOT
DOCKED: ATOM      1  N   UNL     1      36.686  17.790 123.443 -0.19 -0.00    +0.000 N 
DOCKED: ATOM      2  H   UNL     1      37.031  18.464 124.128 -0.00 -0.00    +0.000 HD
DOCKED: ATOM      3  H   UNL     1      36.214  17.009 123.898 -0.01 -0.00    +0.000 HD
DOCKED: ENDROOT
DOCKED: BRANCH   1   4
DOCKED: ATOM      4  C   UNL     1      37.828  17.252 122.693 -0.19 -0.00    +0.000 C 
DOCKED: BRANCH   4   8
DOCKED: ATOM      5  C   UNL     1      37.080  13.070 121.874 -0.45 -0.00    +0.000 A 
DOCKED: ATOM      6  C   UNL     1      37.419  13.956 120.832 -0.34 -0.00    +0.000 A 
DOCKED: ATOM      7  C   UNL     1      37.666  15.306 121.101 -0.23 -0.00    +0.000 A 
DOCKED: ATOM      8  C   UNL     1      37.600  15.792 122.415 -0.27 -0.00    +0.000 A 
DOCKED: ATOM      9  C   UNL     1      37.265  14.914 123.456 -0.35 -0.00    +0.000 A 
DOCKED: ATOM     10  C   UNL     1      37.020  13.564 123.188 -0.50 -0.00    +0.000 A 
DOCKED: ATOM     11  CM  UNL     1      37.341  14.434 122.144 +0.00 -0.00    +0.000 AC
DOCKED: BRANCH   5  12
DOCKED: ATOM     12  C   UNL     1      37.171  10.662 122.510 -0.39 -0.00    +0.000 C 
DOCKED: ATOM     13  C   UNL     1      36.821  11.627 121.646 -0.57 -0.00    +0.000 C 
DOCKED: BRANCH  11  14
DOCKED: ATOM     14  O   UNL     1      36.698   8.839 121.099 -2.61 -0.00    +0.000 OA
DOCKED: ATOM     15  C   UNL     1      36.912   9.226 122.278 -0.68 -0.00    +0.000 C 
DOCKED: ATOM     16  N   UNL     1      36.873   8.270 123.347 -0.71 -0.00    +0.000 N 
DOCKED: ATOM     17  H   UNL     1      36.942   8.574 124.280 -0.45 -0.00    +0.000 HD
DOCKED: BRANCH  15  17
DOCKED: ATOM     18  O   UNL     1      36.738   6.950 123.073 -1.69 -0.00    +0.000 OA
DOCKED: ATOM     19  H   UNL     1      36.817   6.807 122.118 -0.13 -0.00    +0.000 HD
DOCKED: ENDBRANCH  15  17
DOCKED: ENDBRANCH  11  14
DOCKED: ENDBRANCH   5  12
DOCKED: ENDBRANCH   4   8
DOCKED: ENDBRANCH   1   4
DOCKED: BRANCH   1  19
DOCKED: ATOM     20  C   UNL     1      35.712  18.461 122.568 -0.26 -0.00    +0.000 C 
DOCKED: BRANCH  19  20
DOCKED: ATOM     21  C   UNL     1      34.259  18.114 122.934 -0.21 -0.00    +0.000 C 
DOCKED: BRANCH  20  21
DOCKED: ATOM     22  C   UNL     1      34.187  17.581 124.336 -0.37 -0.00    +0.000 A 
DOCKED: ATOM     23  C   UNL     1      34.097  16.246 124.735 -0.45 -0.00    +0.000 A 
DOCKED: ATOM     24  N   UNL     1      33.983  16.155 126.080 -0.46 -0.00    +0.000 N 
DOCKED: ATOM     25  C   UNL     1      33.977  17.420 126.534 -0.33 -0.00    +0.000 A 
DOCKED: ATOM     26  C   UNL     1      34.092  18.317 125.502 -0.31 -0.00    +0.000 A 
DOCKED: ATOM     27  C   UNL     1      34.083  19.695 125.722 -0.20 -0.00    +0.000 A 
DOCKED: ATOM     28  C   UNL     1      33.960  20.148 127.048 -0.13 -0.00    +0.000 A 
DOCKED: ATOM     29  C   UNL     1      33.847  19.225 128.111 -0.11 -0.00    +0.000 A 
DOCKED: ATOM     30  C   UNL     1      33.854  17.841 127.858 -0.23 -0.00    +0.000 A 
DOCKED: ATOM     31  C   UNL     1      34.148  15.058 123.827 -0.51 -0.00    +0.000 C 
DOCKED: ATOM     32  H   UNL     1      33.919  15.331 126.616 -0.05 -0.00    +0.000 HD
DOCKED: ATOM     33  CM  UNL     1      34.065  17.112 125.458 -0.20 -0.00    +0.000 AC
DOCKED: ATOM     34  CM  UNL     1      33.969  18.774 126.796 -0.02 -0.00    +0.000 AC
DOCKED: ENDBRANCH  20  21
DOCKED: ENDBRANCH  19  20
DOCKED: ENDBRANCH   1  19
DOCKED: TORSDOF 8DOCKED: TER
DOCKED: ENDMDL
________________________________________________________________________________


	BEGINNING GENETIC ALGORITHM DOCKING 90 of 100
Run: 90 Seed: 821423072 1355779052 [ Run 90 of 100 GA/GALS ]
Beginning LAMARCKIAN GENETIC ALGORITHM (LGA), with a maximum of 2500000 energy evaluations.

Final-Value: -14.797


	FINAL GENETIC ALGORITHM DOCKED STATE
	_______________________________________________


Detailed state:  trans 37.555 18.114 123.116 quatxyzw -0.117649 -0.170526 0.137425 -0.968604 center 0.698 0.076 -0.072 ntor 8 16.5949 -92.9353 -143.3591 162.4489 -169.4917 180.0000 -75.5442 -126.1202
State:	 37.555  18.114 123.116  -0.473 -0.686  0.553 -28.790     16.59  -92.94 -143.36  162.45 -169.49  180.00  -75.54 -126.12

DOCKED: MODEL       90
DOCKED: USER    Run = 90
DOCKED: USER    DPF = ligand_dock.biased.dpf
DOCKED: USER  
DOCKED: USER    Estimated Free Energy of Binding    =   -9.93 kcal/mol  [=(1)+(2)+(3)-(4)]
DOCKED: USER    Estimated Inhibition Constant, Ki   =   52.88 nM (nanomolar)  [Temperature = 298.15 K]
DOCKED: USER    
DOCKED: USER    (1) Final Intermolecular Energy     =  -12.31 kcal/mol
DOCKED: USER        vdW + Hbond + desolv Energy     =  -12.31 kcal/mol
DOCKED: USER        Electrostatic Energy            =   +0.00 kcal/mol
DOCKED: USER    (2) Final Total Internal Energy     =   -2.48 kcal/mol
DOCKED: USER    (3) Torsional Free Energy           =   +2.39 kcal/mol
DOCKED: USER    (4) Unbound System's Energy  [=(2)] =   -2.48 kcal/mol
DOCKED: USER    
DOCKED: USER    
DOCKED: USER    NEWDPF move ligand.dum.pdbqt
DOCKED: USER    NEWDPF about 0.698000 0.076000 -0.072000
DOCKED: USER    NEWDPF tran0 37.555302 18.113970 123.116036
DOCKED: USER    NEWDPF quaternion0 -0.117649 -0.170526 0.137425 -0.968604
DOCKED: USER    NEWDPF axisangle0 -0.473231 -0.685921 0.552778 -28.790333
DOCKED: USER    NEWDPF quat0 -0.473231 -0.685921 0.552778 -28.790333
DOCKED: USER    NEWDPF dihe0 16.59 -92.94 -143.36 162.45 -169.49 180.00 -75.54 -126.12 
DOCKED: USER  keepresnum = 1 
DOCKED: USER  
DOCKED: REMARK  Name = 
DOCKED: REMARK  9 active torsions:
DOCKED: REMARK  status: ('A' for Active; 'I' for Inactive)
DOCKED: REMARK    1  A    between atoms: C_2  and  C_3
DOCKED: REMARK    2  A    between atoms: C_4  and  C_5
DOCKED: REMARK    3  A    between atoms: C_8  and  C_9
DOCKED: REMARK    4  A    between atoms: C_9  and  N_10
DOCKED: REMARK    5  A    between atoms: N_10  and  C_11
DOCKED: REMARK    6  A    between atoms: C_11  and  C_12
DOCKED: REMARK    7  A    between atoms: C_12  and  C_13
DOCKED: REMARK    8  A    between atoms: C_14  and  C_22
DOCKED: REMARK    9  A    between atoms: N_25  and  O_26
DOCKED: REMARK                            x       y       z     vdW  Elec       q    Type
DOCKED: REMARK                         _______ _______ _______ _____ _____    ______ ____
DOCKED: USER                              x       y       z     vdW  Elec       q    Type
DOCKED: USER                           _______ _______ _______ _____ _____    ______ ____
DOCKED: ROOT
DOCKED: ATOM      1  N   UNL     1      36.613  18.308 122.453 -0.15 -0.00    +0.000 N 
DOCKED: ATOM      2  H   UNL     1      37.088  17.950 121.624 +0.01 -0.00    +0.000 HD
DOCKED: ATOM      3  H   UNL     1      36.821  19.294 122.603 +0.00 -0.00    +0.000 HD
DOCKED: ENDROOT
DOCKED: BRANCH   1   4
DOCKED: ATOM      4  C   UNL     1      37.087  17.564 123.628 -0.24 -0.00    +0.000 C 
DOCKED: BRANCH   4   8
DOCKED: ATOM      5  C   UNL     1      36.438  13.318 123.113 -0.52 -0.00    +0.000 A 
DOCKED: ATOM      6  C   UNL     1      35.523  14.100 123.846 -0.48 -0.00    +0.000 A 
DOCKED: ATOM      7  C   UNL     1      35.733  15.473 124.005 -0.42 -0.00    +0.000 A 
DOCKED: ATOM      8  C   UNL     1      36.846  16.095 123.421 -0.30 -0.00    +0.000 A 
DOCKED: ATOM      9  C   UNL     1      37.758  15.321 122.688 -0.32 -0.00    +0.000 A 
DOCKED: ATOM     10  C   UNL     1      37.548  13.948 122.527 -0.43 -0.00    +0.000 A 
DOCKED: ATOM     11  CM  UNL     1      36.641  14.709 123.267 +0.00 -0.00    +0.000 AC
DOCKED: BRANCH   5  12
DOCKED: ATOM     12  C   UNL     1      37.224  11.047 122.452 -0.37 -0.00    +0.000 C 
DOCKED: ATOM     13  C   UNL     1      36.257  11.860 122.903 -0.67 -0.00    +0.000 C 
DOCKED: BRANCH  11  14
DOCKED: ATOM     14  O   UNL     1      36.888   9.176 121.065 -2.68 -0.00    +0.000 OA
DOCKED: ATOM     15  C   UNL     1      37.039   9.597 122.242 -0.61 -0.00    +0.000 C 
DOCKED: ATOM     16  N   UNL     1      37.000   8.661 123.329 -0.66 -0.00    +0.000 N 
DOCKED: ATOM     17  H   UNL     1      37.019   8.987 124.258 -0.52 -0.00    +0.000 HD
DOCKED: BRANCH  15  17
DOCKED: ATOM     18  O   UNL     1      36.934   7.331 123.081 -2.10 -0.00    +0.000 OA
DOCKED: ATOM     19  H   UNL     1      37.183   7.162 122.159 -0.13 -0.00    +0.000 HD
DOCKED: ENDBRANCH  15  17
DOCKED: ENDBRANCH  11  14
DOCKED: ENDBRANCH   5  12
DOCKED: ENDBRANCH   4   8
DOCKED: ENDBRANCH   1   4
DOCKED: BRANCH   1  19
DOCKED: ATOM     20  C   UNL     1      35.161  18.176 122.261 -0.31 -0.00    +0.000 C 
DOCKED: BRANCH  19  20
DOCKED: ATOM     21  C   UNL     1      34.748  18.330 120.787 -0.30 -0.00    +0.000 C 
DOCKED: BRANCH  20  21
DOCKED: ATOM     22  C   UNL     1      35.951  18.226 119.895 -0.15 -0.00    +0.000 A 
DOCKED: ATOM     23  C   UNL     1      36.600  19.260 119.218 -0.08 -0.00    +0.000 A 
DOCKED: ATOM     24  N   UNL     1      37.607  18.774 118.455 -0.03 -0.00    +0.000 N 
DOCKED: ATOM     25  C   UNL     1      37.586  17.441 118.625 -0.06 -0.00    +0.000 A 
DOCKED: ATOM     26  C   UNL     1      36.588  17.068 119.489 -0.13 -0.00    +0.000 A 
DOCKED: ATOM     27  C   UNL     1      36.350  15.729 119.804 -0.03 -0.00    +0.000 A 
DOCKED: ATOM     28  C   UNL     1      37.178  14.759 119.211 -0.25 -0.00    +0.000 A 
DOCKED: ATOM     29  C   UNL     1      38.210  15.143 118.325 -0.18 -0.00    +0.000 A 
DOCKED: ATOM     30  C   UNL     1      38.421  16.501 118.023 -0.09 -0.00    +0.000 A 
DOCKED: ATOM     31  C   UNL     1      36.272  20.715 119.325 -0.10 -0.00    +0.000 C 
DOCKED: ATOM     32  H   UNL     1      38.227  19.292 117.892 +0.00 -0.00    +0.000 HD
DOCKED: ATOM     33  CM  UNL     1      36.890  18.174 119.115 +0.00 -0.00    +0.000 AC
DOCKED: ATOM     34  CM  UNL     1      37.389  16.107 118.912 +0.00 -0.00    +0.000 AC
DOCKED: ENDBRANCH  20  21
DOCKED: ENDBRANCH  19  20
DOCKED: ENDBRANCH   1  19
DOCKED: TORSDOF 8DOCKED: TER
DOCKED: ENDMDL
________________________________________________________________________________


	BEGINNING GENETIC ALGORITHM DOCKING 91 of 100
Run: 91 Seed: 496162304 745277019 [ Run 91 of 100 GA/GALS ]
Beginning LAMARCKIAN GENETIC ALGORITHM (LGA), with a maximum of 2500000 energy evaluations.

Final-Value: -15.294


	FINAL GENETIC ALGORITHM DOCKED STATE
	_______________________________________________


Detailed state:  trans 36.066 17.709 123.234 quatxyzw 0.060447 0.738071 0.207172 0.639279 center 0.698 0.076 -0.072 ntor 8 22.1617 21.9540 -46.5382 -18.5356 -57.2557 -128.6049 49.6281 -78.5498
State:	 36.066  17.709 123.234   0.079  0.960  0.269 100.524     22.16   21.95  -46.54  -18.54  -57.26 -128.60   49.63  -78.55

DOCKED: MODEL       91
DOCKED: USER    Run = 91
DOCKED: USER    DPF = ligand_dock.biased.dpf
DOCKED: USER  
DOCKED: USER    Estimated Free Energy of Binding    =  -11.18 kcal/mol  [=(1)+(2)+(3)-(4)]
DOCKED: USER    Estimated Inhibition Constant, Ki   =    6.35 nM (nanomolar)  [Temperature = 298.15 K]
DOCKED: USER    
DOCKED: USER    (1) Final Intermolecular Energy     =  -13.57 kcal/mol
DOCKED: USER        vdW + Hbond + desolv Energy     =  -13.57 kcal/mol
DOCKED: USER        Electrostatic Energy            =   +0.00 kcal/mol
DOCKED: USER    (2) Final Total Internal Energy     =   -1.72 kcal/mol
DOCKED: USER    (3) Torsional Free Energy           =   +2.39 kcal/mol
DOCKED: USER    (4) Unbound System's Energy  [=(2)] =   -1.72 kcal/mol
DOCKED: USER    
DOCKED: USER    
DOCKED: USER    NEWDPF move ligand.dum.pdbqt
DOCKED: USER    NEWDPF about 0.698000 0.076000 -0.072000
DOCKED: USER    NEWDPF tran0 36.066056 17.709366 123.233573
DOCKED: USER    NEWDPF quaternion0 0.060447 0.738071 0.207172 0.639279
DOCKED: USER    NEWDPF axisangle0 0.078608 0.959811 0.269414 100.523907
DOCKED: USER    NEWDPF quat0 0.078608 0.959811 0.269414 100.523907
DOCKED: USER    NEWDPF dihe0 22.16 21.95 -46.54 -18.54 -57.26 -128.60 49.63 -78.55 
DOCKED: USER  keepresnum = 1 
DOCKED: USER  
DOCKED: REMARK  Name = 
DOCKED: REMARK  9 active torsions:
DOCKED: REMARK  status: ('A' for Active; 'I' for Inactive)
DOCKED: REMARK    1  A    between atoms: C_2  and  C_3
DOCKED: REMARK    2  A    between atoms: C_4  and  C_5
DOCKED: REMARK    3  A    between atoms: C_8  and  C_9
DOCKED: REMARK    4  A    between atoms: C_9  and  N_10
DOCKED: REMARK    5  A    between atoms: N_10  and  C_11
DOCKED: REMARK    6  A    between atoms: C_11  and  C_12
DOCKED: REMARK    7  A    between atoms: C_12  and  C_13
DOCKED: REMARK    8  A    between atoms: C_14  and  C_22
DOCKED: REMARK    9  A    between atoms: N_25  and  O_26
DOCKED: REMARK                            x       y       z     vdW  Elec       q    Type
DOCKED: REMARK                         _______ _______ _______ _____ _____    ______ ____
DOCKED: USER                              x       y       z     vdW  Elec       q    Type
DOCKED: USER                           _______ _______ _______ _____ _____    ______ ____
DOCKED: ROOT
DOCKED: ATOM      1  N   UNL     1      36.654  18.318 122.428 -0.15 -0.00    +0.000 N 
DOCKED: ATOM      2  H   UNL     1      37.479  17.730 122.546 +0.00 -0.00    +0.000 HD
DOCKED: ATOM      3  H   UNL     1      36.635  19.072 123.114 +0.00 -0.00    +0.000 HD
DOCKED: ENDROOT
DOCKED: BRANCH   1   4
DOCKED: ATOM      4  C   UNL     1      35.454  17.495 122.631 -0.31 -0.00    +0.000 C 
DOCKED: BRANCH   4   8
DOCKED: ATOM      5  C   UNL     1      36.519  13.306 122.801 -0.48 -0.00    +0.000 A 
DOCKED: ATOM      6  C   UNL     1      37.054  14.142 121.800 -0.33 -0.00    +0.000 A 
DOCKED: ATOM      7  C   UNL     1      36.712  15.497 121.752 -0.21 -0.00    +0.000 A 
DOCKED: ATOM      8  C   UNL     1      35.849  16.047 122.711 -0.29 -0.00    +0.000 A 
DOCKED: ATOM      9  C   UNL     1      35.316  15.219 123.710 -0.47 -0.00    +0.000 A 
DOCKED: ATOM     10  C   UNL     1      35.659  13.865 123.760 -0.47 -0.00    +0.000 A 
DOCKED: ATOM     11  CM  UNL     1      36.185  14.679 122.755 +0.00 -0.00    +0.000 AC
DOCKED: BRANCH   5  12
DOCKED: ATOM     12  C   UNL     1      36.462  10.940 122.017 -0.62 -0.00    +0.000 C 
DOCKED: ATOM     13  C   UNL     1      36.858  11.865 122.905 -0.66 -0.00    +0.000 C 
DOCKED: BRANCH  11  14
DOCKED: ATOM     14  O   UNL     1      37.063   8.870 121.073 -2.70 -0.00    +0.000 OA
DOCKED: ATOM     15  C   UNL     1      36.800   9.506 122.127 -0.68 -0.00    +0.000 C 
DOCKED: ATOM     16  N   UNL     1      36.811   8.813 123.384 -0.61 -0.00    +0.000 N 
DOCKED: ATOM     17  H   UNL     1      36.513   9.274 124.201 -0.42 -0.00    +0.000 HD
DOCKED: BRANCH  15  17
DOCKED: ATOM     18  O   UNL     1      37.230   7.526 123.447 -2.14 -0.00    +0.000 OA
DOCKED: ATOM     19  H   UNL     1      37.797   7.332 122.685 -0.37 -0.00    +0.000 HD
DOCKED: ENDBRANCH  15  17
DOCKED: ENDBRANCH  11  14
DOCKED: ENDBRANCH   5  12
DOCKED: ENDBRANCH   4   8
DOCKED: ENDBRANCH   1   4
DOCKED: BRANCH   1  19
DOCKED: ATOM     20  C   UNL     1      36.692  18.925 121.089 -0.15 -0.00    +0.000 C 
DOCKED: BRANCH  19  20
DOCKED: ATOM     21  C   UNL     1      35.927  18.093 120.046 -0.18 -0.00    +0.000 C 
DOCKED: BRANCH  20  21
DOCKED: ATOM     22  C   UNL     1      34.920  18.949 119.333 -0.19 -0.00    +0.000 A 
DOCKED: ATOM     23  C   UNL     1      35.167  19.933 118.373 -0.11 -0.00    +0.000 A 
DOCKED: ATOM     24  N   UNL     1      34.016  20.542 118.006 -0.13 -0.00    +0.000 N 
DOCKED: ATOM     25  C   UNL     1      33.046  19.968 118.739 -0.20 -0.00    +0.000 A 
DOCKED: ATOM     26  C   UNL     1      33.559  18.999 119.564 -0.27 -0.00    +0.000 A 
DOCKED: ATOM     27  C   UNL     1      32.748  18.279 120.443 -0.37 -0.00    +0.000 A 
DOCKED: ATOM     28  C   UNL     1      31.372  18.570 120.456 -0.34 -0.00    +0.000 A 
DOCKED: ATOM     29  C   UNL     1      30.844  19.565 119.603 -0.40 -0.00    +0.000 A 
DOCKED: ATOM     30  C   UNL     1      31.687  20.279 118.731 -0.25 -0.00    +0.000 A 
DOCKED: ATOM     31  C   UNL     1      36.503  20.270 117.792 -0.05 -0.00    +0.000 C 
DOCKED: ATOM     32  H   UNL     1      33.910  21.258 117.338 -0.00 -0.00    +0.000 HD
DOCKED: ATOM     33  CM  UNL     1      34.138  19.706 118.778 +0.00 -0.00    +0.000 AC
DOCKED: ATOM     34  CM  UNL     1      32.209  19.277 119.589 +0.00 -0.00    +0.000 AC
DOCKED: ENDBRANCH  20  21
DOCKED: ENDBRANCH  19  20
DOCKED: ENDBRANCH   1  19
DOCKED: TORSDOF 8DOCKED: TER
DOCKED: ENDMDL
________________________________________________________________________________


	BEGINNING GENETIC ALGORITHM DOCKING 92 of 100
Run: 92 Seed: 159546080 512190800 [ Run 92 of 100 GA/GALS ]
Beginning LAMARCKIAN GENETIC ALGORITHM (LGA), with a maximum of 2500000 energy evaluations.

Final-Value: -15.882


	FINAL GENETIC ALGORITHM DOCKED STATE
	_______________________________________________


Detailed state:  trans 36.653 16.867 124.279 quatxyzw -0.113800 0.578737 0.451840 0.669294 center 0.698 0.076 -0.072 ntor 8 21.0204 121.6521 -135.7012 174.7048 162.2943 -145.7468 -66.9734 -56.7300
State:	 36.653  16.867 124.279  -0.153  0.779  0.608 95.975     21.02  121.65 -135.70  174.70  162.29 -145.75  -66.97  -56.73

DOCKED: MODEL       92
DOCKED: USER    Run = 92
DOCKED: USER    DPF = ligand_dock.biased.dpf
DOCKED: USER  
DOCKED: USER    Estimated Free Energy of Binding    =  -11.24 kcal/mol  [=(1)+(2)+(3)-(4)]
DOCKED: USER    Estimated Inhibition Constant, Ki   =    5.74 nM (nanomolar)  [Temperature = 298.15 K]
DOCKED: USER    
DOCKED: USER    (1) Final Intermolecular Energy     =  -13.63 kcal/mol
DOCKED: USER        vdW + Hbond + desolv Energy     =  -13.63 kcal/mol
DOCKED: USER        Electrostatic Energy            =   +0.00 kcal/mol
DOCKED: USER    (2) Final Total Internal Energy     =   -2.25 kcal/mol
DOCKED: USER    (3) Torsional Free Energy           =   +2.39 kcal/mol
DOCKED: USER    (4) Unbound System's Energy  [=(2)] =   -2.25 kcal/mol
DOCKED: USER    
DOCKED: USER    
DOCKED: USER    NEWDPF move ligand.dum.pdbqt
DOCKED: USER    NEWDPF about 0.698000 0.076000 -0.072000
DOCKED: USER    NEWDPF tran0 36.653310 16.866866 124.278844
DOCKED: USER    NEWDPF quaternion0 -0.113800 0.578737 0.451840 0.669294
DOCKED: USER    NEWDPF axisangle0 -0.153163 0.778921 0.608131 95.974807
DOCKED: USER    NEWDPF quat0 -0.153163 0.778921 0.608131 95.974807
DOCKED: USER    NEWDPF dihe0 21.02 121.65 -135.70 174.70 162.29 -145.75 -66.97 -56.73 
DOCKED: USER  keepresnum = 1 
DOCKED: USER  
DOCKED: REMARK  Name = 
DOCKED: REMARK  9 active torsions:
DOCKED: REMARK  status: ('A' for Active; 'I' for Inactive)
DOCKED: REMARK    1  A    between atoms: C_2  and  C_3
DOCKED: REMARK    2  A    between atoms: C_4  and  C_5
DOCKED: REMARK    3  A    between atoms: C_8  and  C_9
DOCKED: REMARK    4  A    between atoms: C_9  and  N_10
DOCKED: REMARK    5  A    between atoms: N_10  and  C_11
DOCKED: REMARK    6  A    between atoms: C_11  and  C_12
DOCKED: REMARK    7  A    between atoms: C_12  and  C_13
DOCKED: REMARK    8  A    between atoms: C_14  and  C_22
DOCKED: REMARK    9  A    between atoms: N_25  and  O_26
DOCKED: REMARK                            x       y       z     vdW  Elec       q    Type
DOCKED: REMARK                         _______ _______ _______ _____ _____    ______ ____
DOCKED: USER                              x       y       z     vdW  Elec       q    Type
DOCKED: USER                           _______ _______ _______ _____ _____    ______ ____
DOCKED: ROOT
DOCKED: ATOM      1  N   UNL     1      37.204  17.837 123.933 -0.20 -0.00    +0.000 N 
DOCKED: ATOM      2  H   UNL     1      37.970  17.293 123.535 -0.01 -0.00    +0.000 HD
DOCKED: ATOM      3  H   UNL     1      37.346  18.004 124.929 -0.01 -0.00    +0.000 HD
DOCKED: ENDROOT
DOCKED: BRANCH   1   4
DOCKED: ATOM      4  C   UNL     1      35.956  17.079 123.777 -0.33 -0.00    +0.000 C 
DOCKED: BRANCH   4   8
DOCKED: ATOM      5  C   UNL     1      36.792  13.010 122.572 -0.50 -0.00    +0.000 A 
DOCKED: ATOM      6  C   UNL     1      37.143  14.091 121.739 -0.34 -0.00    +0.000 A 
DOCKED: ATOM      7  C   UNL     1      36.877  15.405 122.134 -0.27 -0.00    +0.000 A 
DOCKED: ATOM      8  C   UNL     1      36.275  15.667 123.374 -0.37 -0.00    +0.000 A 
DOCKED: ATOM      9  C   UNL     1      35.926  14.594 124.208 -0.42 -0.00    +0.000 A 
DOCKED: ATOM     10  C   UNL     1      36.194  13.279 123.814 -0.52 -0.00    +0.000 A 
DOCKED: ATOM     11  CM  UNL     1      36.534  14.341 122.973 +0.00 -0.00    +0.000 AC
DOCKED: BRANCH   5  12
DOCKED: ATOM     12  C   UNL     1      36.404  10.553 122.732 -0.69 -0.00    +0.000 C 
DOCKED: ATOM     13  C   UNL     1      37.063  11.597 122.207 -0.58 -0.00    +0.000 C 
DOCKED: BRANCH  11  14
DOCKED: ATOM     14  O   UNL     1      36.871   8.869 121.154 -2.65 -0.00    +0.000 OA
DOCKED: ATOM     15  C   UNL     1      36.679   9.147 122.367 -0.74 -0.00    +0.000 C 
DOCKED: ATOM     16  N   UNL     1      36.708   8.093 123.340 -0.72 -0.00    +0.000 N 
DOCKED: ATOM     17  H   UNL     1      36.464   8.281 124.275 -0.28 -0.00    +0.000 HD
DOCKED: BRANCH  15  17
DOCKED: ATOM     18  O   UNL     1      37.068   6.840 122.973 -1.61 -0.00    +0.000 OA
DOCKED: ATOM     19  H   UNL     1      37.580   6.877 122.150 -0.32 -0.00    +0.000 HD
DOCKED: ENDBRANCH  15  17
DOCKED: ENDBRANCH  11  14
DOCKED: ENDBRANCH   5  12
DOCKED: ENDBRANCH   4   8
DOCKED: ENDBRANCH   1   4
DOCKED: BRANCH   1  19
DOCKED: ATOM     20  C   UNL     1      37.150  19.144 123.259 -0.14 -0.00    +0.000 C 
DOCKED: BRANCH  19  20
DOCKED: ATOM     21  C   UNL     1      38.500  19.540 122.638 -0.07 -0.00    +0.000 C 
DOCKED: BRANCH  20  21
DOCKED: ATOM     22  C   UNL     1      39.595  18.658 123.165 -0.11 -0.00    +0.000 A 
DOCKED: ATOM     23  C   UNL     1      40.434  18.901 124.254 -0.17 -0.00    +0.000 A 
DOCKED: ATOM     24  N   UNL     1      41.346  17.910 124.387 -0.33 -0.00    +0.000 N 
DOCKED: ATOM     25  C   UNL     1      41.107  17.054 123.379 -0.31 -0.00    +0.000 A 
DOCKED: ATOM     26  C   UNL     1      40.053  17.478 122.609 -0.17 -0.00    +0.000 A 
DOCKED: ATOM     27  C   UNL     1      39.631  16.767 121.485 -0.14 -0.00    +0.000 A 
DOCKED: ATOM     28  C   UNL     1      40.318  15.582 121.161 -0.24 -0.00    +0.000 A 
DOCKED: ATOM     29  C   UNL     1      41.399  15.143 121.956 -0.38 -0.00    +0.000 A 
DOCKED: ATOM     30  C   UNL     1      41.805  15.884 123.081 -0.39 -0.00    +0.000 A 
DOCKED: ATOM     31  C   UNL     1      40.342  20.070 125.183 -0.12 -0.00    +0.000 C 
DOCKED: ATOM     32  H   UNL     1      42.041  17.832 125.080 -0.50 -0.00    +0.000 HD
DOCKED: ATOM     33  CM  UNL     1      40.533  17.998 123.585 +0.00 -0.00    +0.000 AC
DOCKED: ATOM     34  CM  UNL     1      40.719  16.318 122.279 +0.00 -0.00    +0.000 AC
DOCKED: ENDBRANCH  20  21
DOCKED: ENDBRANCH  19  20
DOCKED: ENDBRANCH   1  19
DOCKED: TORSDOF 8DOCKED: TER
DOCKED: ENDMDL
________________________________________________________________________________


	BEGINNING GENETIC ALGORITHM DOCKING 93 of 100
Run: 93 Seed: 1223678902 481303436 [ Run 93 of 100 GA/GALS ]
Beginning LAMARCKIAN GENETIC ALGORITHM (LGA), with a maximum of 2500000 energy evaluations.

Final-Value: -15.745


	FINAL GENETIC ALGORITHM DOCKED STATE
	_______________________________________________


Detailed state:  trans 37.287 17.138 123.013 quatxyzw 0.106556 -0.049658 0.663386 0.738985 center 0.698 0.076 -0.072 ntor 8 3.3135 1.6800 113.3929 -58.5222 -119.9107 129.2539 118.8024 -1.5277
State:	 37.287  17.138 123.013   0.158 -0.074  0.985 84.710      3.31    1.68  113.39  -58.52 -119.91  129.25  118.80   -1.53

DOCKED: MODEL       93
DOCKED: USER    Run = 93
DOCKED: USER    DPF = ligand_dock.biased.dpf
DOCKED: USER  
DOCKED: USER    Estimated Free Energy of Binding    =  -11.50 kcal/mol  [=(1)+(2)+(3)-(4)]
DOCKED: USER    Estimated Inhibition Constant, Ki   =    3.69 nM (nanomolar)  [Temperature = 298.15 K]
DOCKED: USER    
DOCKED: USER    (1) Final Intermolecular Energy     =  -13.89 kcal/mol
DOCKED: USER        vdW + Hbond + desolv Energy     =  -13.89 kcal/mol
DOCKED: USER        Electrostatic Energy            =   +0.00 kcal/mol
DOCKED: USER    (2) Final Total Internal Energy     =   -1.85 kcal/mol
DOCKED: USER    (3) Torsional Free Energy           =   +2.39 kcal/mol
DOCKED: USER    (4) Unbound System's Energy  [=(2)] =   -1.85 kcal/mol
DOCKED: USER    
DOCKED: USER    
DOCKED: USER    NEWDPF move ligand.dum.pdbqt
DOCKED: USER    NEWDPF about 0.698000 0.076000 -0.072000
DOCKED: USER    NEWDPF tran0 37.286847 17.137942 123.012808
DOCKED: USER    NEWDPF quaternion0 0.106556 -0.049658 0.663386 0.738985
DOCKED: USER    NEWDPF axisangle0 0.158160 -0.073707 0.984659 84.709939
DOCKED: USER    NEWDPF quat0 0.158160 -0.073707 0.984659 84.709939
DOCKED: USER    NEWDPF dihe0 3.31 1.68 113.39 -58.52 -119.91 129.25 118.80 -1.53 
DOCKED: USER  keepresnum = 1 
DOCKED: USER  
DOCKED: REMARK  Name = 
DOCKED: REMARK  9 active torsions:
DOCKED: REMARK  status: ('A' for Active; 'I' for Inactive)
DOCKED: REMARK    1  A    between atoms: C_2  and  C_3
DOCKED: REMARK    2  A    between atoms: C_4  and  C_5
DOCKED: REMARK    3  A    between atoms: C_8  and  C_9
DOCKED: REMARK    4  A    between atoms: C_9  and  N_10
DOCKED: REMARK    5  A    between atoms: N_10  and  C_11
DOCKED: REMARK    6  A    between atoms: C_11  and  C_12
DOCKED: REMARK    7  A    between atoms: C_12  and  C_13
DOCKED: REMARK    8  A    between atoms: C_14  and  C_22
DOCKED: REMARK    9  A    between atoms: N_25  and  O_26
DOCKED: REMARK                            x       y       z     vdW  Elec       q    Type
DOCKED: REMARK                         _______ _______ _______ _____ _____    ______ ____
DOCKED: USER                              x       y       z     vdW  Elec       q    Type
DOCKED: USER                           _______ _______ _______ _____ _____    ______ ____
DOCKED: ROOT
DOCKED: ATOM      1  N   UNL     1      37.683  18.154 122.594 -0.11 -0.00    +0.000 N 
DOCKED: ATOM      2  H   UNL     1      37.270  17.970 121.679 +0.01 -0.00    +0.000 HD
DOCKED: ATOM      3  H   UNL     1      38.604  17.727 122.678 +0.00 -0.00    +0.000 HD
DOCKED: ENDROOT
DOCKED: BRANCH   1   4
DOCKED: ATOM      4  C   UNL     1      36.819  17.569 123.629 -0.24 -0.00    +0.000 C 
DOCKED: BRANCH   4   8
DOCKED: ATOM      5  C   UNL     1      36.957  13.251 123.416 -0.52 -0.00    +0.000 A 
DOCKED: ATOM      6  C   UNL     1      35.788  13.911 123.843 -0.49 -0.00    +0.000 A 
DOCKED: ATOM      7  C   UNL     1      35.745  15.307 123.905 -0.44 -0.00    +0.000 A 
DOCKED: ATOM      8  C   UNL     1      36.858  16.070 123.523 -0.30 -0.00    +0.000 A 
DOCKED: ATOM      9  C   UNL     1      38.024  15.418 123.095 -0.31 -0.00    +0.000 A 
DOCKED: ATOM     10  C   UNL     1      38.066  14.022 123.031 -0.43 -0.00    +0.000 A 
DOCKED: ATOM     11  CM  UNL     1      36.906  14.663 123.469 +0.00 -0.00    +0.000 AC
DOCKED: BRANCH   5  12
DOCKED: ATOM     12  C   UNL     1      36.754  11.078 122.212 -0.63 -0.00    +0.000 C 
DOCKED: ATOM     13  C   UNL     1      37.052  11.773 123.320 -0.67 -0.00    +0.000 C 
DOCKED: BRANCH  11  14
DOCKED: ATOM     14  O   UNL     1      36.881   9.077 120.979 -2.67 -0.00    +0.000 OA
DOCKED: ATOM     15  C   UNL     1      36.848   9.606 122.121 -0.66 -0.00    +0.000 C 
DOCKED: ATOM     16  N   UNL     1      36.876   8.765 123.283 -0.65 -0.00    +0.000 N 
DOCKED: ATOM     17  H   UNL     1      36.754   9.159 124.177 -0.49 -0.00    +0.000 HD
DOCKED: BRANCH  15  17
DOCKED: ATOM     18  O   UNL     1      37.070   7.431 123.152 -2.20 -0.00    +0.000 OA
DOCKED: ATOM     19  H   UNL     1      37.224   7.216 122.219 -0.13 -0.00    +0.000 HD
DOCKED: ENDBRANCH  15  17
DOCKED: ENDBRANCH  11  14
DOCKED: ENDBRANCH   5  12
DOCKED: ENDBRANCH   4   8
DOCKED: ENDBRANCH   1   4
DOCKED: BRANCH   1  19
DOCKED: ATOM     20  C   UNL     1      37.841  19.607 122.759 -0.09 -0.00    +0.000 C 
DOCKED: BRANCH  19  20
DOCKED: ATOM     21  C   UNL     1      38.036  20.014 124.229 -0.09 -0.00    +0.000 C 
DOCKED: BRANCH  20  21
DOCKED: ATOM     22  C   UNL     1      39.315  19.437 124.764 -0.12 -0.00    +0.000 A 
DOCKED: ATOM     23  C   UNL     1      40.505  19.216 124.068 -0.14 -0.00    +0.000 A 
DOCKED: ATOM     24  N   UNL     1      41.421  18.618 124.865 -0.25 -0.00    +0.000 N 
DOCKED: ATOM     25  C   UNL     1      40.815  18.439 126.051 -0.32 -0.00    +0.000 A 
DOCKED: ATOM     26  C   UNL     1      39.529  18.918 126.027 -0.20 -0.00    +0.000 A 
DOCKED: ATOM     27  C   UNL     1      38.689  18.821 127.136 -0.13 -0.00    +0.000 A 
DOCKED: ATOM     28  C   UNL     1      39.202  18.219 128.300 -0.21 -0.00    +0.000 A 
DOCKED: ATOM     29  C   UNL     1      40.528  17.730 128.326 -0.41 -0.00    +0.000 A 
DOCKED: ATOM     30  C   UNL     1      41.350  17.837 127.190 -0.37 -0.00    +0.000 A 
DOCKED: ATOM     31  C   UNL     1      40.771  19.602 122.648 -0.07 -0.00    +0.000 C 
DOCKED: ATOM     32  H   UNL     1      42.343  18.367 124.625 -0.57 -0.00    +0.000 HD
DOCKED: ATOM     33  CM  UNL     1      40.352  18.916 125.145 +0.00 -0.00    +0.000 AC
DOCKED: ATOM     34  CM  UNL     1      40.020  18.327 127.171 +0.00 -0.00    +0.000 AC
DOCKED: ENDBRANCH  20  21
DOCKED: ENDBRANCH  19  20
DOCKED: ENDBRANCH   1  19
DOCKED: TORSDOF 8DOCKED: TER
DOCKED: ENDMDL
________________________________________________________________________________


	BEGINNING GENETIC ALGORITHM DOCKING 94 of 100
Run: 94 Seed: 578723218 787451713 [ Run 94 of 100 GA/GALS ]
Beginning LAMARCKIAN GENETIC ALGORITHM (LGA), with a maximum of 2500000 energy evaluations.

Final-Value: -14.982


	FINAL GENETIC ALGORITHM DOCKED STATE
	_______________________________________________


Detailed state:  trans 36.841 17.816 121.990 quatxyzw 0.283006 0.103729 -0.051327 0.952110 center 0.698 0.076 -0.072 ntor 8 22.5673 -46.8488 38.7495 178.6313 -76.5586 -49.6757 -120.6498 -97.9291
State:	 36.841  17.816 121.990   0.926  0.339 -0.168 35.607     22.57  -46.85   38.75  178.63  -76.56  -49.68 -120.65  -97.93

DOCKED: MODEL       94
DOCKED: USER    Run = 94
DOCKED: USER    DPF = ligand_dock.biased.dpf
DOCKED: USER  
DOCKED: USER    Estimated Free Energy of Binding    =  -11.00 kcal/mol  [=(1)+(2)+(3)-(4)]
DOCKED: USER    Estimated Inhibition Constant, Ki   =    8.60 nM (nanomolar)  [Temperature = 298.15 K]
DOCKED: USER    
DOCKED: USER    (1) Final Intermolecular Energy     =  -13.39 kcal/mol
DOCKED: USER        vdW + Hbond + desolv Energy     =  -13.39 kcal/mol
DOCKED: USER        Electrostatic Energy            =   +0.00 kcal/mol
DOCKED: USER    (2) Final Total Internal Energy     =   -1.59 kcal/mol
DOCKED: USER    (3) Torsional Free Energy           =   +2.39 kcal/mol
DOCKED: USER    (4) Unbound System's Energy  [=(2)] =   -1.59 kcal/mol
DOCKED: USER    
DOCKED: USER    
DOCKED: USER    NEWDPF move ligand.dum.pdbqt
DOCKED: USER    NEWDPF about 0.698000 0.076000 -0.072000
DOCKED: USER    NEWDPF tran0 36.841171 17.816138 121.990248
DOCKED: USER    NEWDPF quaternion0 0.283006 0.103729 -0.051327 0.952110
DOCKED: USER    NEWDPF axisangle0 0.925595 0.339255 -0.167869 35.607313
DOCKED: USER    NEWDPF quat0 0.925595 0.339255 -0.167869 35.607313
DOCKED: USER    NEWDPF dihe0 22.57 -46.85 38.75 178.63 -76.56 -49.68 -120.65 -97.93 
DOCKED: USER  keepresnum = 1 
DOCKED: USER  
DOCKED: REMARK  Name = 
DOCKED: REMARK  9 active torsions:
DOCKED: REMARK  status: ('A' for Active; 'I' for Inactive)
DOCKED: REMARK    1  A    between atoms: C_2  and  C_3
DOCKED: REMARK    2  A    between atoms: C_4  and  C_5
DOCKED: REMARK    3  A    between atoms: C_8  and  C_9
DOCKED: REMARK    4  A    between atoms: C_9  and  N_10
DOCKED: REMARK    5  A    between atoms: N_10  and  C_11
DOCKED: REMARK    6  A    between atoms: C_11  and  C_12
DOCKED: REMARK    7  A    between atoms: C_12  and  C_13
DOCKED: REMARK    8  A    between atoms: C_14  and  C_22
DOCKED: REMARK    9  A    between atoms: N_25  and  O_26
DOCKED: REMARK                            x       y       z     vdW  Elec       q    Type
DOCKED: REMARK                         _______ _______ _______ _____ _____    ______ ____
DOCKED: USER                              x       y       z     vdW  Elec       q    Type
DOCKED: USER                           _______ _______ _______ _____ _____    ______ ____
DOCKED: ROOT
DOCKED: ATOM      1  N   UNL     1      35.907  18.021 121.320 -0.20 -0.00    +0.000 N 
DOCKED: ATOM      2  H   UNL     1      36.212  17.328 120.635 -0.00 -0.00    +0.000 HD
DOCKED: ATOM      3  H   UNL     1      36.341  18.927 121.148 +0.00 -0.00    +0.000 HD
DOCKED: ENDROOT
DOCKED: BRANCH   1   4
DOCKED: ATOM      4  C   UNL     1      36.313  17.573 122.658 -0.24 -0.00    +0.000 C 
DOCKED: BRANCH   4   8
DOCKED: ATOM      5  C   UNL     1      36.379  13.249 122.715 -0.45 -0.00    +0.000 A 
DOCKED: ATOM      6  C   UNL     1      36.714  13.956 121.543 -0.13 -0.00    +0.000 A 
DOCKED: ATOM      7  C   UNL     1      36.697  15.354 121.530 -0.17 -0.00    +0.000 A 
DOCKED: ATOM      8  C   UNL     1      36.368  16.072 122.689 -0.29 -0.00    +0.000 A 
DOCKED: ATOM      9  C   UNL     1      36.036  15.372 123.859 -0.41 -0.00    +0.000 A 
DOCKED: ATOM     10  C   UNL     1      36.055  13.975 123.873 -0.48 -0.00    +0.000 A 
DOCKED: ATOM     11  CM  UNL     1      36.375  14.662 122.701 +0.00 -0.00    +0.000 AC
DOCKED: BRANCH   5  12
DOCKED: ATOM     12  C   UNL     1      37.005  10.983 121.886 -0.55 -0.00    +0.000 C 
DOCKED: ATOM     13  C   UNL     1      36.393  11.766 122.788 -0.67 -0.00    +0.000 C 
DOCKED: BRANCH  11  14
DOCKED: ATOM     14  O   UNL     1      37.058   8.853 120.886 -2.72 -0.00    +0.000 OA
DOCKED: ATOM     15  C   UNL     1      37.014   9.507 121.961 -0.63 -0.00    +0.000 C 
DOCKED: ATOM     16  N   UNL     1      36.948   8.800 123.208 -0.67 -0.00    +0.000 N 
DOCKED: ATOM     17  H   UNL     1      36.815   9.297 124.047 -0.49 -0.00    +0.000 HD
DOCKED: BRANCH  15  17
DOCKED: ATOM     18  O   UNL     1      37.066   7.451 123.232 -2.19 -0.00    +0.000 OA
DOCKED: ATOM     19  H   UNL     1      37.530   7.152 122.435 -0.23 -0.00    +0.000 HD
DOCKED: ENDBRANCH  15  17
DOCKED: ENDBRANCH  11  14
DOCKED: ENDBRANCH   5  12
DOCKED: ENDBRANCH   4   8
DOCKED: ENDBRANCH   1   4
DOCKED: BRANCH   1  19
DOCKED: ATOM     20  C   UNL     1      34.450  18.188 121.208 -0.34 -0.00    +0.000 C 
DOCKED: BRANCH  19  20
DOCKED: ATOM     21  C   UNL     1      34.049  19.049 119.997 -0.24 -0.00    +0.000 C 
DOCKED: BRANCH  20  21
DOCKED: ATOM     22  C   UNL     1      33.440  18.190 118.926 -0.22 -0.00    +0.000 A 
DOCKED: ATOM     23  C   UNL     1      34.098  17.540 117.880 -0.13 -0.00    +0.000 A 
DOCKED: ATOM     24  N   UNL     1      33.211  16.915 117.072 -0.16 -0.00    +0.000 N 
DOCKED: ATOM     25  C   UNL     1      31.997  17.181 117.584 -0.14 -0.00    +0.000 A 
DOCKED: ATOM     26  C   UNL     1      32.095  17.961 118.709 -0.24 -0.00    +0.000 A 
DOCKED: ATOM     27  C   UNL     1      30.964  18.391 119.405 -0.43 -0.00    +0.000 A 
DOCKED: ATOM     28  C   UNL     1      29.704  17.993 118.922 -0.35 -0.00    +0.000 A 
DOCKED: ATOM     29  C   UNL     1      29.604  17.186 117.766 -0.30 -0.00    +0.000 A 
DOCKED: ATOM     30  C   UNL     1      30.762  16.772 117.082 -0.22 -0.00    +0.000 A 
DOCKED: ATOM     31  C   UNL     1      35.579  17.498 117.672 -0.11 -0.00    +0.000 C 
DOCKED: ATOM     32  H   UNL     1      33.414  16.375 116.274 -0.00 -0.00    +0.000 HD
DOCKED: ATOM     33  CM  UNL     1      32.977  17.537 118.003 +0.00 -0.00    +0.000 AC
DOCKED: ATOM     34  CM  UNL     1      30.855  17.580 118.244 +0.00 -0.00    +0.000 AC
DOCKED: ENDBRANCH  20  21
DOCKED: ENDBRANCH  19  20
DOCKED: ENDBRANCH   1  19
DOCKED: TORSDOF 8DOCKED: TER
DOCKED: ENDMDL
________________________________________________________________________________


	BEGINNING GENETIC ALGORITHM DOCKING 95 of 100
Run: 95 Seed: 1079488552 525526692 [ Run 95 of 100 GA/GALS ]
Beginning LAMARCKIAN GENETIC ALGORITHM (LGA), with a maximum of 2500000 energy evaluations.

Final-Value: -15.983


	FINAL GENETIC ALGORITHM DOCKED STATE
	_______________________________________________


Detailed state:  trans 35.901 17.142 122.576 quatxyzw 0.423225 -0.491542 0.676196 0.349322 center 0.698 0.076 -0.072 ntor 8 41.8568 -11.7602 136.6450 -174.0105 133.7939 180.0000 -157.8905 38.6072
State:	 35.901  17.142 122.576   0.452 -0.525  0.722 139.108     41.86  -11.76  136.64 -174.01  133.79  180.00 -157.89   38.61

DOCKED: MODEL       95
DOCKED: USER    Run = 95
DOCKED: USER    DPF = ligand_dock.biased.dpf
DOCKED: USER  
DOCKED: USER    Estimated Free Energy of Binding    =  -10.96 kcal/mol  [=(1)+(2)+(3)-(4)]
DOCKED: USER    Estimated Inhibition Constant, Ki   =    9.33 nM (nanomolar)  [Temperature = 298.15 K]
DOCKED: USER    
DOCKED: USER    (1) Final Intermolecular Energy     =  -13.34 kcal/mol
DOCKED: USER        vdW + Hbond + desolv Energy     =  -13.34 kcal/mol
DOCKED: USER        Electrostatic Energy            =   +0.00 kcal/mol
DOCKED: USER    (2) Final Total Internal Energy     =   -2.64 kcal/mol
DOCKED: USER    (3) Torsional Free Energy           =   +2.39 kcal/mol
DOCKED: USER    (4) Unbound System's Energy  [=(2)] =   -2.64 kcal/mol
DOCKED: USER    
DOCKED: USER    
DOCKED: USER    NEWDPF move ligand.dum.pdbqt
DOCKED: USER    NEWDPF about 0.698000 0.076000 -0.072000
DOCKED: USER    NEWDPF tran0 35.900714 17.142330 122.575883
DOCKED: USER    NEWDPF quaternion0 0.423225 -0.491542 0.676196 0.349322
DOCKED: USER    NEWDPF axisangle0 0.451680 -0.524590 0.721659 139.108266
DOCKED: USER    NEWDPF quat0 0.451680 -0.524590 0.721659 139.108266
DOCKED: USER    NEWDPF dihe0 41.86 -11.76 136.64 -174.01 133.79 180.00 -157.89 38.61 
DOCKED: USER  keepresnum = 1 
DOCKED: USER  
DOCKED: REMARK  Name = 
DOCKED: REMARK  9 active torsions:
DOCKED: REMARK  status: ('A' for Active; 'I' for Inactive)
DOCKED: REMARK    1  A    between atoms: C_2  and  C_3
DOCKED: REMARK    2  A    between atoms: C_4  and  C_5
DOCKED: REMARK    3  A    between atoms: C_8  and  C_9
DOCKED: REMARK    4  A    between atoms: C_9  and  N_10
DOCKED: REMARK    5  A    between atoms: N_10  and  C_11
DOCKED: REMARK    6  A    between atoms: C_11  and  C_12
DOCKED: REMARK    7  A    between atoms: C_12  and  C_13
DOCKED: REMARK    8  A    between atoms: C_14  and  C_22
DOCKED: REMARK    9  A    between atoms: N_25  and  O_26
DOCKED: REMARK                            x       y       z     vdW  Elec       q    Type
DOCKED: REMARK                         _______ _______ _______ _____ _____    ______ ____
DOCKED: USER                              x       y       z     vdW  Elec       q    Type
DOCKED: USER                           _______ _______ _______ _____ _____    ______ ____
DOCKED: ROOT
DOCKED: ATOM      1  N   UNL     1      36.117  17.949 121.760 -0.19 -0.00    +0.000 N 
DOCKED: ATOM      2  H   UNL     1      35.165  18.310 121.824 -0.01 -0.00    +0.000 HD
DOCKED: ATOM      3  H   UNL     1      36.171  17.158 121.119 -0.00 -0.00    +0.000 HD
DOCKED: ENDROOT
DOCKED: BRANCH   1   4
DOCKED: ATOM      4  C   UNL     1      36.537  17.484 123.088 -0.24 -0.00    +0.000 C 
DOCKED: BRANCH   4   8
DOCKED: ATOM      5  C   UNL     1      36.697  13.163 123.213 -0.54 -0.00    +0.000 A 
DOCKED: ATOM      6  C   UNL     1      35.567  13.853 123.695 -0.45 -0.00    +0.000 A 
DOCKED: ATOM      7  C   UNL     1      35.516  15.249 123.648 -0.45 -0.00    +0.000 A 
DOCKED: ATOM      8  C   UNL     1      36.580  15.981 123.101 -0.31 -0.00    +0.000 A 
DOCKED: ATOM      9  C   UNL     1      37.706  15.298 122.616 -0.32 -0.00    +0.000 A 
DOCKED: ATOM     10  C   UNL     1      37.756  13.902 122.662 -0.44 -0.00    +0.000 A 
DOCKED: ATOM     11  CM  UNL     1      36.637  14.574 123.156 +0.00 -0.00    +0.000 AC
DOCKED: BRANCH   5  12
DOCKED: ATOM     12  C   UNL     1      36.840  10.928 122.118 -0.60 -0.00    +0.000 C 
DOCKED: ATOM     13  C   UNL     1      36.797  11.682 123.227 -0.69 -0.00    +0.000 C 
DOCKED: BRANCH  11  14
DOCKED: ATOM     14  O   UNL     1      37.054   8.846 121.041 -2.70 -0.00    +0.000 OA
DOCKED: ATOM     15  C   UNL     1      36.937   9.453 122.138 -0.65 -0.00    +0.000 C 
DOCKED: ATOM     16  N   UNL     1      36.878   8.695 123.354 -0.64 -0.00    +0.000 N 
DOCKED: ATOM     17  H   UNL     1      36.690   9.150 124.207 -0.47 -0.00    +0.000 HD
DOCKED: BRANCH  15  17
DOCKED: ATOM     18  O   UNL     1      37.078   7.356 123.331 -2.12 -0.00    +0.000 OA
DOCKED: ATOM     19  H   UNL     1      37.815   7.149 122.736 -0.46 -0.00    +0.000 HD
DOCKED: ENDBRANCH  15  17
DOCKED: ENDBRANCH  11  14
DOCKED: ENDBRANCH   5  12
DOCKED: ENDBRANCH   4   8
DOCKED: ENDBRANCH   1   4
DOCKED: BRANCH   1  19
DOCKED: ATOM     20  C   UNL     1      36.992  19.012 121.241 -0.13 -0.00    +0.000 C 
DOCKED: BRANCH  19  20
DOCKED: ATOM     21  C   UNL     1      37.570  18.672 119.856 -0.06 -0.00    +0.000 C 
DOCKED: BRANCH  20  21
DOCKED: ATOM     22  C   UNL     1      38.004  17.235 119.811 -0.07 -0.00    +0.000 A 
DOCKED: ATOM     23  C   UNL     1      39.205  16.693 120.272 -0.10 -0.00    +0.000 A 
DOCKED: ATOM     24  N   UNL     1      39.270  15.370 119.999 -0.19 -0.00    +0.000 N 
DOCKED: ATOM     25  C   UNL     1      38.131  15.073 119.349 -0.20 -0.00    +0.000 A 
DOCKED: ATOM     26  C   UNL     1      37.338  16.184 119.209 -0.14 -0.00    +0.000 A 
DOCKED: ATOM     27  C   UNL     1      36.112  16.132 118.543 -0.15 -0.00    +0.000 A 
DOCKED: ATOM     28  C   UNL     1      35.702  14.893 118.019 -0.17 -0.00    +0.000 A 
DOCKED: ATOM     29  C   UNL     1      36.516  13.748 118.167 -0.37 -0.00    +0.000 A 
DOCKED: ATOM     30  C   UNL     1      37.749  13.833 118.839 -0.29 -0.00    +0.000 A 
DOCKED: ATOM     31  C   UNL     1      40.277  17.441 120.999 -0.11 -0.00    +0.000 C 
DOCKED: ATOM     32  H   UNL     1      40.000  14.751 120.229 -0.05 -0.00    +0.000 HD
DOCKED: ATOM     33  CM  UNL     1      38.418  16.088 119.737 +0.00 -0.00    +0.000 AC
DOCKED: ATOM     34  CM  UNL     1      36.925  14.977 118.688 +0.00 -0.00    +0.000 AC
DOCKED: ENDBRANCH  20  21
DOCKED: ENDBRANCH  19  20
DOCKED: ENDBRANCH   1  19
DOCKED: TORSDOF 8DOCKED: TER
DOCKED: ENDMDL
________________________________________________________________________________


	BEGINNING GENETIC ALGORITHM DOCKING 96 of 100
Run: 96 Seed: 1136063107 1226904029 [ Run 96 of 100 GA/GALS ]
Beginning LAMARCKIAN GENETIC ALGORITHM (LGA), with a maximum of 2500000 energy evaluations.

Final-Value: -15.187


	FINAL GENETIC ALGORITHM DOCKED STATE
	_______________________________________________


Detailed state:  trans 36.440 17.938 123.909 quatxyzw -0.107383 -0.396058 0.077128 -0.908657 center 0.698 0.076 -0.072 ntor 8 -15.4832 88.0991 23.2140 174.5299 -172.5722 164.7155 -66.3664 -104.9455
State:	 36.440  17.938 123.909  -0.257 -0.949  0.185 -49.359    -15.48   88.10   23.21  174.53 -172.57  164.72  -66.37 -104.95

DOCKED: MODEL       96
DOCKED: USER    Run = 96
DOCKED: USER    DPF = ligand_dock.biased.dpf
DOCKED: USER  
DOCKED: USER    Estimated Free Energy of Binding    =  -10.02 kcal/mol  [=(1)+(2)+(3)-(4)]
DOCKED: USER    Estimated Inhibition Constant, Ki   =   45.58 nM (nanomolar)  [Temperature = 298.15 K]
DOCKED: USER    
DOCKED: USER    (1) Final Intermolecular Energy     =  -12.40 kcal/mol
DOCKED: USER        vdW + Hbond + desolv Energy     =  -12.40 kcal/mol
DOCKED: USER        Electrostatic Energy            =   +0.00 kcal/mol
DOCKED: USER    (2) Final Total Internal Energy     =   -2.79 kcal/mol
DOCKED: USER    (3) Torsional Free Energy           =   +2.39 kcal/mol
DOCKED: USER    (4) Unbound System's Energy  [=(2)] =   -2.79 kcal/mol
DOCKED: USER    
DOCKED: USER    
DOCKED: USER    NEWDPF move ligand.dum.pdbqt
DOCKED: USER    NEWDPF about 0.698000 0.076000 -0.072000
DOCKED: USER    NEWDPF tran0 36.439510 17.938488 123.908628
DOCKED: USER    NEWDPF quaternion0 -0.107383 -0.396058 0.077128 -0.908657
DOCKED: USER    NEWDPF axisangle0 -0.257179 -0.948545 0.184719 -49.359133
DOCKED: USER    NEWDPF quat0 -0.257179 -0.948545 0.184719 -49.359133
DOCKED: USER    NEWDPF dihe0 -15.48 88.10 23.21 174.53 -172.57 164.72 -66.37 -104.95 
DOCKED: USER  keepresnum = 1 
DOCKED: USER  
DOCKED: REMARK  Name = 
DOCKED: REMARK  9 active torsions:
DOCKED: REMARK  status: ('A' for Active; 'I' for Inactive)
DOCKED: REMARK    1  A    between atoms: C_2  and  C_3
DOCKED: REMARK    2  A    between atoms: C_4  and  C_5
DOCKED: REMARK    3  A    between atoms: C_8  and  C_9
DOCKED: REMARK    4  A    between atoms: C_9  and  N_10
DOCKED: REMARK    5  A    between atoms: N_10  and  C_11
DOCKED: REMARK    6  A    between atoms: C_11  and  C_12
DOCKED: REMARK    7  A    between atoms: C_12  and  C_13
DOCKED: REMARK    8  A    between atoms: C_14  and  C_22
DOCKED: REMARK    9  A    between atoms: N_25  and  O_26
DOCKED: REMARK                            x       y       z     vdW  Elec       q    Type
DOCKED: REMARK                         _______ _______ _______ _____ _____    ______ ____
DOCKED: USER                              x       y       z     vdW  Elec       q    Type
DOCKED: USER                           _______ _______ _______ _____ _____    ______ ____
DOCKED: ROOT
DOCKED: ATOM      1  N   UNL     1      35.909  18.241 122.913 -0.21 -0.00    +0.000 N 
DOCKED: ATOM      2  H   UNL     1      36.702  17.917 122.359 +0.00 -0.00    +0.000 HD
DOCKED: ATOM      3  H   UNL     1      36.047  19.198 123.235 -0.00 -0.00    +0.000 HD
DOCKED: ENDROOT
DOCKED: BRANCH   1   4
DOCKED: ATOM      4  C   UNL     1      35.778  17.382 124.097 -0.32 -0.00    +0.000 C 
DOCKED: BRANCH   4   8
DOCKED: ATOM      5  C   UNL     1      36.839  13.298 123.143 -0.52 -0.00    +0.000 A 
DOCKED: ATOM      6  C   UNL     1      35.512  13.636 123.475 -0.37 -0.00    +0.000 A 
DOCKED: ATOM      7  C   UNL     1      35.171  14.958 123.777 -0.49 -0.00    +0.000 A 
DOCKED: ATOM      8  C   UNL     1      36.141  15.970 123.734 -0.36 -0.00    +0.000 A 
DOCKED: ATOM      9  C   UNL     1      37.463  15.639 123.401 -0.30 -0.00    +0.000 A 
DOCKED: ATOM     10  C   UNL     1      37.804  14.318 123.097 -0.42 -0.00    +0.000 A 
DOCKED: ATOM     11  CM  UNL     1      36.489  14.636 123.439 +0.00 -0.00    +0.000 AC
DOCKED: BRANCH   5  12
DOCKED: ATOM     12  C   UNL     1      36.408  10.872 122.770 -0.69 -0.00    +0.000 C 
DOCKED: ATOM     13  C   UNL     1      37.252  11.915 122.802 -0.55 -0.00    +0.000 C 
DOCKED: BRANCH  11  14
DOCKED: ATOM     14  O   UNL     1      37.050   9.216 121.225 -2.72 -0.00    +0.000 OA
DOCKED: ATOM     15  C   UNL     1      36.825   9.495 122.432 -0.68 -0.00    +0.000 C 
DOCKED: ATOM     16  N   UNL     1      36.954   8.467 123.424 -0.68 -0.00    +0.000 N 
DOCKED: ATOM     17  H   UNL     1      36.688   8.646 124.354 -0.38 -0.00    +0.000 HD
DOCKED: BRANCH  15  17
DOCKED: ATOM     18  O   UNL     1      37.441   7.250 123.082 -1.82 -0.00    +0.000 OA
DOCKED: ATOM     19  H   UNL     1      37.423   7.153 122.117 -0.18 -0.00    +0.000 HD
DOCKED: ENDBRANCH  15  17
DOCKED: ENDBRANCH  11  14
DOCKED: ENDBRANCH   5  12
DOCKED: ENDBRANCH   4   8
DOCKED: ENDBRANCH   1   4
DOCKED: BRANCH   1  19
DOCKED: ATOM     20  C   UNL     1      34.702  18.216 122.072 -0.31 -0.00    +0.000 C 
DOCKED: BRANCH  19  20
DOCKED: ATOM     21  C   UNL     1      35.032  18.281 120.571 -0.28 -0.00    +0.000 C 
DOCKED: BRANCH  20  21
DOCKED: ATOM     22  C   UNL     1      36.504  18.077 120.351 -0.13 -0.00    +0.000 A 
DOCKED: ATOM     23  C   UNL     1      37.492  19.057 120.239 -0.06 -0.00    +0.000 A 
DOCKED: ATOM     24  N   UNL     1      38.695  18.496 119.977 -0.03 -0.00    +0.000 N 
DOCKED: ATOM     25  C   UNL     1      38.474  17.173 119.899 -0.07 -0.00    +0.000 A 
DOCKED: ATOM     26  C   UNL     1      37.151  16.879 120.114 -0.12 -0.00    +0.000 A 
DOCKED: ATOM     27  C   UNL     1      36.671  15.570 120.058 -0.13 -0.00    +0.000 A 
DOCKED: ATOM     28  C   UNL     1      37.592  14.543 119.780 -0.27 -0.00    +0.000 A 
DOCKED: ATOM     29  C   UNL     1      38.955  14.845 119.563 -0.09 -0.00    +0.000 A 
DOCKED: ATOM     30  C   UNL     1      39.409  16.176 119.621 -0.13 -0.00    +0.000 A 
DOCKED: ATOM     31  C   UNL     1      37.285  20.528 120.411 -0.09 -0.00    +0.000 C 
DOCKED: ATOM     32  H   UNL     1      39.555  18.962 119.866 +0.00 -0.00    +0.000 HD
DOCKED: ATOM     33  CM  UNL     1      37.696  17.955 120.112 +0.00 -0.00    +0.000 AC
DOCKED: ATOM     34  CM  UNL     1      38.042  15.865 119.839 +0.00 -0.00    +0.000 AC
DOCKED: ENDBRANCH  20  21
DOCKED: ENDBRANCH  19  20
DOCKED: ENDBRANCH   1  19
DOCKED: TORSDOF 8DOCKED: TER
DOCKED: ENDMDL
________________________________________________________________________________


	BEGINNING GENETIC ALGORITHM DOCKING 97 of 100
Run: 97 Seed: 1405246423 580134595 [ Run 97 of 100 GA/GALS ]
Beginning LAMARCKIAN GENETIC ALGORITHM (LGA), with a maximum of 2500000 energy evaluations.

Final-Value: -16.014


	FINAL GENETIC ALGORITHM DOCKED STATE
	_______________________________________________


Detailed state:  trans 38.090 17.371 123.713 quatxyzw -0.693684 0.652478 0.176469 0.248865 center 0.698 0.076 -0.072 ntor 8 13.9852 -10.0473 146.9609 156.3844 -161.2109 -59.6706 168.1905 23.9800
State:	 38.090  17.371 123.713  -0.716  0.674  0.182 151.179     13.99  -10.05  146.96  156.38 -161.21  -59.67  168.19   23.98

DOCKED: MODEL       97
DOCKED: USER    Run = 97
DOCKED: USER    DPF = ligand_dock.biased.dpf
DOCKED: USER  
DOCKED: USER    Estimated Free Energy of Binding    =  -11.35 kcal/mol  [=(1)+(2)+(3)-(4)]
DOCKED: USER    Estimated Inhibition Constant, Ki   =    4.76 nM (nanomolar)  [Temperature = 298.15 K]
DOCKED: USER    
DOCKED: USER    (1) Final Intermolecular Energy     =  -13.74 kcal/mol
DOCKED: USER        vdW + Hbond + desolv Energy     =  -13.74 kcal/mol
DOCKED: USER        Electrostatic Energy            =   +0.00 kcal/mol
DOCKED: USER    (2) Final Total Internal Energy     =   -2.27 kcal/mol
DOCKED: USER    (3) Torsional Free Energy           =   +2.39 kcal/mol
DOCKED: USER    (4) Unbound System's Energy  [=(2)] =   -2.27 kcal/mol
DOCKED: USER    
DOCKED: USER    
DOCKED: USER    NEWDPF move ligand.dum.pdbqt
DOCKED: USER    NEWDPF about 0.698000 0.076000 -0.072000
DOCKED: USER    NEWDPF tran0 38.089963 17.370875 123.712787
DOCKED: USER    NEWDPF quaternion0 -0.693684 0.652478 0.176469 0.248865
DOCKED: USER    NEWDPF axisangle0 -0.716217 0.673673 0.182201 151.179273
DOCKED: USER    NEWDPF quat0 -0.716217 0.673673 0.182201 151.179273
DOCKED: USER    NEWDPF dihe0 13.99 -10.05 146.96 156.38 -161.21 -59.67 168.19 23.98 
DOCKED: USER  keepresnum = 1 
DOCKED: USER  
DOCKED: REMARK  Name = 
DOCKED: REMARK  9 active torsions:
DOCKED: REMARK  status: ('A' for Active; 'I' for Inactive)
DOCKED: REMARK    1  A    between atoms: C_2  and  C_3
DOCKED: REMARK    2  A    between atoms: C_4  and  C_5
DOCKED: REMARK    3  A    between atoms: C_8  and  C_9
DOCKED: REMARK    4  A    between atoms: C_9  and  N_10
DOCKED: REMARK    5  A    between atoms: N_10  and  C_11
DOCKED: REMARK    6  A    between atoms: C_11  and  C_12
DOCKED: REMARK    7  A    between atoms: C_12  and  C_13
DOCKED: REMARK    8  A    between atoms: C_14  and  C_22
DOCKED: REMARK    9  A    between atoms: N_25  and  O_26
DOCKED: REMARK                            x       y       z     vdW  Elec       q    Type
DOCKED: REMARK                         _______ _______ _______ _____ _____    ______ ____
DOCKED: USER                              x       y       z     vdW  Elec       q    Type
DOCKED: USER                           _______ _______ _______ _____ _____    ______ ____
DOCKED: ROOT
DOCKED: ATOM      1  N   UNL     1      37.664  18.366 124.152 -0.17 -0.00    +0.000 N 
DOCKED: ATOM      2  H   UNL     1      38.412  18.413 124.844 -0.01 -0.00    +0.000 HD
DOCKED: ATOM      3  H   UNL     1      36.892  17.787 124.479 -0.01 -0.00    +0.000 HD
DOCKED: ENDROOT
DOCKED: BRANCH   1   4
DOCKED: ATOM      4  C   UNL     1      38.194  17.759 122.924 -0.17 -0.00    +0.000 C 
DOCKED: BRANCH   4   8
DOCKED: ATOM      5  C   UNL     1      37.531  13.487 123.075 -0.49 -0.00    +0.000 A 
DOCKED: ATOM      6  C   UNL     1      36.731  14.364 123.835 -0.35 -0.00    +0.000 A 
DOCKED: ATOM      7  C   UNL     1      36.945  15.745 123.779 -0.26 -0.00    +0.000 A 
DOCKED: ATOM      8  C   UNL     1      37.944  16.277 122.950 -0.25 -0.00    +0.000 A 
DOCKED: ATOM      9  C   UNL     1      38.740  15.408 122.190 -0.30 -0.00    +0.000 A 
DOCKED: ATOM     10  C   UNL     1      38.526  14.027 122.244 -0.38 -0.00    +0.000 A 
DOCKED: ATOM     11  CM  UNL     1      37.736  14.884 123.012 +0.00 -0.00    +0.000 AC
DOCKED: BRANCH   5  12
DOCKED: ATOM     12  C   UNL     1      37.126  11.283 121.983 -0.49 -0.00    +0.000 C 
DOCKED: ATOM     13  C   UNL     1      37.339  12.015 123.087 -0.55 -0.00    +0.000 C 
DOCKED: BRANCH  11  14
DOCKED: ATOM     14  O   UNL     1      36.856   9.211 120.900 -2.65 +0.00    +0.000 OA
DOCKED: ATOM     15  C   UNL     1      36.933   9.818 122.000 -0.61 -0.00    +0.000 C 
DOCKED: ATOM     16  N   UNL     1      36.805   9.074 123.221 -0.63 -0.00    +0.000 N 
DOCKED: ATOM     17  H   UNL     1      36.767   9.548 124.083 -0.48 -0.00    +0.000 HD
DOCKED: BRANCH  15  17
DOCKED: ATOM     18  O   UNL     1      36.736   7.722 123.189 -2.19 -0.00    +0.000 OA
DOCKED: ATOM     19  H   UNL     1      37.006   7.404 122.313 -0.07 -0.00    +0.000 HD
DOCKED: ENDBRANCH  15  17
DOCKED: ENDBRANCH  11  14
DOCKED: ENDBRANCH   5  12
DOCKED: ENDBRANCH   4   8
DOCKED: ENDBRANCH   1   4
DOCKED: BRANCH   1  19
DOCKED: ATOM     20  C   UNL     1      37.145  19.723 123.921 -0.13 -0.00    +0.000 C 
DOCKED: BRANCH  19  20
DOCKED: ATOM     21  C   UNL     1      35.648  19.727 123.570 -0.12 -0.00    +0.000 C 
DOCKED: BRANCH  20  21
DOCKED: ATOM     22  C   UNL     1      34.991  18.476 124.077 -0.26 -0.00    +0.000 A 
DOCKED: ATOM     23  C   UNL     1      34.464  17.425 123.322 -0.38 -0.00    +0.000 A 
DOCKED: ATOM     24  N   UNL     1      33.890  16.500 124.125 -0.39 -0.00    +0.000 N 
DOCKED: ATOM     25  C   UNL     1      34.029  16.964 125.379 -0.39 -0.00    +0.000 A 
DOCKED: ATOM     26  C   UNL     1      34.687  18.168 125.390 -0.30 -0.00    +0.000 A 
DOCKED: ATOM     27  C   UNL     1      34.928  18.863 126.576 -0.19 -0.00    +0.000 A 
DOCKED: ATOM     28  C   UNL     1      34.479  18.285 127.778 -0.17 -0.00    +0.000 A 
DOCKED: ATOM     29  C   UNL     1      33.806  17.043 127.767 -0.28 -0.00    +0.000 A 
DOCKED: ATOM     30  C   UNL     1      33.573  16.369 126.555 -0.33 -0.00    +0.000 A 
DOCKED: ATOM     31  C   UNL     1      34.536  17.299 121.834 -0.30 -0.00    +0.000 C 
DOCKED: ATOM     32  H   UNL     1      33.461  15.658 123.848 -0.06 -0.00    +0.000 HD
DOCKED: ATOM     33  CM  UNL     1      34.396  17.475 124.448 -0.31 -0.00    +0.000 AC
DOCKED: ATOM     34  CM  UNL     1      34.250  17.615 126.574 -0.07 -0.00    +0.000 AC
DOCKED: ENDBRANCH  20  21
DOCKED: ENDBRANCH  19  20
DOCKED: ENDBRANCH   1  19
DOCKED: TORSDOF 8DOCKED: TER
DOCKED: ENDMDL
________________________________________________________________________________


	BEGINNING GENETIC ALGORITHM DOCKING 98 of 100
Run: 98 Seed: 146532617 2221938 [ Run 98 of 100 GA/GALS ]
Beginning LAMARCKIAN GENETIC ALGORITHM (LGA), with a maximum of 2500000 energy evaluations.

Final-Value: -14.995


	FINAL GENETIC ALGORITHM DOCKED STATE
	_______________________________________________


Detailed state:  trans 38.177 17.411 120.732 quatxyzw 0.408422 -0.179781 0.128318 0.885667 center 0.698 0.076 -0.072 ntor 8 1.9265 -35.6868 -159.8787 -73.5068 -84.1855 147.4406 13.7125 -79.3731
State:	 38.177  17.411 120.732   0.880 -0.387  0.276 55.333      1.93  -35.69 -159.88  -73.51  -84.19  147.44   13.71  -79.37

DOCKED: MODEL       98
DOCKED: USER    Run = 98
DOCKED: USER    DPF = ligand_dock.biased.dpf
DOCKED: USER  
DOCKED: USER    Estimated Free Energy of Binding    =  -10.65 kcal/mol  [=(1)+(2)+(3)-(4)]
DOCKED: USER    Estimated Inhibition Constant, Ki   =   15.49 nM (nanomolar)  [Temperature = 298.15 K]
DOCKED: USER    
DOCKED: USER    (1) Final Intermolecular Energy     =  -13.04 kcal/mol
DOCKED: USER        vdW + Hbond + desolv Energy     =  -13.04 kcal/mol
DOCKED: USER        Electrostatic Energy            =   +0.00 kcal/mol
DOCKED: USER    (2) Final Total Internal Energy     =   -1.95 kcal/mol
DOCKED: USER    (3) Torsional Free Energy           =   +2.39 kcal/mol
DOCKED: USER    (4) Unbound System's Energy  [=(2)] =   -1.95 kcal/mol
DOCKED: USER    
DOCKED: USER    
DOCKED: USER    NEWDPF move ligand.dum.pdbqt
DOCKED: USER    NEWDPF about 0.698000 0.076000 -0.072000
DOCKED: USER    NEWDPF tran0 38.177108 17.411395 120.732415
DOCKED: USER    NEWDPF quaternion0 0.408422 -0.179781 0.128318 0.885667
DOCKED: USER    NEWDPF axisangle0 0.879609 -0.387190 0.276355 55.332681
DOCKED: USER    NEWDPF quat0 0.879609 -0.387190 0.276355 55.332681
DOCKED: USER    NEWDPF dihe0 1.93 -35.69 -159.88 -73.51 -84.19 147.44 13.71 -79.37 
DOCKED: USER  keepresnum = 1 
DOCKED: USER  
DOCKED: REMARK  Name = 
DOCKED: REMARK  9 active torsions:
DOCKED: REMARK  status: ('A' for Active; 'I' for Inactive)
DOCKED: REMARK    1  A    between atoms: C_2  and  C_3
DOCKED: REMARK    2  A    between atoms: C_4  and  C_5
DOCKED: REMARK    3  A    between atoms: C_8  and  C_9
DOCKED: REMARK    4  A    between atoms: C_9  and  N_10
DOCKED: REMARK    5  A    between atoms: N_10  and  C_11
DOCKED: REMARK    6  A    between atoms: C_11  and  C_12
DOCKED: REMARK    7  A    between atoms: C_12  and  C_13
DOCKED: REMARK    8  A    between atoms: C_14  and  C_22
DOCKED: REMARK    9  A    between atoms: N_25  and  O_26
DOCKED: REMARK                            x       y       z     vdW  Elec       q    Type
DOCKED: REMARK                         _______ _______ _______ _____ _____    ______ ____
DOCKED: USER                              x       y       z     vdW  Elec       q    Type
DOCKED: USER                           _______ _______ _______ _____ _____    ______ ____
DOCKED: ROOT
DOCKED: ATOM      1  N   UNL     1      37.233  17.992 120.363 -0.08 -0.00    +0.000 N 
DOCKED: ATOM      2  H   UNL     1      36.861  17.155 119.913 +0.00 -0.00    +0.000 HD
DOCKED: ATOM      3  H   UNL     1      37.885  18.482 119.751 +0.00 -0.00    +0.000 HD
DOCKED: ENDROOT
DOCKED: BRANCH   1   4
DOCKED: ATOM      4  C   UNL     1      37.964  17.592 121.572 -0.12 -0.00    +0.000 C 
DOCKED: BRANCH   4   8
DOCKED: ATOM      5  C   UNL     1      37.296  13.405 122.428 -0.46 -0.00    +0.000 A 
DOCKED: ATOM      6  C   UNL     1      37.135  14.378 123.435 -0.41 -0.00    +0.000 A 
DOCKED: ATOM      7  C   UNL     1      37.346  15.731 123.154 -0.31 -0.00    +0.000 A 
DOCKED: ATOM      8  C   UNL     1      37.701  16.141 121.860 -0.20 -0.00    +0.000 A 
DOCKED: ATOM      9  C   UNL     1      37.860  15.177 120.854 -0.24 -0.00    +0.000 A 
DOCKED: ATOM     10  C   UNL     1      37.647  13.824 121.134 -0.37 -0.00    +0.000 A 
DOCKED: ATOM     11  CM  UNL     1      37.498  14.775 122.144 +0.00 -0.00    +0.000 AC
DOCKED: BRANCH   5  12
DOCKED: ATOM     12  C   UNL     1      37.171  11.020 121.715 -0.40 -0.00    +0.000 C 
DOCKED: ATOM     13  C   UNL     1      37.072  11.958 122.670 -0.62 -0.00    +0.000 C 
DOCKED: BRANCH  11  14
DOCKED: ATOM     14  O   UNL     1      36.691   8.838 120.975 -2.61 -0.00    +0.000 OA
DOCKED: ATOM     15  C   UNL     1      36.945   9.580 121.960 -0.63 -0.00    +0.000 C 
DOCKED: ATOM     16  N   UNL     1      36.980   9.010 123.276 -0.63 -0.00    +0.000 N 
DOCKED: ATOM     17  H   UNL     1      37.081   9.594 124.061 -0.54 -0.00    +0.000 HD
DOCKED: BRANCH  15  17
DOCKED: ATOM     18  O   UNL     1      36.872   7.669 123.439 -2.19 -0.00    +0.000 OA
DOCKED: ATOM     19  H   UNL     1      36.810   7.241 122.571 -0.06 -0.00    +0.000 HD
DOCKED: ENDBRANCH  15  17
DOCKED: ENDBRANCH  11  14
DOCKED: ENDBRANCH   5  12
DOCKED: ENDBRANCH   4   8
DOCKED: ENDBRANCH   1   4
DOCKED: BRANCH   1  19
DOCKED: ATOM     20  C   UNL     1      36.119  18.904 120.662 -0.18 -0.00    +0.000 C 
DOCKED: BRANCH  19  20
DOCKED: ATOM     21  C   UNL     1      35.044  18.248 121.545 -0.31 -0.00    +0.000 C 
DOCKED: BRANCH  20  21
DOCKED: ATOM     22  C   UNL     1      35.218  18.666 122.977 -0.19 -0.00    +0.000 A 
DOCKED: ATOM     23  C   UNL     1      35.937  19.760 123.463 -0.16 -0.00    +0.000 A 
DOCKED: ATOM     24  N   UNL     1      35.925  19.777 124.816 -0.16 -0.00    +0.000 N 
DOCKED: ATOM     25  C   UNL     1      35.226  18.693 125.191 -0.23 -0.00    +0.000 A 
DOCKED: ATOM     26  C   UNL     1      34.785  17.987 124.100 -0.32 -0.00    +0.000 A 
DOCKED: ATOM     27  C   UNL     1      34.057  16.804 124.236 -0.38 -0.00    +0.000 A 
DOCKED: ATOM     28  C   UNL     1      33.775  16.352 125.538 -0.30 -0.00    +0.000 A 
DOCKED: ATOM     29  C   UNL     1      34.225  17.082 126.661 -0.16 -0.00    +0.000 A 
DOCKED: ATOM     30  C   UNL     1      34.962  18.268 126.493 -0.20 -0.00    +0.000 A 
DOCKED: ATOM     31  C   UNL     1      36.610  20.802 122.628 -0.12 -0.00    +0.000 C 
DOCKED: ATOM     32  H   UNL     1      36.343  20.448 125.404 +0.00 -0.00    +0.000 HD
DOCKED: ATOM     33  CM  UNL     1      35.435  19.002 124.131 -0.08 -0.00    +0.000 AC
DOCKED: ATOM     34  CM  UNL     1      34.505  17.531 125.370 -0.39 -0.00    +0.000 AC
DOCKED: ENDBRANCH  20  21
DOCKED: ENDBRANCH  19  20
DOCKED: ENDBRANCH   1  19
DOCKED: TORSDOF 8DOCKED: TER
DOCKED: ENDMDL
________________________________________________________________________________


	BEGINNING GENETIC ALGORITHM DOCKING 99 of 100
Run: 99 Seed: 291040619 1873919312 [ Run 99 of 100 GA/GALS ]
Beginning LAMARCKIAN GENETIC ALGORITHM (LGA), with a maximum of 2500000 energy evaluations.

Final-Value: -15.645


	FINAL GENETIC ALGORITHM DOCKED STATE
	_______________________________________________


Detailed state:  trans 36.970 17.801 124.182 quatxyzw -0.142194 -0.660788 -0.339181 -0.654291 center 0.698 0.076 -0.072 ntor 8 -4.0057 -65.4126 -168.9589 168.0444 -173.5265 72.6600 -87.3866 -77.3065
State:	 36.970  17.801 124.182  -0.188 -0.874 -0.449 -98.268     -4.01  -65.41 -168.96  168.04 -173.53   72.66  -87.39  -77.31

DOCKED: MODEL       99
DOCKED: USER    Run = 99
DOCKED: USER    DPF = ligand_dock.biased.dpf
DOCKED: USER  
DOCKED: USER    Estimated Free Energy of Binding    =  -10.84 kcal/mol  [=(1)+(2)+(3)-(4)]
DOCKED: USER    Estimated Inhibition Constant, Ki   =   11.24 nM (nanomolar)  [Temperature = 298.15 K]
DOCKED: USER    
DOCKED: USER    (1) Final Intermolecular Energy     =  -13.23 kcal/mol
DOCKED: USER        vdW + Hbond + desolv Energy     =  -13.23 kcal/mol
DOCKED: USER        Electrostatic Energy            =   +0.00 kcal/mol
DOCKED: USER    (2) Final Total Internal Energy     =   -2.41 kcal/mol
DOCKED: USER    (3) Torsional Free Energy           =   +2.39 kcal/mol
DOCKED: USER    (4) Unbound System's Energy  [=(2)] =   -2.41 kcal/mol
DOCKED: USER    
DOCKED: USER    
DOCKED: USER    NEWDPF move ligand.dum.pdbqt
DOCKED: USER    NEWDPF about 0.698000 0.076000 -0.072000
DOCKED: USER    NEWDPF tran0 36.970421 17.801396 124.182470
DOCKED: USER    NEWDPF quaternion0 -0.142194 -0.660788 -0.339181 -0.654291
DOCKED: USER    NEWDPF axisangle0 -0.188027 -0.873777 -0.448508 -98.268217
DOCKED: USER    NEWDPF quat0 -0.188027 -0.873777 -0.448508 -98.268217
DOCKED: USER    NEWDPF dihe0 -4.01 -65.41 -168.96 168.04 -173.53 72.66 -87.39 -77.31 
DOCKED: USER  keepresnum = 1 
DOCKED: USER  
DOCKED: REMARK  Name = 
DOCKED: REMARK  9 active torsions:
DOCKED: REMARK  status: ('A' for Active; 'I' for Inactive)
DOCKED: REMARK    1  A    between atoms: C_2  and  C_3
DOCKED: REMARK    2  A    between atoms: C_4  and  C_5
DOCKED: REMARK    3  A    between atoms: C_8  and  C_9
DOCKED: REMARK    4  A    between atoms: C_9  and  N_10
DOCKED: REMARK    5  A    between atoms: N_10  and  C_11
DOCKED: REMARK    6  A    between atoms: C_11  and  C_12
DOCKED: REMARK    7  A    between atoms: C_12  and  C_13
DOCKED: REMARK    8  A    between atoms: C_14  and  C_22
DOCKED: REMARK    9  A    between atoms: N_25  and  O_26
DOCKED: REMARK                            x       y       z     vdW  Elec       q    Type
DOCKED: REMARK                         _______ _______ _______ _____ _____    ______ ____
DOCKED: USER                              x       y       z     vdW  Elec       q    Type
DOCKED: USER                           _______ _______ _______ _____ _____    ______ ____
DOCKED: ROOT
DOCKED: ATOM      1  N   UNL     1      37.613  18.330 123.362 -0.14 -0.00    +0.000 N 
DOCKED: ATOM      2  H   UNL     1      38.234  17.524 123.290 -0.00 -0.00    +0.000 HD
DOCKED: ATOM      3  H   UNL     1      37.900  18.953 124.116 +0.00 -0.00    +0.000 HD
DOCKED: ENDROOT
DOCKED: BRANCH   1   4
DOCKED: ATOM      4  C   UNL     1      36.256  17.855 123.663 -0.25 -0.00    +0.000 C 
DOCKED: BRANCH   4   8
DOCKED: ATOM      5  C   UNL     1      36.200  13.534 123.450 -0.52 -0.00    +0.000 A 
DOCKED: ATOM      6  C   UNL     1      35.263  14.226 124.243 -0.22 -0.00    +0.000 A 
DOCKED: ATOM      7  C   UNL     1      35.280  15.622 124.305 -0.45 -0.00    +0.000 A 
DOCKED: ATOM      8  C   UNL     1      36.217  16.355 123.562 -0.32 -0.00    +0.000 A 
DOCKED: ATOM      9  C   UNL     1      37.151  15.672 122.769 -0.30 -0.00    +0.000 A 
DOCKED: ATOM     10  C   UNL     1      37.133  14.276 122.705 -0.42 -0.00    +0.000 A 
DOCKED: ATOM     11  CM  UNL     1      36.207  14.947 123.506 +0.00 -0.00    +0.000 AC
DOCKED: BRANCH   5  12
DOCKED: ATOM     12  C   UNL     1      36.943  11.386 122.428 -0.61 -0.00    +0.000 C 
DOCKED: ATOM     13  C   UNL     1      36.219  12.055 123.338 -0.69 -0.00    +0.000 C 
DOCKED: BRANCH  11  14
DOCKED: ATOM     14  O   UNL     1      36.780   9.394 121.185 -2.48 -0.00    +0.000 OA
DOCKED: ATOM     15  C   UNL     1      36.956   9.912 122.319 -0.61 -0.00    +0.000 C 
DOCKED: ATOM     16  N   UNL     1      37.136   9.059 123.458 -0.55 -0.00    +0.000 N 
DOCKED: ATOM     17  H   UNL     1      37.177   9.448 124.361 -0.55 -0.00    +0.000 HD
DOCKED: BRANCH  15  17
DOCKED: ATOM     18  O   UNL     1      37.247   7.719 123.293 -2.25 -0.00    +0.000 OA
DOCKED: ATOM     19  H   UNL     1      37.122   7.496 122.358 -0.08 -0.00    +0.000 HD
DOCKED: ENDBRANCH  15  17
DOCKED: ENDBRANCH  11  14
DOCKED: ENDBRANCH   5  12
DOCKED: ENDBRANCH   4   8
DOCKED: ENDBRANCH   1   4
DOCKED: BRANCH   1  19
DOCKED: ATOM     20  C   UNL     1      37.670  19.086 122.102 -0.10 -0.00    +0.000 C 
DOCKED: BRANCH  19  20
DOCKED: ATOM     21  C   UNL     1      39.109  19.255 121.584 -0.04 -0.00    +0.000 C 
DOCKED: BRANCH  20  21
DOCKED: ATOM     22  C   UNL     1      40.050  18.388 122.369 -0.09 -0.00    +0.000 A 
DOCKED: ATOM     23  C   UNL     1      40.893  18.775 123.413 -0.15 -0.00    +0.000 A 
DOCKED: ATOM     24  N   UNL     1      41.646  17.731 123.832 -0.32 -0.00    +0.000 N 
DOCKED: ATOM     25  C   UNL     1      41.304  16.694 123.049 -0.34 -0.00    +0.000 A 
DOCKED: ATOM     26  C   UNL     1      40.340  17.056 122.141 -0.18 -0.00    +0.000 A 
DOCKED: ATOM     27  C   UNL     1      39.842  16.154 121.200 -0.19 -0.00    +0.000 A 
DOCKED: ATOM     28  C   UNL     1      40.352  14.843 121.211 -0.11 -0.00    +0.000 A 
DOCKED: ATOM     29  C   UNL     1      41.340  14.469 122.149 -0.22 -0.00    +0.000 A 
DOCKED: ATOM     30  C   UNL     1      41.828  15.402 123.082 -0.40 +0.00    +0.000 A 
DOCKED: ATOM     31  C   UNL     1      40.956  20.138 124.025 -0.10 -0.00    +0.000 C 
DOCKED: ATOM     32  H   UNL     1      42.307  17.732 124.562 -0.58 -0.00    +0.000 HD
DOCKED: ATOM     33  CM  UNL     1      40.872  17.729 122.989 +0.00 -0.00    +0.000 AC
DOCKED: ATOM     34  CM  UNL     1      40.835  15.770 122.139 +0.00 -0.00    +0.000 AC
DOCKED: ENDBRANCH  20  21
DOCKED: ENDBRANCH  19  20
DOCKED: ENDBRANCH   1  19
DOCKED: TORSDOF 8DOCKED: TER
DOCKED: ENDMDL
________________________________________________________________________________


	BEGINNING GENETIC ALGORITHM DOCKING 100 of 100
Run: 100 Seed: 924077108 2096286493 [ Run 100 of 100 GA/GALS ]
Beginning LAMARCKIAN GENETIC ALGORITHM (LGA), with a maximum of 2500000 energy evaluations.

Final-Value: -15.327


	FINAL GENETIC ALGORITHM DOCKED STATE
	_______________________________________________


Detailed state:  trans 35.963 16.895 122.819 quatxyzw 0.492239 -0.428713 0.491696 0.576317 center 0.698 0.076 -0.072 ntor 8 23.1280 4.4305 110.2966 -2.7662 -156.5632 -162.9412 -149.6945 6.2918
State:	 35.963  16.895 122.819   0.602 -0.525  0.602 109.616     23.13    4.43  110.30   -2.77 -156.56 -162.94 -149.69    6.29

DOCKED: MODEL      100
DOCKED: USER    Run = 100
DOCKED: USER    DPF = ligand_dock.biased.dpf
DOCKED: USER  
DOCKED: USER    Estimated Free Energy of Binding    =  -10.77 kcal/mol  [=(1)+(2)+(3)-(4)]
DOCKED: USER    Estimated Inhibition Constant, Ki   =   12.71 nM (nanomolar)  [Temperature = 298.15 K]
DOCKED: USER    
DOCKED: USER    (1) Final Intermolecular Energy     =  -13.16 kcal/mol
DOCKED: USER        vdW + Hbond + desolv Energy     =  -13.16 kcal/mol
DOCKED: USER        Electrostatic Energy            =   +0.00 kcal/mol
DOCKED: USER    (2) Final Total Internal Energy     =   -2.17 kcal/mol
DOCKED: USER    (3) Torsional Free Energy           =   +2.39 kcal/mol
DOCKED: USER    (4) Unbound System's Energy  [=(2)] =   -2.17 kcal/mol
DOCKED: USER    
DOCKED: USER    
DOCKED: USER    NEWDPF move ligand.dum.pdbqt
DOCKED: USER    NEWDPF about 0.698000 0.076000 -0.072000
DOCKED: USER    NEWDPF tran0 35.963211 16.894785 122.819242
DOCKED: USER    NEWDPF quaternion0 0.492239 -0.428713 0.491696 0.576317
DOCKED: USER    NEWDPF axisangle0 0.602329 -0.524595 0.601664 109.616159
DOCKED: USER    NEWDPF quat0 0.602329 -0.524595 0.601664 109.616159
DOCKED: USER    NEWDPF dihe0 23.13 4.43 110.30 -2.77 -156.56 -162.94 -149.69 6.29 
DOCKED: USER  keepresnum = 1 
DOCKED: USER  
DOCKED: REMARK  Name = 
DOCKED: REMARK  9 active torsions:
DOCKED: REMARK  status: ('A' for Active; 'I' for Inactive)
DOCKED: REMARK    1  A    between atoms: C_2  and  C_3
DOCKED: REMARK    2  A    between atoms: C_4  and  C_5
DOCKED: REMARK    3  A    between atoms: C_8  and  C_9
DOCKED: REMARK    4  A    between atoms: C_9  and  N_10
DOCKED: REMARK    5  A    between atoms: N_10  and  C_11
DOCKED: REMARK    6  A    between atoms: C_11  and  C_12
DOCKED: REMARK    7  A    between atoms: C_12  and  C_13
DOCKED: REMARK    8  A    between atoms: C_14  and  C_22
DOCKED: REMARK    9  A    between atoms: N_25  and  O_26
DOCKED: REMARK                            x       y       z     vdW  Elec       q    Type
DOCKED: REMARK                         _______ _______ _______ _____ _____    ______ ____
DOCKED: USER                              x       y       z     vdW  Elec       q    Type
DOCKED: USER                           _______ _______ _______ _____ _____    ______ ____
DOCKED: ROOT
DOCKED: ATOM      1  N   UNL     1      35.675  17.859 122.226 -0.24 -0.00    +0.000 N 
DOCKED: ATOM      2  H   UNL     1      34.682  17.635 122.290 -0.02 -0.00    +0.000 HD
DOCKED: ATOM      3  H   UNL     1      36.110  17.391 121.431 +0.00 -0.00    +0.000 HD
DOCKED: ENDROOT
DOCKED: BRANCH   1   4
DOCKED: ATOM      4  C   UNL     1      36.345  17.390 123.446 -0.27 -0.00    +0.000 C 
DOCKED: BRANCH   4   8
DOCKED: ATOM      5  C   UNL     1      36.808  13.089 123.378 -0.55 -0.00    +0.000 A 
DOCKED: ATOM      6  C   UNL     1      35.578  13.673 123.742 -0.44 -0.00    +0.000 A 
DOCKED: ATOM      7  C   UNL     1      35.430  15.063 123.757 -0.48 -0.00    +0.000 A 
DOCKED: ATOM      8  C   UNL     1      36.497  15.896 123.390 -0.34 -0.00    +0.000 A 
DOCKED: ATOM      9  C   UNL     1      37.723  15.320 123.025 -0.34 -0.00    +0.000 A 
DOCKED: ATOM     10  C   UNL     1      37.871  13.930 123.007 -0.45 -0.00    +0.000 A 
DOCKED: ATOM     11  CM  UNL     1      36.651  14.495 123.384 +0.00 -0.00    +0.000 AC
DOCKED: BRANCH   5  12
DOCKED: ATOM     12  C   UNL     1      36.753  10.865 122.256 -0.63 -0.00    +0.000 C 
DOCKED: ATOM     13  C   UNL     1      37.015  11.621 123.333 -0.67 -0.00    +0.000 C 
DOCKED: BRANCH  11  14
DOCKED: ATOM     14  O   UNL     1      37.067   8.842 121.094 -2.70 -0.00    +0.000 OA
DOCKED: ATOM     15  C   UNL     1      36.959   9.402 122.216 -0.65 -0.00    +0.000 C 
DOCKED: ATOM     16  N   UNL     1      37.013   8.601 123.405 -0.66 -0.00    +0.000 N 
DOCKED: ATOM     17  H   UNL     1      36.834   9.011 124.282 -0.45 -0.00    +0.000 HD
DOCKED: BRANCH  15  17
DOCKED: ATOM     18  O   UNL     1      37.309   7.282 123.324 -1.95 -0.00    +0.000 OA
DOCKED: ATOM     19  H   UNL     1      37.800   7.110 122.505 -0.37 -0.00    +0.000 HD
DOCKED: ENDBRANCH  15  17
DOCKED: ENDBRANCH  11  14
DOCKED: ENDBRANCH   5  12
DOCKED: ENDBRANCH   4   8
DOCKED: ENDBRANCH   1   4
DOCKED: BRANCH   1  19
DOCKED: ATOM     20  C   UNL     1      35.822  19.310 122.033 -0.18 -0.00    +0.000 C 
DOCKED: BRANCH  19  20
DOCKED: ATOM     21  C   UNL     1      36.230  19.672 120.595 -0.12 -0.00    +0.000 C 
DOCKED: BRANCH  20  21
DOCKED: ATOM     22  C   UNL     1      35.746  18.623 119.636 -0.15 -0.00    +0.000 A 
DOCKED: ATOM     23  C   UNL     1      34.515  18.574 118.978 -0.20 -0.00    +0.000 A 
DOCKED: ATOM     24  N   UNL     1      34.409  17.442 118.245 -0.16 -0.00    +0.000 N 
DOCKED: ATOM     25  C   UNL     1      35.551  16.763 118.450 -0.12 -0.00    +0.000 A 
DOCKED: ATOM     26  C   UNL     1      36.388  17.447 119.297 -0.12 -0.00    +0.000 A 
DOCKED: ATOM     27  C   UNL     1      37.625  16.930 119.682 -0.10 -0.00    +0.000 A 
DOCKED: ATOM     28  C   UNL     1      38.003  15.677 119.166 -0.16 -0.00    +0.000 A 
DOCKED: ATOM     29  C   UNL     1      37.145  14.975 118.291 -0.23 -0.00    +0.000 A 
DOCKED: ATOM     30  C   UNL     1      35.900  15.519 117.925 -0.19 -0.00    +0.000 A 
DOCKED: ATOM     31  C   UNL     1      33.454  19.627 119.033 -0.23 -0.00    +0.000 C 
DOCKED: ATOM     32  H   UNL     1      33.651  17.171 117.678 -0.01 -0.00    +0.000 HD
DOCKED: ATOM     33  CM  UNL     1      35.293  17.760 118.900 +0.00 -0.00    +0.000 AC
DOCKED: ATOM     34  CM  UNL     1      36.768  16.219 118.801 +0.00 -0.00    +0.000 AC
DOCKED: ENDBRANCH  20  21
DOCKED: ENDBRANCH  19  20
DOCKED: ENDBRANCH   1  19
DOCKED: TORSDOF 8DOCKED: TER
DOCKED: ENDMDL
________________________________________________________________________________

DPF> analysis                             # perform a ranked cluster analysis


		CLUSTER ANALYSIS OF CONFORMATIONS
		_________________________________

Number of conformations = 100

RMSD cluster analysis will be performed using the ligand atoms only (34 / 34 total atoms).

Outputting structurally similar clusters, ranked in order of increasing energy.


________________________________________________________________________________

Number of distinct conformational clusters found = 14,  out of 100 runs,
Using an rmsd-tolerance of 2.0 A


	CLUSTERING HISTOGRAM
	____________________

________________________________________________________________________________
     |           |     |           |     |                                    
Clus | Lowest    | Run | Mean      | Num | Histogram                          
-ter | Binding   |     | Binding   | in  |                                    
Rank | Energy    |     | Energy    | Clus|    5    10   15   20   25   30   35
_____|___________|_____|___________|_____|____:____|____:____|____:____|____:___
   1 |    -12.25 |  30 |    -11.35 |  29 |#############################
   2 |    -12.02 |  81 |    -11.47 |  10 |##########
   3 |    -11.95 |  79 |    -11.21 |  11 |###########
   4 |    -11.78 |  58 |    -11.35 |   5 |#####
   5 |    -11.68 |  61 |    -10.82 |  18 |##################
   6 |    -11.55 |  21 |    -11.01 |   7 |#######
   7 |    -11.38 |  37 |    -10.59 |  10 |##########
   8 |    -11.21 |  72 |    -10.76 |   3 |###
   9 |    -10.82 |  44 |    -10.82 |   1 |#
  10 |    -10.61 |  19 |    -10.61 |   1 |#
  11 |    -10.39 |  86 |    -10.39 |   1 |#
  12 |    -10.39 |  82 |    -10.39 |   1 |#
  13 |    -10.25 |   2 |    -10.03 |   2 |##
  14 |    -10.12 |  57 |    -10.12 |   1 |#
_____|___________|_____|___________|_____|______________________________________


Number of multi-member conformational clusters found = 9, out of 100 runs.

	RMSD TABLE
	__________

_____________________________________________________________________
     |      |      |           |         |                 |
Rank | Sub- | Run  | Binding   | Cluster | Reference       | Grep
     | Rank |      | Energy    | RMSD    | RMSD            | Pattern
_____|______|______|___________|_________|_________________|___________
   1      1     30      -12.25      0.00    129.60           RANKING
   1      2     38      -11.99      1.78    128.29           RANKING
   1      3     17      -11.80      1.87    128.40           RANKING
   1      4     15      -11.80      1.78    128.29           RANKING
   1      5     42      -11.79      1.79    128.57           RANKING
   1      6     55      -11.76      1.75    128.60           RANKING
   1      7     77      -11.71      1.89    128.53           RANKING
   1      8     16      -11.69      1.31    129.91           RANKING
   1      9      3      -11.67      0.91    129.79           RANKING
   1     10     62      -11.65      1.56    130.18           RANKING
   1     11     46      -11.55      0.96    129.86           RANKING
   1     12     18      -11.51      0.97    129.65           RANKING
   1     13     93      -11.50      1.23    129.17           RANKING
   1     14     51      -11.43      1.29    129.87           RANKING
   1     15     80      -11.43      1.61    130.13           RANKING
   1     16     84      -11.40      0.86    129.59           RANKING
   1     17     92      -11.24      1.91    128.12           RANKING
   1     18     53      -11.19      1.98    128.26           RANKING
   1     19     34      -11.14      1.84    130.19           RANKING
   1     20     65      -11.10      1.76    128.33           RANKING
   1     21     78      -11.02      1.93    128.46           RANKING
   1     22     13      -11.01      1.99    128.24           RANKING
   1     23     66      -10.95      1.23    129.06           RANKING
   1     24     40      -10.93      1.82    128.21           RANKING
   1     25      4      -10.91      1.73    128.36           RANKING
   1     26     23      -10.90      1.87    128.63           RANKING
   1     27     14      -10.82      1.57    129.97           RANKING
   1     28     47      -10.67      1.97    127.98           RANKING
   1     29     39      -10.33      1.97    130.27           RANKING
   2      1     81      -12.02      0.00    129.27           RANKING
   2      2     26      -11.79      1.91    128.74           RANKING
   2      3     22      -11.78      1.88    128.64           RANKING
   2      4     59      -11.55      2.00    128.12           RANKING
   2      5     75      -11.51      0.83    129.37           RANKING
   2      6     33      -11.45      1.99    128.49           RANKING
   2      7     28      -11.35      1.40    129.29           RANKING
   2      8     89      -11.24      1.87    128.29           RANKING
   2      9     60      -11.10      1.36    129.08           RANKING
   2     10     50      -10.93      1.98    128.41           RANKING
   3      1     79      -11.95      0.00    128.51           RANKING
   3      2     87      -11.93      0.90    128.18           RANKING
   3      3     20      -11.86      1.62    128.07           RANKING
   3      4      9      -11.49      1.20    128.17           RANKING
   3      5     71      -11.21      1.48    127.71           RANKING
   3      6      1      -11.07      1.21    127.86           RANKING
   3      7     70      -11.03      1.54    127.96           RANKING
   3      8     12      -10.89      1.67    127.83           RANKING
   3      9      5      -10.85      1.90    127.88           RANKING
   3     10     99      -10.84      1.27    128.05           RANKING
   3     11     31      -10.22      1.67    127.59           RANKING
   4      1     58      -11.78      0.00    130.16           RANKING
   4      2      6      -11.40      1.92    128.59           RANKING
   4      3     97      -11.35      1.94    128.39           RANKING
   4      4     49      -11.27      1.93    128.41           RANKING
   4      5     85      -10.97      0.85    129.75           RANKING
   5      1     61      -11.68      0.00    127.35           RANKING
   5      2      8      -11.51      1.08    127.84           RANKING
   5      3     74      -11.17      1.45    128.04           RANKING
   5      4     36      -11.08      1.36    128.04           RANKING
   5      5     43      -11.08      1.60    128.05           RANKING
   5      6     69      -10.98      1.72    127.62           RANKING
   5      7     45      -10.96      1.75    127.79           RANKING
   5      8     95      -10.96      1.85    126.03           RANKING
   5      9     27      -10.95      1.60    127.40           RANKING
   5     10     35      -10.94      1.87    128.12           RANKING
   5     11     88      -10.87      1.99    126.43           RANKING
   5     12     98      -10.65      1.79    127.55           RANKING
   5     13     73      -10.63      1.94    128.12           RANKING
   5     14     56      -10.57      1.81    128.22           RANKING
   5     15     10      -10.54      1.86    127.78           RANKING
   5     16     32      -10.28      1.75    127.59           RANKING
   5     17     96      -10.02      1.90    126.54           RANKING
   5     18     90       -9.93      1.98    126.02           RANKING
   6      1     21      -11.55      0.00    125.89           RANKING
   6      2     68      -11.34      0.90    125.45           RANKING
   6      3     91      -11.18      0.90    125.66           RANKING
   6      4     64      -11.06      1.76    125.08           RANKING
   6      5     94      -11.00      1.97    124.85           RANKING
   6      6     29      -10.49      1.98    125.63           RANKING
   6      7     48      -10.46      1.89    126.89           RANKING
   7      1     37      -11.38      0.00    125.55           RANKING
   7      2     25      -11.07      1.18    126.36           RANKING
   7      3     67      -11.01      1.92    125.53           RANKING
   7      4     24      -10.87      1.92    127.02           RANKING
   7      5    100      -10.77      1.96    125.81           RANKING
   7      6     83      -10.53      1.71    126.85           RANKING
   7      7     52      -10.39      1.47    126.79           RANKING
   7      8      7      -10.30      1.85    125.71           RANKING
   7      9     54       -9.97      1.66    125.87           RANKING
   7     10     11       -9.63      1.82    124.76           RANKING
   8      1     72      -11.21      0.00    128.32           RANKING
   8      2     41      -10.67      0.59    128.13           RANKING
   8      3     76      -10.40      1.47    127.65           RANKING
   9      1     44      -10.82      0.00    129.05           RANKING
  10      1     19      -10.61      0.00    127.71           RANKING
  11      1     86      -10.39      0.00    127.43           RANKING
  12      1     82      -10.39      0.00    127.46           RANKING
  13      1      2      -10.25      0.00    128.07           RANKING
  13      2     63       -9.80      0.58    128.13           RANKING
  14      1     57      -10.12      0.00    124.91           RANKING
_______________________________________________________________________



	INFORMATION ENTROPY ANALYSIS FOR THIS CLUSTERING
	________________________________________________


Information entropy for this clustering = 0.46  (rmstol = 2.00 Angstrom)

_______________________________________________________________________


	STATISTICAL MECHANICAL ANALYSIS
	_______________________________


Partition function, Q =   101.89            at Temperature, T = 298.15 K
Free energy,        A ~ -2739.54 kcal/mol   at Temperature, T = 298.15 K
Internal energy,    U =   -11.06 kcal/mol   at Temperature, T = 298.15 K
Entropy,            S =     9.15 kcal/mol/K at Temperature, T = 298.15 K

_______________________________________________________________________


	LOWEST ENERGY DOCKED CONFORMATION from EACH CLUSTER
	___________________________________________________



Keeping original residue number (specified in the input PDBQ file) for outputting.

MODEL       30
USER    Run = 30
USER    Cluster Rank = 1
USER    Number of conformations in this cluster = 29
USER  
USER    RMSD from reference structure       = 129.600 A
USER  
USER    Estimated Free Energy of Binding    =  -12.25 kcal/mol  [=(1)+(2)+(3)-(4)]
USER    Estimated Inhibition Constant, Ki   =    1.04 nM (nanomolar)  [Temperature = 298.15 K]
USER    
USER    (1) Final Intermolecular Energy     =  -14.64 kcal/mol
USER        vdW + Hbond + desolv Energy     =  -14.64 kcal/mol
USER        Electrostatic Energy            =   +0.00 kcal/mol
USER    (2) Final Total Internal Energy     =   -1.82 kcal/mol
USER    (3) Torsional Free Energy           =   +2.39 kcal/mol
USER    (4) Unbound System's Energy  [=(2)] =   -1.82 kcal/mol
USER    
USER    
USER  
USER    DPF = ligand_dock.biased.dpf
USER    NEWDPF move	ligand.dum.pdbqt
USER    NEWDPF about	0.698000 0.076000 -0.072000
USER    NEWDPF tran0	35.943162 18.101742 123.003973
USER    NEWDPF axisangle0	-0.010284 -0.956091 -0.292889 118.596922
USER    NEWDPF quaternion0	-0.008842 -0.822084 -0.251837 0.510566
USER    NEWDPF dihe0	2.65 -37.68 -179.56 11.28 35.94 -66.77 149.88 -107.49 
USER  
USER                              x       y       z    vdW   Elec        q     RMS 
ATOM      1  N   UNL     1      36.084  18.243 124.155 -0.22 -0.00    +0.000    129.600
ATOM      2  H   UNL     1      35.261  17.673 124.353 -0.00 -0.00    +0.000    129.600
ATOM      3  H   UNL     1      35.828  19.214 123.977 -0.00 -0.00    +0.000    129.600
ATOM      4  C   UNL     1      36.740  17.721 122.949 -0.21 -0.00    +0.000    129.600
ATOM      5  C   UNL     1      36.620  13.398 123.034 -0.51 -0.00    +0.000    129.600
ATOM      6  C   UNL     1      35.781  14.156 123.876 -0.49 -0.00    +0.000    129.600
ATOM      7  C   UNL     1      35.819  15.553 123.842 -0.42 -0.00    +0.000    129.600
ATOM      8  C   UNL     1      36.676  16.220 122.954 -0.28 -0.00    +0.000    129.600
ATOM      9  C   UNL     1      37.511  15.469 122.112 -0.27 -0.00    +0.000    129.600
ATOM     10  C   UNL     1      37.472  14.072 122.145 -0.40 -0.00    +0.000    129.600
ATOM     11  CM  UNL     1      36.647  14.811 122.994 +0.00 -0.00    +0.000    129.600
ATOM     12  C   UNL     1      37.043  11.176 121.987 -0.55 -0.00    +0.000    129.600
ATOM     13  C   UNL     1      36.611  11.914 123.022 -0.68 -0.00    +0.000    129.600
ATOM     14  O   UNL     1      37.054   9.106 120.867 -2.73 -0.00    +0.000    129.600
ATOM     15  C   UNL     1      37.031   9.698 121.978 -0.60 -0.00    +0.000    129.600
ATOM     16  N   UNL     1      36.967   8.923 123.183 -0.66 -0.00    +0.000    129.600
ATOM     17  H   UNL     1      36.851   9.373 124.051 -0.50 -0.00    +0.000    129.600
ATOM     18  O   UNL     1      37.065   7.573 123.129 -2.27 -0.00    +0.000    129.600
ATOM     19  H   UNL     1      37.216   7.296 122.212 -0.11 -0.00    +0.000    129.600
ATOM     20  C   UNL     1      36.972  18.217 125.327 -0.14 -0.00    +0.000    129.600
ATOM     21  C   UNL     1      38.068  19.294 125.256 -0.15 -0.00    +0.000    129.600
ATOM     22  C   UNL     1      39.372  18.745 125.760 -0.20 -0.00    +0.000    129.600
ATOM     23  C   UNL     1      40.471  18.332 125.003 -0.27 -0.00    +0.000    129.600
ATOM     24  N   UNL     1      41.441  17.831 125.802 -0.33 -0.00    +0.000    129.600
ATOM     25  C   UNL     1      40.958  17.900 127.054 -0.37 -0.00    +0.000    129.600
ATOM     26  C   UNL     1      39.698  18.444 127.069 -0.23 -0.00    +0.000    129.600
ATOM     27  C   UNL     1      38.977  18.596 128.254 -0.20 -0.00    +0.000    129.600
ATOM     28  C   UNL     1      39.586  18.178 129.452 -0.26 -0.00    +0.000    129.600
ATOM     29  C   UNL     1      40.885  17.623 129.437 -0.39 -0.00    +0.000    129.600
ATOM     30  C   UNL     1      41.585  17.477 128.226 -0.47 -0.00    +0.000    129.600
ATOM     31  C   UNL     1      40.600  18.446 123.517 -0.20 -0.00    +0.000    129.600
ATOM     32  H   UNL     1      42.320  17.486 125.523 -0.53 -0.00    +0.000    129.600
ATOM     33  CM  UNL     1      40.421  18.237 126.127 +0.00 -0.00    +0.000    129.600
ATOM     34  CM  UNL     1      40.282  18.036 128.248 +0.00 -0.00    +0.000    129.600
TER
ENDMDL
MODEL       81
USER    Run = 81
USER    Cluster Rank = 2
USER    Number of conformations in this cluster = 10
USER  
USER    RMSD from reference structure       = 129.272 A
USER  
USER    Estimated Free Energy of Binding    =  -12.02 kcal/mol  [=(1)+(2)+(3)-(4)]
USER    Estimated Inhibition Constant, Ki   =    1.56 nM (nanomolar)  [Temperature = 298.15 K]
USER    
USER    (1) Final Intermolecular Energy     =  -14.40 kcal/mol
USER        vdW + Hbond + desolv Energy     =  -14.40 kcal/mol
USER        Electrostatic Energy            =   +0.00 kcal/mol
USER    (2) Final Total Internal Energy     =   -1.52 kcal/mol
USER    (3) Torsional Free Energy           =   +2.39 kcal/mol
USER    (4) Unbound System's Energy  [=(2)] =   -1.52 kcal/mol
USER    
USER    
USER  
USER    DPF = ligand_dock.biased.dpf
USER    NEWDPF move	ligand.dum.pdbqt
USER    NEWDPF about	0.698000 0.076000 -0.072000
USER    NEWDPF tran0	35.369777 16.850725 123.989354
USER    NEWDPF axisangle0	-0.699768 0.699062 0.147097 -153.406502
USER    NEWDPF quaternion0	-0.681008 0.680322 0.143153 -0.229995
USER    NEWDPF dihe0	-6.05 66.12 57.18 -168.77 64.96 -64.87 -44.96 -16.46 
USER  
USER                              x       y       z    vdW   Elec        q     RMS 
ATOM      1  N   UNL     1      34.738  17.605 124.619 -0.35 -0.00    +0.000    129.272
ATOM      2  H   UNL     1      34.836  17.030 125.457 -0.02 -0.00    +0.000    129.272
ATOM      3  H   UNL     1      33.957  17.292 124.044 -0.02 -0.00    +0.000    129.272
ATOM      4  C   UNL     1      35.963  17.485 123.818 -0.30 -0.00    +0.000    129.272
ATOM      5  C   UNL     1      36.854  13.293 123.225 -0.52 -0.00    +0.000    129.272
ATOM      6  C   UNL     1      35.564  13.704 123.618 -0.44 -0.00    +0.000    129.272
ATOM      7  C   UNL     1      35.279  15.060 123.804 -0.49 -0.00    +0.000    129.272
ATOM      8  C   UNL     1      36.265  16.032 123.580 -0.34 -0.00    +0.000    129.272
ATOM      9  C   UNL     1      37.549  15.628 123.186 -0.31 -0.00    +0.000    129.272
ATOM     10  C   UNL     1      37.835  14.272 122.998 -0.42 -0.00    +0.000    129.272
ATOM     11  CM  UNL     1      36.558  14.665 123.402 +0.00 -0.00    +0.000    129.272
ATOM     12  C   UNL     1      36.357  10.961 122.500 -0.68 -0.00    +0.000    129.272
ATOM     13  C   UNL     1      37.207  11.869 123.002 -0.58 -0.00    +0.000    129.272
ATOM     14  O   UNL     1      37.059   9.183 121.127 -2.73 -0.00    +0.000    129.272
ATOM     15  C   UNL     1      36.712   9.543 122.282 -0.71 -0.00    +0.000    129.272
ATOM     16  N   UNL     1      36.650   8.566 123.331 -0.66 -0.00    +0.000    129.272
ATOM     17  H   UNL     1      36.289   8.814 124.212 -0.31 -0.00    +0.000    129.272
ATOM     18  O   UNL     1      37.087   7.303 123.110 -2.11 -0.00    +0.000    129.272
ATOM     19  H   UNL     1      37.319   7.199 122.174 -0.15 -0.00    +0.000    129.272
ATOM     20  C   UNL     1      34.474  18.993 125.026 -0.27 -0.00    +0.000    129.272
ATOM     21  C   UNL     1      34.386  19.150 126.554 -0.23 -0.00    +0.000    129.272
ATOM     22  C   UNL     1      32.978  19.469 126.966 -0.21 -0.00    +0.000    129.272
ATOM     23  C   UNL     1      32.319  20.696 126.865 -0.19 -0.00    +0.000    129.272
ATOM     24  N   UNL     1      31.079  20.618 127.401 -0.24 -0.00    +0.000    129.272
ATOM     25  C   UNL     1      30.955  19.361 127.861 -0.25 -0.00    +0.000    129.272
ATOM     26  C   UNL     1      32.093  18.633 127.621 -0.21 -0.00    +0.000    129.272
ATOM     27  C   UNL     1      32.215  17.304 128.030 -0.34 -0.00    +0.000    129.272
ATOM     28  C   UNL     1      31.123  16.720 128.697 -0.44 -0.00    +0.000    129.272
ATOM     29  C   UNL     1      29.950  17.468 128.940 -0.37 -0.00    +0.000    129.272
ATOM     30  C   UNL     1      29.858  18.808 128.520 -0.34 -0.00    +0.000    129.272
ATOM     31  C   UNL     1      32.869  21.933 126.230 -0.17 -0.00    +0.000    129.272
ATOM     32  H   UNL     1      30.405  21.335 127.445 -0.00 -0.00    +0.000    129.272
ATOM     33  CM  UNL     1      31.859  19.783 127.344 +0.00 -0.00    +0.000    129.272
ATOM     34  CM  UNL     1      31.032  18.050 128.278 +0.00 -0.00    +0.000    129.272
TER
ENDMDL
MODEL       79
USER    Run = 79
USER    Cluster Rank = 3
USER    Number of conformations in this cluster = 11
USER  
USER    RMSD from reference structure       = 128.515 A
USER  
USER    Estimated Free Energy of Binding    =  -11.95 kcal/mol  [=(1)+(2)+(3)-(4)]
USER    Estimated Inhibition Constant, Ki   =    1.73 nM (nanomolar)  [Temperature = 298.15 K]
USER    
USER    (1) Final Intermolecular Energy     =  -14.34 kcal/mol
USER        vdW + Hbond + desolv Energy     =  -14.34 kcal/mol
USER        Electrostatic Energy            =   +0.00 kcal/mol
USER    (2) Final Total Internal Energy     =   -1.98 kcal/mol
USER    (3) Torsional Free Energy           =   +2.39 kcal/mol
USER    (4) Unbound System's Energy  [=(2)] =   -1.98 kcal/mol
USER    
USER    
USER  
USER    DPF = ligand_dock.biased.dpf
USER    NEWDPF move	ligand.dum.pdbqt
USER    NEWDPF about	0.698000 0.076000 -0.072000
USER    NEWDPF tran0	35.758089 17.654631 124.027649
USER    NEWDPF axisangle0	-0.014699 -0.966260 -0.257147 -171.691325
USER    NEWDPF quaternion0	-0.014661 -0.963722 -0.256472 -0.072443
USER    NEWDPF dihe0	10.87 -17.50 -35.64 0.79 -20.12 -168.03 -51.44 -98.37 
USER  
USER                              x       y       z    vdW   Elec        q     RMS 
ATOM      1  N   UNL     1      36.805  18.050 124.362 -0.21 -0.00    +0.000    128.515
ATOM      2  H   UNL     1      36.850  17.369 125.121 -0.02 -0.00    +0.000    128.515
ATOM      3  H   UNL     1      36.299  18.888 124.645 -0.00 -0.00    +0.000    128.515
ATOM      4  C   UNL     1      36.085  17.449 123.231 -0.28 -0.00    +0.000    128.515
ATOM      5  C   UNL     1      36.627  13.158 123.180 -0.54 -0.00    +0.000    128.515
ATOM      6  C   UNL     1      37.574  14.008 122.573 -0.43 -0.00    +0.000    128.515
ATOM      7  C   UNL     1      37.398  15.395 122.597 -0.31 -0.00    +0.000    128.515
ATOM      8  C   UNL     1      36.289  15.960 123.243 -0.34 -0.00    +0.000    128.515
ATOM      9  C   UNL     1      35.346  15.118 123.851 -0.49 -0.00    +0.000    128.515
ATOM     10  C   UNL     1      35.522  13.732 123.829 -0.42 -0.00    +0.000    128.515
ATOM     11  CM  UNL     1      36.459  14.561 123.212 +0.00 -0.00    +0.000    128.515
ATOM     12  C   UNL     1      36.870  10.931 122.087 -0.59 -0.00    +0.000    128.515
ATOM     13  C   UNL     1      36.771  11.681 123.195 -0.69 -0.00    +0.000    128.515
ATOM     14  O   UNL     1      37.068   8.849 121.008 -2.70 -0.00    +0.000    128.515
ATOM     15  C   UNL     1      37.010   9.460 122.107 -0.63 -0.00    +0.000    128.515
ATOM     16  N   UNL     1      37.056   8.709 123.328 -0.66 -0.00    +0.000    128.515
ATOM     17  H   UNL     1      36.915   9.164 124.190 -0.53 -0.00    +0.000    128.515
ATOM     18  O   UNL     1      37.292   7.376 123.298 -2.04 -0.00    +0.000    128.515
ATOM     19  H   UNL     1      37.576   7.117 122.408 -0.25 -0.00    +0.000    128.515
ATOM     20  C   UNL     1      38.174  18.449 124.001 -0.18 -0.00    +0.000    128.515
ATOM     21  C   UNL     1      39.224  17.894 124.978 -0.19 -0.00    +0.000    128.515
ATOM     22  C   UNL     1      40.596  17.981 124.375 -0.27 -0.00    +0.000    128.515
ATOM     23  C   UNL     1      41.521  19.019 124.508 -0.16 -0.00    +0.000    128.515
ATOM     24  N   UNL     1      42.624  18.775 123.764 +0.06 -0.00    +0.000    128.515
ATOM     25  C   UNL     1      42.398  17.605 123.143 -0.28 -0.00    +0.000    128.515
ATOM     26  C   UNL     1      41.171  17.093 123.484 -0.31 -0.00    +0.000    128.515
ATOM     27  C   UNL     1      40.699  15.896 122.945 -0.30 -0.00    +0.000    128.515
ATOM     28  C   UNL     1      41.528  15.212 122.037 -0.41 -0.00    +0.000    128.515
ATOM     29  C   UNL     1      42.793  15.736 121.690 -0.31 -0.00    +0.000    128.515
ATOM     30  C   UNL     1      43.240  16.949 122.245 -0.31 -0.00    +0.000    128.515
ATOM     31  C   UNL     1      41.355  20.229 125.371 -0.14 -0.00    +0.000    128.515
ATOM     32  H   UNL     1      43.428  19.340 123.692 -0.39 -0.00    +0.000    128.515
ATOM     33  CM  UNL     1      41.692  18.117 123.852 +0.00 -0.00    +0.000    128.515
ATOM     34  CM  UNL     1      41.972  16.416 122.591 +0.00 -0.00    +0.000    128.515
TER
ENDMDL
MODEL       58
USER    Run = 58
USER    Cluster Rank = 4
USER    Number of conformations in this cluster = 5
USER  
USER    RMSD from reference structure       = 130.160 A
USER  
USER    Estimated Free Energy of Binding    =  -11.78 kcal/mol  [=(1)+(2)+(3)-(4)]
USER    Estimated Inhibition Constant, Ki   =    2.32 nM (nanomolar)  [Temperature = 298.15 K]
USER    
USER    (1) Final Intermolecular Energy     =  -14.17 kcal/mol
USER        vdW + Hbond + desolv Energy     =  -14.17 kcal/mol
USER        Electrostatic Energy            =   +0.00 kcal/mol
USER    (2) Final Total Internal Energy     =   -1.83 kcal/mol
USER    (3) Torsional Free Energy           =   +2.39 kcal/mol
USER    (4) Unbound System's Energy  [=(2)] =   -1.83 kcal/mol
USER    
USER    
USER  
USER    DPF = ligand_dock.biased.dpf
USER    NEWDPF move	ligand.dum.pdbqt
USER    NEWDPF about	0.698000 0.076000 -0.072000
USER    NEWDPF tran0	35.918457 17.099216 124.766940
USER    NEWDPF axisangle0	-0.925659 0.333407 0.178872 139.531554
USER    NEWDPF quaternion0	-0.868533 0.312832 0.167833 0.345859
USER    NEWDPF dihe0	-4.51 67.04 -148.14 -179.18 124.43 163.77 -77.13 41.89 
USER  
USER                              x       y       z    vdW   Elec        q     RMS 
ATOM      1  N   UNL     1      35.048  17.540 125.409 -0.31 -0.00    +0.000    130.160
ATOM      2  H   UNL     1      35.700  18.106 125.954 -0.01 -0.00    +0.000    130.160
ATOM      3  H   UNL     1      34.970  16.597 125.789 -0.02 -0.00    +0.000    130.160
ATOM      4  C   UNL     1      35.551  17.432 124.033 -0.34 -0.00    +0.000    130.160
ATOM      5  C   UNL     1      36.809  13.381 123.185 -0.52 -0.00    +0.000    130.160
ATOM      6  C   UNL     1      37.749  14.430 123.227 -0.37 -0.00    +0.000    130.160
ATOM      7  C   UNL     1      37.340  15.737 123.507 -0.28 -0.00    +0.000    130.160
ATOM      8  C   UNL     1      35.991  16.019 123.771 -0.37 -0.00    +0.000    130.160
ATOM      9  C   UNL     1      35.052  14.978 123.734 -0.47 -0.00    +0.000    130.160
ATOM     10  C   UNL     1      35.461  13.670 123.456 -0.32 -0.00    +0.000    130.160
ATOM     11  CM  UNL     1      36.400  14.702 123.480 +0.00 -0.00    +0.000    130.160
ATOM     12  C   UNL     1      36.303  10.992 122.686 -0.69 -0.00    +0.000    130.160
ATOM     13  C   UNL     1      37.190  11.974 122.905 -0.59 -0.00    +0.000    130.160
ATOM     14  O   UNL     1      36.739   9.210 121.212 -2.64 -0.00    +0.000    130.160
ATOM     15  C   UNL     1      36.687   9.592 122.410 -0.71 -0.00    +0.000    130.160
ATOM     16  N   UNL     1      36.976   8.654 123.457 -0.64 -0.00    +0.000    130.160
ATOM     17  H   UNL     1      36.845   8.913 124.397 -0.42 -0.00    +0.000    130.160
ATOM     18  O   UNL     1      37.426   7.413 123.153 -1.99 -0.00    +0.000    130.160
ATOM     19  H   UNL     1      37.431   7.297 122.190 -0.15 -0.00    +0.000    130.160
ATOM     20  C   UNL     1      33.717  18.163 125.467 -0.38 -0.00    +0.000    130.160
ATOM     21  C   UNL     1      33.449  18.851 126.816 -0.27 -0.00    +0.000    130.160
ATOM     22  C   UNL     1      33.728  17.904 127.948 -0.23 -0.00    +0.000    130.160
ATOM     23  C   UNL     1      32.849  16.986 128.526 -0.34 -0.00    +0.000    130.160
ATOM     24  N   UNL     1      33.435  16.354 129.569 -0.27 -0.00    +0.000    130.160
ATOM     25  C   UNL     1      34.667  16.879 129.672 -0.16 -0.00    +0.000    130.160
ATOM     26  C   UNL     1      34.881  17.832 128.707 -0.11 -0.00    +0.000    130.160
ATOM     27  C   UNL     1      36.081  18.539 128.626 -0.10 -0.00    +0.000    130.160
ATOM     28  C   UNL     1      37.084  18.241 129.566 -0.14 -0.00    +0.000    130.160
ATOM     29  C   UNL     1      36.866  17.257 130.557 -0.18 -0.00    +0.000    130.160
ATOM     30  C   UNL     1      35.643  16.564 130.617 -0.20 -0.00    +0.000    130.160
ATOM     31  C   UNL     1      31.458  16.696 128.059 -0.40 -0.00    +0.000    130.160
ATOM     32  H   UNL     1      33.039  15.652 130.136 -0.54 -0.00    +0.000    130.160
ATOM     33  CM  UNL     1      33.896  17.164 128.906 +0.00 -0.00    +0.000    130.160
ATOM     34  CM  UNL     1      35.870  17.552 129.624 +0.00 -0.00    +0.000    130.160
TER
ENDMDL
MODEL       61
USER    Run = 61
USER    Cluster Rank = 5
USER    Number of conformations in this cluster = 18
USER  
USER    RMSD from reference structure       = 127.347 A
USER  
USER    Estimated Free Energy of Binding    =  -11.68 kcal/mol  [=(1)+(2)+(3)-(4)]
USER    Estimated Inhibition Constant, Ki   =    2.76 nM (nanomolar)  [Temperature = 298.15 K]
USER    
USER    (1) Final Intermolecular Energy     =  -14.06 kcal/mol
USER        vdW + Hbond + desolv Energy     =  -14.06 kcal/mol
USER        Electrostatic Energy            =   +0.00 kcal/mol
USER    (2) Final Total Internal Energy     =   -1.83 kcal/mol
USER    (3) Torsional Free Energy           =   +2.39 kcal/mol
USER    (4) Unbound System's Energy  [=(2)] =   -1.83 kcal/mol
USER    
USER    
USER  
USER    DPF = ligand_dock.biased.dpf
USER    NEWDPF move	ligand.dum.pdbqt
USER    NEWDPF about	0.698000 0.076000 -0.072000
USER    NEWDPF tran0	37.580069 18.211426 119.819990
USER    NEWDPF axisangle0	0.553636 0.707344 0.439490 -66.159232
USER    NEWDPF quaternion0	0.302177 0.386071 0.239875 -0.837913
USER    NEWDPF dihe0	17.11 132.50 76.53 -40.27 -20.08 -172.54 -180.00 -169.61 
USER  
USER                              x       y       z    vdW   Elec        q     RMS 
ATOM      1  N   UNL     1      36.721  18.061 120.596 -0.11 -0.00    +0.000    127.347
ATOM      2  H   UNL     1      36.012  18.276 119.895 +0.00 -0.00    +0.000    127.347
ATOM      3  H   UNL     1      37.084  18.909 121.029 +0.00 -0.00    +0.000    127.347
ATOM      4  C   UNL     1      37.841  17.374 119.940 -0.09 -0.00    +0.000    127.347
ATOM      5  C   UNL     1      37.611  13.104 120.591 -0.42 -0.00    +0.000    127.347
ATOM      6  C   UNL     1      38.312  13.930 121.492 -0.37 -0.00    +0.000    127.347
ATOM      7  C   UNL     1      38.379  15.311 121.282 -0.25 -0.00    +0.000    127.347
ATOM      8  C   UNL     1      37.733  15.895 120.183 -0.17 -0.00    +0.000    127.347
ATOM      9  C   UNL     1      37.032  15.077 119.284 -0.22 -0.00    +0.000    127.347
ATOM     10  C   UNL     1      36.962  13.697 119.495 -0.33 -0.00    +0.000    127.347
ATOM     11  CM  UNL     1      37.672  14.502 120.388 +0.00 -0.00    +0.000    127.347
ATOM     12  C   UNL     1      37.043  11.058 121.896 -0.54 -0.00    +0.000    127.347
ATOM     13  C   UNL     1      37.498  11.636 120.774 -0.45 -0.00    +0.000    127.347
ATOM     14  O   UNL     1      36.691   8.885 121.064 -2.61 -0.00    +0.000    127.347
ATOM     15  C   UNL     1      36.934   9.595 122.074 -0.64 -0.00    +0.000    127.347
ATOM     16  N   UNL     1      37.070   8.965 123.356 -0.61 -0.00    +0.000    127.347
ATOM     17  H   UNL     1      37.164   9.516 124.166 -0.58 -0.00    +0.000    127.347
ATOM     18  O   UNL     1      37.068   7.614 123.453 -2.24 -0.00    +0.000    127.347
ATOM     19  H   UNL     1      37.239   7.226 122.581 -0.14 -0.00    +0.000    127.347
ATOM     20  C   UNL     1      36.108  17.240 121.653 -0.23 -0.00    +0.000    127.347
ATOM     21  C   UNL     1      36.530  17.689 123.062 -0.23 -0.00    +0.000    127.347
ATOM     22  C   UNL     1      35.605  17.108 124.093 -0.32 -0.00    +0.000    127.347
ATOM     23  C   UNL     1      35.234  15.770 124.246 -0.46 -0.00    +0.000    127.347
ATOM     24  N   UNL     1      34.329  15.636 125.243 -0.53 -0.00    +0.000    127.347
ATOM     25  C   UNL     1      34.107  16.877 125.707 -0.39 -0.00    +0.000    127.347
ATOM     26  C   UNL     1      34.860  17.802 125.028 -0.32 -0.00    +0.000    127.347
ATOM     27  C   UNL     1      34.781  19.166 125.312 -0.22 -0.00    +0.000    127.347
ATOM     28  C   UNL     1      33.905  19.574 126.334 -0.20 -0.00    +0.000    127.347
ATOM     29  C   UNL     1      33.133  18.622 127.038 -0.24 -0.00    +0.000    127.347
ATOM     30  C   UNL     1      33.230  17.254 126.724 -0.29 -0.00    +0.000    127.347
ATOM     31  C   UNL     1      35.769  14.620 123.454 -0.51 -0.00    +0.000    127.347
ATOM     32  H   UNL     1      33.919  14.800 125.563 -0.03 -0.00    +0.000    127.347
ATOM     33  CM  UNL     1      34.811  16.606 124.875 -0.19 -0.00    +0.000    127.347
ATOM     34  CM  UNL     1      34.002  18.215 126.024 -0.13 -0.00    +0.000    127.347
TER
ENDMDL
MODEL       21
USER    Run = 21
USER    Cluster Rank = 6
USER    Number of conformations in this cluster = 7
USER  
USER    RMSD from reference structure       = 125.888 A
USER  
USER    Estimated Free Energy of Binding    =  -11.55 kcal/mol  [=(1)+(2)+(3)-(4)]
USER    Estimated Inhibition Constant, Ki   =    3.42 nM (nanomolar)  [Temperature = 298.15 K]
USER    
USER    (1) Final Intermolecular Energy     =  -13.94 kcal/mol
USER        vdW + Hbond + desolv Energy     =  -13.94 kcal/mol
USER        Electrostatic Energy            =   +0.00 kcal/mol
USER    (2) Final Total Internal Energy     =   -1.56 kcal/mol
USER    (3) Torsional Free Energy           =   +2.39 kcal/mol
USER    (4) Unbound System's Energy  [=(2)] =   -1.56 kcal/mol
USER    
USER    
USER  
USER    DPF = ligand_dock.biased.dpf
USER    NEWDPF move	ligand.dum.pdbqt
USER    NEWDPF about	0.698000 0.076000 -0.072000
USER    NEWDPF tran0	36.042831 18.177747 123.867211
USER    NEWDPF axisangle0	0.402393 -0.617878 0.675505 -131.619520
USER    NEWDPF quaternion0	0.367059 -0.563622 0.616189 -0.409768
USER    NEWDPF dihe0	10.62 -68.59 -180.00 -57.20 -92.00 -155.43 -154.61 117.05 
USER  
USER                              x       y       z    vdW   Elec        q     RMS 
ATOM      1  N   UNL     1      35.907  18.299 122.713 -0.21 -0.00    +0.000    125.888
ATOM      2  H   UNL     1      36.084  19.302 122.770 -0.00 -0.00    +0.000    125.888
ATOM      3  H   UNL     1      34.927  18.085 122.897 -0.01 -0.00    +0.000    125.888
ATOM      4  C   UNL     1      36.715  17.618 123.733 -0.25 -0.00    +0.000    125.888
ATOM      5  C   UNL     1      36.366  13.324 123.339 -0.53 -0.00    +0.000    125.888
ATOM      6  C   UNL     1      35.296  14.088 123.847 -0.40 -0.00    +0.000    125.888
ATOM      7  C   UNL     1      35.410  15.476 123.968 -0.46 -0.00    +0.000    125.888
ATOM      8  C   UNL     1      36.583  16.130 123.565 -0.31 -0.00    +0.000    125.888
ATOM      9  C   UNL     1      37.651  15.375 123.056 -0.33 -0.00    +0.000    125.888
ATOM     10  C   UNL     1      37.536  13.987 122.933 -0.45 -0.00    +0.000    125.888
ATOM     11  CM  UNL     1      36.474  14.730 123.452 +0.00 -0.00    +0.000    125.888
ATOM     12  C   UNL     1      37.065  11.156 122.329 -0.57 -0.00    +0.000    125.888
ATOM     13  C   UNL     1      36.293  11.851 123.178 -0.69 -0.00    +0.000    125.888
ATOM     14  O   UNL     1      36.840   9.218 121.012 -2.65 -0.00    +0.000    125.888
ATOM     15  C   UNL     1      36.987   9.689 122.170 -0.62 -0.00    +0.000    125.888
ATOM     16  N   UNL     1      37.048   8.791 123.287 -0.65 -0.00    +0.000    125.888
ATOM     17  H   UNL     1      37.065   9.149 124.204 -0.57 -0.00    +0.000    125.888
ATOM     18  O   UNL     1      37.079   7.452 123.083 -2.21 -0.00    +0.000    125.888
ATOM     19  H   UNL     1      37.225   7.271 122.142 -0.11 -0.00    +0.000    125.888
ATOM     20  C   UNL     1      36.223  17.837 121.353 -0.20 -0.00    +0.000    125.888
ATOM     21  C   UNL     1      34.969  17.415 120.570 -0.13 -0.00    +0.000    125.888
ATOM     22  C   UNL     1      34.427  18.577 119.787 -0.25 -0.00    +0.000    125.888
ATOM     23  C   UNL     1      35.152  19.602 119.175 -0.15 -0.00    +0.000    125.888
ATOM     24  N   UNL     1      34.318  20.511 118.619 -0.14 -0.00    +0.000    125.888
ATOM     25  C   UNL     1      33.073  20.084 118.894 -0.17 -0.00    +0.000    125.888
ATOM     26  C   UNL     1      33.099  18.913 119.609 -0.31 -0.00    +0.000    125.888
ATOM     27  C   UNL     1      31.927  18.287 120.035 -0.44 -0.00    +0.000    125.888
ATOM     28  C   UNL     1      30.700  18.890 119.700 -0.43 -0.00    +0.000    125.888
ATOM     29  C   UNL     1      30.674  20.093 118.959 -0.33 -0.00    +0.000    125.888
ATOM     30  C   UNL     1      31.873  20.704 118.548 -0.21 -0.00    +0.000    125.888
ATOM     31  C   UNL     1      36.643  19.693 119.100 -0.09 -0.00    +0.000    125.888
ATOM     32  H   UNL     1      34.571  21.319 118.117 -0.04 -0.00    +0.000    125.888
ATOM     33  CM  UNL     1      34.024  19.569 119.198 +0.00 -0.00    +0.000    125.888
ATOM     34  CM  UNL     1      31.891  19.496 119.291 +0.00 -0.00    +0.000    125.888
TER
ENDMDL
MODEL       37
USER    Run = 37
USER    Cluster Rank = 7
USER    Number of conformations in this cluster = 10
USER  
USER    RMSD from reference structure       = 125.554 A
USER  
USER    Estimated Free Energy of Binding    =  -11.38 kcal/mol  [=(1)+(2)+(3)-(4)]
USER    Estimated Inhibition Constant, Ki   =    4.54 nM (nanomolar)  [Temperature = 298.15 K]
USER    
USER    (1) Final Intermolecular Energy     =  -13.77 kcal/mol
USER        vdW + Hbond + desolv Energy     =  -13.77 kcal/mol
USER        Electrostatic Energy            =   +0.00 kcal/mol
USER    (2) Final Total Internal Energy     =   -2.11 kcal/mol
USER    (3) Torsional Free Energy           =   +2.39 kcal/mol
USER    (4) Unbound System's Energy  [=(2)] =   -2.11 kcal/mol
USER    
USER    
USER  
USER    DPF = ligand_dock.biased.dpf
USER    NEWDPF move	ligand.dum.pdbqt
USER    NEWDPF about	0.698000 0.076000 -0.072000
USER    NEWDPF tran0	37.543697 17.890302 123.278311
USER    NEWDPF axisangle0	0.438694 0.893856 -0.092562 67.956733
USER    NEWDPF quaternion0	0.245177 0.499558 -0.051731 0.829249
USER    NEWDPF dihe0	46.23 -19.59 126.37 -179.76 -81.09 153.76 -77.45 -115.78 
USER  
USER                              x       y       z    vdW   Elec        q     RMS 
ATOM      1  N   UNL     1      37.340  17.985 122.132 -0.12 -0.00    +0.000    125.554
ATOM      2  H   UNL     1      38.192  17.469 121.910 +0.00 -0.00    +0.000    125.554
ATOM      3  H   UNL     1      37.533  18.977 122.271 +0.00 -0.00    +0.000    125.554
ATOM      4  C   UNL     1      36.779  17.456 123.382 -0.24 -0.00    +0.000    125.554
ATOM      5  C   UNL     1      36.755  13.131 123.321 -0.54 -0.00    +0.000    125.554
ATOM      6  C   UNL     1      35.565  13.852 123.542 -0.44 -0.00    +0.000    125.554
ATOM      7  C   UNL     1      35.575  15.250 123.555 -0.45 -0.00    +0.000    125.554
ATOM      8  C   UNL     1      36.767  15.954 123.328 -0.31 -0.00    +0.000    125.554
ATOM      9  C   UNL     1      37.954  15.241 123.105 -0.32 -0.00    +0.000    125.554
ATOM     10  C   UNL     1      37.944  13.843 123.090 -0.45 -0.00    +0.000    125.554
ATOM     11  CM  UNL     1      36.760  14.545 123.324 +0.00 -0.00    +0.000    125.554
ATOM     12  C   UNL     1      36.894  10.934 122.153 -0.59 -0.00    +0.000    125.554
ATOM     13  C   UNL     1      36.798  11.648 123.285 -0.69 -0.00    +0.000    125.554
ATOM     14  O   UNL     1      36.959   8.882 121.001 -2.68 -0.00    +0.000    125.554
ATOM     15  C   UNL     1      36.934   9.457 122.121 -0.65 -0.00    +0.000    125.554
ATOM     16  N   UNL     1      36.921   8.662 123.315 -0.66 -0.00    +0.000    125.554
ATOM     17  H   UNL     1      36.804   9.095 124.192 -0.49 -0.00    +0.000    125.554
ATOM     18  O   UNL     1      37.066   7.317 123.239 -2.11 -0.00    +0.000    125.554
ATOM     19  H   UNL     1      37.802   7.104 122.645 -0.44 -0.00    +0.000    125.554
ATOM     20  C   UNL     1      36.403  17.860 121.005 -0.18 -0.00    +0.000    125.554
ATOM     21  C   UNL     1      37.123  17.801 119.647 -0.10 -0.00    +0.000    125.554
ATOM     22  C   UNL     1      37.159  16.389 119.137 -0.13 -0.00    +0.000    125.554
ATOM     23  C   UNL     1      38.125  15.415 119.398 -0.18 -0.00    +0.000    125.554
ATOM     24  N   UNL     1      37.858  14.281 118.709 -0.27 -0.00    +0.000    125.554
ATOM     25  C   UNL     1      36.746  14.536 117.998 -0.29 -0.00    +0.000    125.554
ATOM     26  C   UNL     1      36.295  15.811 118.226 -0.17 -0.00    +0.000    125.554
ATOM     27  C   UNL     1      35.167  16.318 117.580 -0.14 -0.00    +0.000    125.554
ATOM     28  C   UNL     1      34.489  15.473 116.681 -0.20 -0.00    +0.000    125.554
ATOM     29  C   UNL     1      34.951  14.158 116.450 -0.30 -0.00    +0.000    125.554
ATOM     30  C   UNL     1      36.096  13.677 117.112 -0.30 -0.00    +0.000    125.554
ATOM     31  C   UNL     1      39.286  15.564 120.328 -0.21 -0.00    +0.000    125.554
ATOM     32  H   UNL     1      38.373  13.442 118.726 -0.12 -0.00    +0.000    125.554
ATOM     33  CM  UNL     1      37.257  15.255 118.694 +0.00 -0.00    +0.000    125.554
ATOM     34  CM  UNL     1      35.624  14.995 117.341 +0.00 -0.00    +0.000    125.554
TER
ENDMDL
MODEL       72
USER    Run = 72
USER    Cluster Rank = 8
USER    Number of conformations in this cluster = 3
USER  
USER    RMSD from reference structure       = 128.324 A
USER  
USER    Estimated Free Energy of Binding    =  -11.21 kcal/mol  [=(1)+(2)+(3)-(4)]
USER    Estimated Inhibition Constant, Ki   =    6.05 nM (nanomolar)  [Temperature = 298.15 K]
USER    
USER    (1) Final Intermolecular Energy     =  -13.60 kcal/mol
USER        vdW + Hbond + desolv Energy     =  -13.60 kcal/mol
USER        Electrostatic Energy            =   +0.00 kcal/mol
USER    (2) Final Total Internal Energy     =   -1.23 kcal/mol
USER    (3) Torsional Free Energy           =   +2.39 kcal/mol
USER    (4) Unbound System's Energy  [=(2)] =   -1.23 kcal/mol
USER    
USER    
USER  
USER    DPF = ligand_dock.biased.dpf
USER    NEWDPF move	ligand.dum.pdbqt
USER    NEWDPF about	0.698000 0.076000 -0.072000
USER    NEWDPF tran0	36.988875 15.042335 122.659654
USER    NEWDPF axisangle0	-0.568988 0.724350 0.389320 143.673343
USER    NEWDPF quaternion0	-0.540636 0.688257 0.369921 0.311727
USER    NEWDPF dihe0	142.24 -156.69 -143.93 -180.00 -120.52 131.04 159.08 -5.15 
USER  
USER                              x       y       z    vdW   Elec        q     RMS 
ATOM      1  N   UNL     1      37.102  16.050 123.240 -0.30 -0.00    +0.000    128.324
ATOM      2  H   UNL     1      38.020  15.777 123.590 -0.02 -0.00    +0.000    128.324
ATOM      3  H   UNL     1      36.356  15.688 123.834 -0.02 -0.00    +0.000    128.324
ATOM      4  C   UNL     1      36.922  15.485 121.896 -0.29 -0.00    +0.000    128.324
ATOM      5  C   UNL     1      36.829  11.165 122.093 -0.53 -0.00    +0.000    128.324
ATOM      6  C   UNL     1      37.379  11.820 120.973 -0.44 -0.00    +0.000    128.324
ATOM      7  C   UNL     1      37.413  13.217 120.916 -0.42 -0.00    +0.000    128.324
ATOM      8  C   UNL     1      36.919  13.985 121.980 -0.33 -0.00    +0.000    128.324
ATOM      9  C   UNL     1      36.372  13.337 123.098 -0.51 -0.00    +0.000    128.324
ATOM     10  C   UNL     1      36.340  11.940 123.157 -0.61 -0.00    +0.000    128.324
ATOM     11  CM  UNL     1      36.875  12.577 122.036 +0.00 -0.00    +0.000    128.324
ATOM     12  C   UNL     1      36.042   9.037 123.125 -0.65 -0.00    +0.000    128.324
ATOM     13  C   UNL     1      36.779   9.686 122.211 -0.67 -0.00    +0.000    128.324
ATOM     14  O   UNL     1      37.067   6.918 123.082 -1.73 -0.00    +0.000    128.324
ATOM     15  C   UNL     1      35.998   7.564 123.240 -0.76 -0.00    +0.000    128.324
ATOM     16  N   UNL     1      34.781   6.850 123.500 -0.71 -0.00    +0.000    128.324
ATOM     17  H   UNL     1      33.924   7.335 123.529 -0.08 -0.00    +0.000    128.324
ATOM     18  O   UNL     1      34.808   5.511 123.702 -0.96 -0.00    +0.000    128.324
ATOM     19  H   UNL     1      34.164   5.274 124.388 -0.64 -0.00    +0.000    128.324
ATOM     20  C   UNL     1      37.010  17.518 123.243 -0.23 -0.00    +0.000    128.324
ATOM     21  C   UNL     1      35.555  18.015 123.274 -0.29 -0.00    +0.000    128.324
ATOM     22  C   UNL     1      34.884  17.585 124.546 -0.34 -0.00    +0.000    128.324
ATOM     23  C   UNL     1      34.202  16.390 124.787 -0.45 -0.00    +0.000    128.324
ATOM     24  N   UNL     1      33.671  16.385 126.032 -0.47 -0.00    +0.000    128.324
ATOM     25  C   UNL     1      33.990  17.574 126.572 -0.32 -0.00    +0.000    128.324
ATOM     26  C   UNL     1      34.722  18.335 125.696 -0.27 -0.00    +0.000    128.324
ATOM     27  C   UNL     1      35.150  19.623 126.021 -0.17 -0.00    +0.000    128.324
ATOM     28  C   UNL     1      34.813  20.125 127.292 -0.10 -0.00    +0.000    128.324
ATOM     29  C   UNL     1      34.064  19.340 128.196 -0.10 -0.00    +0.000    128.324
ATOM     30  C   UNL     1      33.642  18.046 127.837 -0.22 -0.00    +0.000    128.324
ATOM     31  C   UNL     1      34.084  15.245 123.833 -0.57 -0.00    +0.000    128.324
ATOM     32  H   UNL     1      33.156  15.659 126.454 -0.13 -0.00    +0.000    128.324
ATOM     33  CM  UNL     1      34.274  17.226 125.542 -0.25 -0.00    +0.000    128.324
ATOM     34  CM  UNL     1      34.397  18.840 126.936 -0.02 -0.00    +0.000    128.324
TER
ENDMDL
MODEL       44
USER    Run = 44
USER    Cluster Rank = 9
USER    Number of conformations in this cluster = 1
USER  
USER    RMSD from reference structure       = 129.048 A
USER  
USER    Estimated Free Energy of Binding    =  -10.82 kcal/mol  [=(1)+(2)+(3)-(4)]
USER    Estimated Inhibition Constant, Ki   =   11.64 nM (nanomolar)  [Temperature = 298.15 K]
USER    
USER    (1) Final Intermolecular Energy     =  -13.21 kcal/mol
USER        vdW + Hbond + desolv Energy     =  -13.21 kcal/mol
USER        Electrostatic Energy            =   +0.00 kcal/mol
USER    (2) Final Total Internal Energy     =   -1.97 kcal/mol
USER    (3) Torsional Free Energy           =   +2.39 kcal/mol
USER    (4) Unbound System's Energy  [=(2)] =   -1.97 kcal/mol
USER    
USER    
USER  
USER    DPF = ligand_dock.biased.dpf
USER    NEWDPF move	ligand.dum.pdbqt
USER    NEWDPF about	0.698000 0.076000 -0.072000
USER    NEWDPF tran0	37.146717 17.098475 123.610327
USER    NEWDPF axisangle0	0.258835 -0.726050 -0.637068 -113.570825
USER    NEWDPF quaternion0	0.216548 -0.607432 -0.532987 -0.547776
USER    NEWDPF dihe0	35.01 -8.36 144.47 -15.37 -165.60 33.24 160.59 -26.02 
USER  
USER                              x       y       z    vdW   Elec        q     RMS 
ATOM      1  N   UNL     1      37.840  18.038 123.651 -0.17 -0.00    +0.000    129.048
ATOM      2  H   UNL     1      38.641  17.495 123.326 -0.00 -0.00    +0.000    129.048
ATOM      3  H   UNL     1      37.729  17.965 124.662 -0.01 -0.00    +0.000    129.048
ATOM      4  C   UNL     1      36.623  17.505 123.024 -0.23 -0.00    +0.000    129.048
ATOM      5  C   UNL     1      36.785  13.186 123.191 -0.53 -0.00    +0.000    129.048
ATOM      6  C   UNL     1      35.787  13.894 123.890 -0.47 -0.00    +0.000    129.048
ATOM      7  C   UNL     1      35.734  15.290 123.829 -0.44 -0.00    +0.000    129.048
ATOM      8  C   UNL     1      36.660  16.003 123.055 -0.31 -0.00    +0.000    129.048
ATOM      9  C   UNL     1      37.654  15.303 122.355 -0.31 -0.00    +0.000    129.048
ATOM     10  C   UNL     1      37.706  13.907 122.413 -0.43 -0.00    +0.000    129.048
ATOM     11  CM  UNL     1      36.721  14.597 123.122 +0.00 -0.00    +0.000    129.048
ATOM     12  C   UNL     1      36.831  10.941 122.108 -0.60 -0.00    +0.000    129.048
ATOM     13  C   UNL     1      36.879  11.705 123.210 -0.68 -0.00    +0.000    129.048
ATOM     14  O   UNL     1      37.016   8.854 121.037 -2.69 -0.00    +0.000    129.048
ATOM     15  C   UNL     1      36.923   9.467 122.133 -0.65 -0.00    +0.000    129.048
ATOM     16  N   UNL     1      36.883   8.715 123.354 -0.64 -0.00    +0.000    129.048
ATOM     17  H   UNL     1      36.714   9.174 124.208 -0.48 -0.00    +0.000    129.048
ATOM     18  O   UNL     1      37.077   7.374 123.334 -2.13 -0.00    +0.000    129.048
ATOM     19  H   UNL     1      37.726   7.151 122.648 -0.38 -0.00    +0.000    129.048
ATOM     20  C   UNL     1      38.061  19.454 123.321 -0.10 -0.00    +0.000    129.048
ATOM     21  C   UNL     1      37.266  20.401 124.236 -0.11 -0.00    +0.000    129.048
ATOM     22  C   UNL     1      36.834  19.682 125.481 -0.12 -0.00    +0.000    129.048
ATOM     23  C   UNL     1      37.618  19.352 126.589 -0.13 -0.00    +0.000    129.048
ATOM     24  N   UNL     1      36.898  18.644 127.490 -0.14 -0.00    +0.000    129.048
ATOM     25  C   UNL     1      35.674  18.503 126.953 -0.09 -0.00    +0.000    129.048
ATOM     26  C   UNL     1      35.598  19.115 125.728 -0.18 -0.00    +0.000    129.048
ATOM     27  C   UNL     1      34.432  19.082 124.962 -0.20 -0.00    +0.000    129.048
ATOM     28  C   UNL     1      33.318  18.404 125.489 -0.26 -0.00    +0.000    129.048
ATOM     29  C   UNL     1      33.394  17.778 126.753 -0.31 -0.00    +0.000    129.048
ATOM     30  C   UNL     1      34.586  17.823 127.500 -0.12 -0.00    +0.000    129.048
ATOM     31  C   UNL     1      39.047  19.740 126.793 -0.14 -0.00    +0.000    129.048
ATOM     32  H   UNL     1      37.208  18.302 128.360 -0.01 -0.00    +0.000    129.048
ATOM     33  CM  UNL     1      36.537  19.046 126.481 -0.00 -0.00    +0.000    129.048
ATOM     34  CM  UNL     1      34.500  18.451 126.232 -0.12 -0.00    +0.000    129.048
TER
ENDMDL
MODEL       19
USER    Run = 19
USER    Cluster Rank = 10
USER    Number of conformations in this cluster = 1
USER  
USER    RMSD from reference structure       = 127.711 A
USER  
USER    Estimated Free Energy of Binding    =  -10.61 kcal/mol  [=(1)+(2)+(3)-(4)]
USER    Estimated Inhibition Constant, Ki   =   16.77 nM (nanomolar)  [Temperature = 298.15 K]
USER    
USER    (1) Final Intermolecular Energy     =  -12.99 kcal/mol
USER        vdW + Hbond + desolv Energy     =  -12.99 kcal/mol
USER        Electrostatic Energy            =   +0.00 kcal/mol
USER    (2) Final Total Internal Energy     =   -2.08 kcal/mol
USER    (3) Torsional Free Energy           =   +2.39 kcal/mol
USER    (4) Unbound System's Energy  [=(2)] =   -2.08 kcal/mol
USER    
USER    
USER  
USER    DPF = ligand_dock.biased.dpf
USER    NEWDPF move	ligand.dum.pdbqt
USER    NEWDPF about	0.698000 0.076000 -0.072000
USER    NEWDPF tran0	38.033743 17.074951 121.365105
USER    NEWDPF axisangle0	-0.235745 -0.171371 0.956586 113.426846
USER    NEWDPF quaternion0	-0.197068 -0.143255 0.799644 0.548827
USER    NEWDPF dihe0	2.08 155.76 19.26 169.95 -116.01 29.29 166.99 36.71 
USER  
USER                              x       y       z    vdW   Elec        q     RMS 
ATOM      1  N   UNL     1      38.925  17.785 121.624 -0.08 -0.00    +0.000    127.711
ATOM      2  H   UNL     1      38.859  18.244 120.715 +0.00 -0.00    +0.000    127.711
ATOM      3  H   UNL     1      39.495  16.941 121.572 +0.01 -0.00    +0.000    127.711
ATOM      4  C   UNL     1      37.576  17.392 122.054 -0.15 -0.00    +0.000    127.711
ATOM      5  C   UNL     1      37.215  13.101 121.635 -0.43 -0.00    +0.000    127.711
ATOM      6  C   UNL     1      37.230  13.699 122.911 -0.48 -0.00    +0.000    127.711
ATOM      7  C   UNL     1      37.341  15.086 123.042 -0.36 -0.00    +0.000    127.711
ATOM      8  C   UNL     1      37.418  15.904 121.906 -0.22 -0.00    +0.000    127.711
ATOM      9  C   UNL     1      37.401  15.314 120.633 -0.22 -0.00    +0.000    127.711
ATOM     10  C   UNL     1      37.288  13.927 120.501 -0.32 -0.00    +0.000    127.711
ATOM     11  CM  UNL     1      37.316  14.505 121.771 +0.00 -0.00    +0.000    127.711
ATOM     12  C   UNL     1      37.040  10.751 122.445 -0.57 -0.00    +0.000    127.711
ATOM     13  C   UNL     1      37.086  11.636 121.438 -0.54 -0.00    +0.000    127.711
ATOM     14  O   UNL     1      36.691   8.864 121.082 -2.62 -0.00    +0.000    127.711
ATOM     15  C   UNL     1      36.915   9.292 122.245 -0.67 -0.00    +0.000    127.711
ATOM     16  N   UNL     1      37.013   8.357 123.328 -0.71 -0.00    +0.000    127.711
ATOM     17  H   UNL     1      37.091   8.683 124.253 -0.51 -0.00    +0.000    127.711
ATOM     18  O   UNL     1      36.998   7.025 123.080 -1.83 -0.00    +0.000    127.711
ATOM     19  H   UNL     1      36.949   6.874 122.123 -0.15 -0.00    +0.000    127.711
ATOM     20  C   UNL     1      39.565  18.706 122.575 -0.10 -0.00    +0.000    127.711
ATOM     21  C   UNL     1      40.368  17.966 123.658 -0.25 -0.00    +0.000    127.711
ATOM     22  C   UNL     1      41.566  17.294 123.052 -0.29 -0.00    +0.000    127.711
ATOM     23  C   UNL     1      41.692  15.955 122.676 -0.42 -0.00    +0.000    127.711
ATOM     24  N   UNL     1      42.943  15.699 122.228 -0.38 -0.00    +0.000    127.711
ATOM     25  C   UNL     1      43.617  16.857 122.338 -0.32 -0.00    +0.000    127.711
ATOM     26  C   UNL     1      42.814  17.850 122.842 -0.24 -0.00    +0.000    127.711
ATOM     27  C   UNL     1      43.297  19.139 123.072 -0.08 -0.00    +0.000    127.711
ATOM     28  C   UNL     1      44.644  19.401 122.761 -0.13 -0.00    +0.000    127.711
ATOM     29  C   UNL     1      45.469  18.380 122.238 -0.18 -0.00    +0.000    127.711
ATOM     30  C   UNL     1      44.955  17.088 122.022 -0.27 -0.00    +0.000    127.711
ATOM     31  C   UNL     1      40.604  14.930 122.722 -0.46 -0.00    +0.000    127.711
ATOM     32  H   UNL     1      43.288  14.841 121.891 -0.01 +0.00    +0.000    127.711
ATOM     33  CM  UNL     1      42.539  16.698 122.615 +0.00 -0.00    +0.000    127.711
ATOM     34  CM  UNL     1      44.133  18.118 122.545 +0.00 -0.00    +0.000    127.711
TER
ENDMDL
MODEL       86
USER    Run = 86
USER    Cluster Rank = 11
USER    Number of conformations in this cluster = 1
USER  
USER    RMSD from reference structure       = 127.434 A
USER  
USER    Estimated Free Energy of Binding    =  -10.39 kcal/mol  [=(1)+(2)+(3)-(4)]
USER    Estimated Inhibition Constant, Ki   =   24.02 nM (nanomolar)  [Temperature = 298.15 K]
USER    
USER    (1) Final Intermolecular Energy     =  -12.78 kcal/mol
USER        vdW + Hbond + desolv Energy     =  -12.78 kcal/mol
USER        Electrostatic Energy            =   +0.00 kcal/mol
USER    (2) Final Total Internal Energy     =   -1.56 kcal/mol
USER    (3) Torsional Free Energy           =   +2.39 kcal/mol
USER    (4) Unbound System's Energy  [=(2)] =   -1.56 kcal/mol
USER    
USER    
USER  
USER    DPF = ligand_dock.biased.dpf
USER    NEWDPF move	ligand.dum.pdbqt
USER    NEWDPF about	0.698000 0.076000 -0.072000
USER    NEWDPF tran0	37.831220 14.485454 123.126288
USER    NEWDPF axisangle0	0.267451 0.909714 0.317633 139.586151
USER    NEWDPF quaternion0	0.250990 0.853722 0.298083 0.345412
USER    NEWDPF dihe0	1.58 -145.49 -81.42 172.85 -89.16 -159.86 176.27 -86.07 
USER  
USER                              x       y       z    vdW   Elec        q     RMS 
ATOM      1  N   UNL     1      38.927  14.510 122.721 -0.42 -0.00    +0.000    127.434
ATOM      2  H   UNL     1      39.182  13.698 123.284 -0.05 -0.00    +0.000    127.434
ATOM      3  H   UNL     1      39.010  15.373 123.257 -0.02 -0.00    +0.000    127.434
ATOM      4  C   UNL     1      37.525  14.373 122.303 -0.44 -0.00    +0.000    127.434
ATOM      5  C   UNL     1      36.192  10.282 122.756 -0.61 -0.00    +0.000    127.434
ATOM      6  C   UNL     1      37.008  10.655 121.669 -0.43 -0.00    +0.000    127.434
ATOM      7  C   UNL     1      37.442  11.977 121.529 -0.41 -0.00    +0.000    127.434
ATOM      8  C   UNL     1      37.088  12.945 122.479 -0.50 -0.00    +0.000    127.434
ATOM      9  C   UNL     1      36.278  12.579 123.565 -0.59 -0.00    +0.000    127.434
ATOM     10  C   UNL     1      35.845  11.257 123.706 -0.49 -0.00    +0.000    127.434
ATOM     11  CM  UNL     1      36.642  11.616 122.617 +0.00 -0.00    +0.000    127.434
ATOM     12  C   UNL     1      34.461   8.490 122.697 -0.70 -0.00    +0.000    127.434
ATOM     13  C   UNL     1      35.714   8.892 122.959 -0.69 -0.00    +0.000    127.434
ATOM     14  O   UNL     1      34.205   6.557 124.016 -0.84 -0.00    +0.000    127.434
ATOM     15  C   UNL     1      33.988   7.105 122.903 -0.76 -0.00    +0.000    127.434
ATOM     16  N   UNL     1      33.319   6.361 121.876 -0.66 -0.00    +0.000    127.434
ATOM     17  H   UNL     1      33.230   6.742 120.973 -0.03 -0.00    +0.000    127.434
ATOM     18  O   UNL     1      32.811   5.134 122.145 -0.84 -0.00    +0.000    127.434
ATOM     19  H   UNL     1      32.961   4.920 123.079 -0.36 -0.00    +0.000    127.434
ATOM     20  C   UNL     1      39.843  14.599 121.574 -0.33 -0.00    +0.000    127.434
ATOM     21  C   UNL     1      40.249  16.048 121.258 -0.24 -0.00    +0.000    127.434
ATOM     22  C   UNL     1      41.550  16.382 121.930 -0.28 -0.00    +0.000    127.434
ATOM     23  C   UNL     1      41.735  17.016 123.160 -0.33 -0.00    +0.000    127.434
ATOM     24  N   UNL     1      43.051  17.209 123.407 -0.35 -0.00    +0.000    127.434
ATOM     25  C   UNL     1      43.700  16.725 122.334 -0.33 -0.00    +0.000    127.434
ATOM     26  C   UNL     1      42.821  16.219 121.410 -0.27 -0.00    +0.000    127.434
ATOM     27  C   UNL     1      43.256  15.683 120.198 -0.17 -0.00    +0.000    127.434
ATOM     28  C   UNL     1      44.641  15.665 119.947 -0.27 +0.00    +0.000    127.434
ATOM     29  C   UNL     1      45.547  16.181 120.900 -0.23 +0.00    +0.000    127.434
ATOM     30  C   UNL     1      45.077  16.720 122.112 -0.25 +0.00    +0.000    127.434
ATOM     31  C   UNL     1      40.649  17.410 124.110 -0.28 -0.00    +0.000    127.434
ATOM     32  H   UNL     1      43.451  17.619 124.208 -0.61 -0.00    +0.000    127.434
ATOM     33  CM  UNL     1      42.586  16.726 122.479 +0.00 -0.00    +0.000    127.434
ATOM     34  CM  UNL     1      44.174  16.199 121.151 +0.00 -0.00    +0.000    127.434
TER
ENDMDL
MODEL       82
USER    Run = 82
USER    Cluster Rank = 12
USER    Number of conformations in this cluster = 1
USER  
USER    RMSD from reference structure       = 127.460 A
USER  
USER    Estimated Free Energy of Binding    =  -10.39 kcal/mol  [=(1)+(2)+(3)-(4)]
USER    Estimated Inhibition Constant, Ki   =   24.13 nM (nanomolar)  [Temperature = 298.15 K]
USER    
USER    (1) Final Intermolecular Energy     =  -12.78 kcal/mol
USER        vdW + Hbond + desolv Energy     =  -12.78 kcal/mol
USER        Electrostatic Energy            =   +0.00 kcal/mol
USER    (2) Final Total Internal Energy     =   -2.40 kcal/mol
USER    (3) Torsional Free Energy           =   +2.39 kcal/mol
USER    (4) Unbound System's Energy  [=(2)] =   -2.40 kcal/mol
USER    
USER    
USER  
USER    DPF = ligand_dock.biased.dpf
USER    NEWDPF move	ligand.dum.pdbqt
USER    NEWDPF about	0.698000 0.076000 -0.072000
USER    NEWDPF tran0	35.875433 16.733438 123.085646
USER    NEWDPF axisangle0	-0.605206 0.502546 -0.617393 -100.500544
USER    NEWDPF quaternion0	-0.465309 0.386380 -0.474679 -0.639435
USER    NEWDPF dihe0	8.37 20.66 -85.76 -5.92 157.71 17.60 171.46 4.05 
USER  
USER                              x       y       z    vdW   Elec        q     RMS 
ATOM      1  N   UNL     1      35.555  17.705 122.522 -0.25 -0.00    +0.000    127.460
ATOM      2  H   UNL     1      34.590  17.383 122.457 -0.02 -0.00    +0.000    127.460
ATOM      3  H   UNL     1      36.121  17.340 121.756 +0.00 -0.00    +0.000    127.460
ATOM      4  C   UNL     1      36.133  17.217 123.781 -0.31 -0.00    +0.000    127.460
ATOM      5  C   UNL     1      36.869  12.974 123.374 -0.55 -0.00    +0.000    127.460
ATOM      6  C   UNL     1      37.920  13.901 123.226 -0.39 -0.00    +0.000    127.460
ATOM      7  C   UNL     1      37.679  15.272 123.364 -0.29 -0.00    +0.000    127.460
ATOM      8  C   UNL     1      36.394  15.741 123.672 -0.35 -0.00    +0.000    127.460
ATOM      9  C   UNL     1      35.346  14.821 123.824 -0.50 -0.00    +0.000    127.460
ATOM     10  C   UNL     1      35.586  13.450 123.688 -0.41 -0.00    +0.000    127.460
ATOM     11  CM  UNL     1      36.632  14.359 123.524 +0.00 -0.00    +0.000    127.460
ATOM     12  C   UNL     1      36.630  10.781 122.214 -0.65 -0.00    +0.000    127.460
ATOM     13  C   UNL     1      37.072  11.509 123.251 -0.66 -0.00    +0.000    127.460
ATOM     14  O   UNL     1      37.054   8.838 120.955 -2.70 -0.00    +0.000    127.460
ATOM     15  C   UNL     1      36.831   9.322 122.096 -0.69 -0.00    +0.000    127.460
ATOM     16  N   UNL     1      36.756   8.442 123.227 -0.70 -0.00    +0.000    127.460
ATOM     17  H   UNL     1      36.487   8.794 124.106 -0.36 -0.00    +0.000    127.460
ATOM     18  O   UNL     1      37.052   7.128 123.087 -1.94 -0.00    +0.000    127.460
ATOM     19  H   UNL     1      37.421   6.971 122.204 -0.23 -0.00    +0.000    127.460
ATOM     20  C   UNL     1      35.571  19.174 122.436 -0.18 -0.00    +0.000    127.460
ATOM     21  C   UNL     1      36.811  19.704 121.695 -0.14 -0.00    +0.000    127.460
ATOM     22  C   UNL     1      37.880  18.651 121.648 -0.07 -0.00    +0.000    127.460
ATOM     23  C   UNL     1      38.028  17.630 120.707 -0.07 -0.00    +0.000    127.460
ATOM     24  N   UNL     1      39.072  16.831 121.029 -0.11 -0.00    +0.000    127.460
ATOM     25  C   UNL     1      39.572  17.323 122.175 -0.14 -0.00    +0.000    127.460
ATOM     26  C   UNL     1      38.869  18.427 122.588 -0.09 -0.00    +0.000    127.460
ATOM     27  C   UNL     1      39.184  19.100 123.769 -0.10 -0.00    +0.000    127.460
ATOM     28  C   UNL     1      40.262  18.616 124.533 -0.21 -0.00    +0.000    127.460
ATOM     29  C   UNL     1      40.989  17.482 124.106 -0.30 -0.00    +0.000    127.460
ATOM     30  C   UNL     1      40.644  16.821 122.912 -0.27 -0.00    +0.000    127.460
ATOM     31  C   UNL     1      37.185  17.438 119.487 -0.10 -0.00    +0.000    127.460
ATOM     32  H   UNL     1      39.398  16.050 120.525 +0.00 -0.00    +0.000    127.460
ATOM     33  CM  UNL     1      38.696  17.743 121.610 +0.00 -0.00    +0.000    127.460
ATOM     34  CM  UNL     1      39.920  17.961 123.347 +0.00 -0.00    +0.000    127.460
TER
ENDMDL
MODEL        2
USER    Run = 2
USER    Cluster Rank = 13
USER    Number of conformations in this cluster = 2
USER  
USER    RMSD from reference structure       = 128.071 A
USER  
USER    Estimated Free Energy of Binding    =  -10.25 kcal/mol  [=(1)+(2)+(3)-(4)]
USER    Estimated Inhibition Constant, Ki   =   30.76 nM (nanomolar)  [Temperature = 298.15 K]
USER    
USER    (1) Final Intermolecular Energy     =  -12.63 kcal/mol
USER        vdW + Hbond + desolv Energy     =  -12.63 kcal/mol
USER        Electrostatic Energy            =   +0.00 kcal/mol
USER    (2) Final Total Internal Energy     =   -1.79 kcal/mol
USER    (3) Torsional Free Energy           =   +2.39 kcal/mol
USER    (4) Unbound System's Energy  [=(2)] =   -1.79 kcal/mol
USER    
USER    
USER  
USER    DPF = ligand_dock.biased.dpf
USER    NEWDPF move	ligand.dum.pdbqt
USER    NEWDPF about	0.698000 0.076000 -0.072000
USER    NEWDPF tran0	38.667674 14.307068 121.935205
USER    NEWDPF axisangle0	-0.059178 -0.801232 -0.595420 -129.156921
USER    NEWDPF quaternion0	-0.053448 -0.723652 -0.537768 -0.429275
USER    NEWDPF dihe0	6.35 18.25 -138.31 -36.70 -118.67 1.30 153.70 -29.52 
USER  
USER                              x       y       z    vdW   Elec        q     RMS 
ATOM      1  N   UNL     1      39.727  14.738 121.697 -0.35 -0.00    +0.000    128.071
ATOM      2  H   UNL     1      40.127  13.801 121.643 -0.03 +0.00    +0.000    128.071
ATOM      3  H   UNL     1      39.706  15.077 122.658 -0.02 -0.00    +0.000    128.071
ATOM      4  C   UNL     1      38.343  14.691 121.207 -0.35 -0.00    +0.000    128.071
ATOM      5  C   UNL     1      36.526  11.038 122.644 -0.60 -0.00    +0.000    128.071
ATOM      6  C   UNL     1      36.566  12.188 123.458 -0.62 -0.00    +0.000    128.071
ATOM      7  C   UNL     1      37.149  13.369 122.988 -0.50 -0.00    +0.000    128.071
ATOM      8  C   UNL     1      37.683  13.431 121.692 -0.42 -0.00    +0.000    128.071
ATOM      9  C   UNL     1      37.643  12.290 120.878 -0.43 -0.00    +0.000    128.071
ATOM     10  C   UNL     1      37.059  11.109 121.346 -0.41 -0.00    +0.000    128.071
ATOM     11  CM  UNL     1      37.104  12.237 122.168 +0.00 -0.00    +0.000    128.071
ATOM     12  C   UNL     1      36.164   8.575 122.520 -0.75 -0.00    +0.000    128.071
ATOM     13  C   UNL     1      35.909   9.764 123.088 -0.66 -0.00    +0.000    128.071
ATOM     14  O   UNL     1      36.227   6.253 122.899 -1.12 -0.00    +0.000    128.071
ATOM     15  C   UNL     1      35.545   7.309 122.964 -0.76 -0.00    +0.000    128.071
ATOM     16  N   UNL     1      34.193   7.240 123.440 -0.70 -0.00    +0.000    128.071
ATOM     17  H   UNL     1      33.619   8.039 123.405 -0.11 -0.00    +0.000    128.071
ATOM     18  O   UNL     1      33.705   6.077 123.935 -0.80 -0.00    +0.000    128.071
ATOM     19  H   UNL     1      34.419   5.424 123.991 -0.60 -0.00    +0.000    128.071
ATOM     20  C   UNL     1      40.564  15.658 120.911 -0.24 -0.00    +0.000    128.071
ATOM     21  C   UNL     1      40.304  17.133 121.260 -0.14 -0.00    +0.000    128.071
ATOM     22  C   UNL     1      40.716  17.414 122.677 -0.20 -0.00    +0.000    128.071
ATOM     23  C   UNL     1      41.963  17.183 123.262 -0.33 -0.00    +0.000    128.071
ATOM     24  N   UNL     1      41.940  17.499 124.577 -0.23 -0.00    +0.000    128.071
ATOM     25  C   UNL     1      40.685  17.906 124.835 -0.29 -0.00    +0.000    128.071
ATOM     26  C   UNL     1      39.908  17.861 123.705 -0.21 -0.00    +0.000    128.071
ATOM     27  C   UNL     1      38.558  18.212 123.727 -0.16 -0.00    +0.000    128.071
ATOM     28  C   UNL     1      38.007  18.627 124.954 -0.16 -0.00    +0.000    128.071
ATOM     29  C   UNL     1      38.808  18.678 126.117 -0.14 -0.00    +0.000    128.071
ATOM     30  C   UNL     1      40.166  18.313 126.064 -0.29 -0.00    +0.000    128.071
ATOM     31  C   UNL     1      43.182  16.686 122.552 -0.40 -0.00    +0.000    128.071
ATOM     32  H   UNL     1      42.689  17.443 125.214 -0.59 -0.00    +0.000    128.071
ATOM     33  CM  UNL     1      41.071  17.570 123.835 +0.00 -0.00    +0.000    128.071
ATOM     34  CM  UNL     1      39.356  18.266 124.901 +0.00 -0.00    +0.000    128.071
TER
ENDMDL
MODEL       57
USER    Run = 57
USER    Cluster Rank = 14
USER    Number of conformations in this cluster = 1
USER  
USER    RMSD from reference structure       = 124.913 A
USER  
USER    Estimated Free Energy of Binding    =  -10.12 kcal/mol  [=(1)+(2)+(3)-(4)]
USER    Estimated Inhibition Constant, Ki   =   38.49 nM (nanomolar)  [Temperature = 298.15 K]
USER    
USER    (1) Final Intermolecular Energy     =  -12.50 kcal/mol
USER        vdW + Hbond + desolv Energy     =  -12.50 kcal/mol
USER        Electrostatic Energy            =   +0.00 kcal/mol
USER    (2) Final Total Internal Energy     =   -1.90 kcal/mol
USER    (3) Torsional Free Energy           =   +2.39 kcal/mol
USER    (4) Unbound System's Energy  [=(2)] =   -1.90 kcal/mol
USER    
USER    
USER  
USER    DPF = ligand_dock.biased.dpf
USER    NEWDPF move	ligand.dum.pdbqt
USER    NEWDPF about	0.698000 0.076000 -0.072000
USER    NEWDPF tran0	39.050160 15.844490 121.979944
USER    NEWDPF axisangle0	-0.310832 -0.867646 -0.388038 -126.725789
USER    NEWDPF quaternion0	-0.277842 -0.775558 -0.346853 -0.448338
USER    NEWDPF dihe0	-21.35 32.43 36.89 -151.38 46.50 -166.41 86.16 -67.68 
USER  
USER                              x       y       z    vdW   Elec        q     RMS 
ATOM      1  N   UNL     1      40.032  15.894 121.349 -0.22 -0.00    +0.000    124.913
ATOM      2  H   UNL     1      40.341  14.990 121.707 -0.01 -0.00    +0.000    124.913
ATOM      3  H   UNL     1      40.293  16.652 121.979 +0.00 -0.00    +0.000    124.913
ATOM      4  C   UNL     1      38.567  15.883 121.239 -0.22 -0.00    +0.000    124.913
ATOM      5  C   UNL     1      36.960  12.108 122.609 -0.55 -0.00    +0.000    124.913
ATOM      6  C   UNL     1      37.435  12.249 121.290 -0.46 -0.00    +0.000    124.913
ATOM      7  C   UNL     1      37.959  13.469 120.852 -0.39 -0.00    +0.000    124.913
ATOM      8  C   UNL     1      38.039  14.563 121.726 -0.34 -0.00    +0.000    124.913
ATOM      9  C   UNL     1      37.570  14.427 123.041 -0.42 -0.00    +0.000    124.913
ATOM     10  C   UNL     1      37.047  13.207 123.480 -0.51 -0.00    +0.000    124.913
ATOM     11  CM  UNL     1      37.501  13.337 122.166 +0.00 -0.00    +0.000    124.913
ATOM     12  C   UNL     1      36.552   9.651 122.510 -0.71 -0.00    +0.000    124.913
ATOM     13  C   UNL     1      36.406  10.833 123.128 -0.70 -0.00    +0.000    124.913
ATOM     14  O   UNL     1      36.751   7.378 123.088 -2.06 -0.00    +0.000    124.913
ATOM     15  C   UNL     1      35.996   8.384 123.030 -0.74 -0.00    +0.000    124.913
ATOM     16  N   UNL     1      34.629   8.258 123.444 -0.62 -0.00    +0.000    124.913
ATOM     17  H   UNL     1      34.005   9.008 123.313 -0.43 -0.00    +0.000    124.913
ATOM     18  O   UNL     1      34.193   7.108 124.012 -0.79 -0.00    +0.000    124.913
ATOM     19  H   UNL     1      34.790   6.382 123.771 -0.05 -0.00    +0.000    124.913
ATOM     20  C   UNL     1      40.685  16.138 120.053 -0.17 -0.00    +0.000    124.913
ATOM     21  C   UNL     1      39.683  16.542 118.959 -0.12 -0.00    +0.000    124.913
ATOM     22  C   UNL     1      39.883  15.699 117.732 -0.12 -0.00    +0.000    124.913
ATOM     23  C   UNL     1      41.038  15.586 116.956 -0.23 -0.00    +0.000    124.913
ATOM     24  N   UNL     1      40.820  14.783 115.888 -0.36 -0.00    +0.000    124.913
ATOM     25  C   UNL     1      39.533  14.405 115.969 -0.31 -0.00    +0.000    124.913
ATOM     26  C   UNL     1      38.927  14.948 117.074 -0.17 -0.00    +0.000    124.913
ATOM     27  C   UNL     1      37.580  14.721 117.359 -0.24 -0.00    +0.000    124.913
ATOM     28  C   UNL     1      36.851  13.902 116.477 -0.32 -0.00    +0.000    124.913
ATOM     29  C   UNL     1      37.476  13.340 115.342 -0.39 -0.00    +0.000    124.913
ATOM     30  C   UNL     1      38.835  13.592 115.078 -0.39 -0.00    +0.000    124.913
ATOM     31  C   UNL     1      42.356  16.227 117.254 -0.23 -0.00    +0.000    124.913
ATOM     32  H   UNL     1      41.472  14.528 115.195 -0.25 -0.00    +0.000    124.913
ATOM     33  CM  UNL     1      40.065  15.075 116.698 +0.00 -0.00    +0.000    124.913
ATOM     34  CM  UNL     1      38.200  14.151 116.216 +0.00 -0.00    +0.000    124.913
TER
ENDMDL


AVSFLD: # AVS field file
AVSFLD: #
AVSFLD: # Created by AutoDock
AVSFLD: #
AVSFLD: ndim=2           # number of dimensions in the field
AVSFLD: nspace=1         # number of physical coordinates
AVSFLD: veclen=7         # vector size
AVSFLD: dim1=34          # atoms
AVSFLD: dim2=14          # conformations
AVSFLD: data=Real       # data type (byte,integer,Real,double)
AVSFLD: field=uniform    # field coordinate layout
AVSFLD: label= x y z vdW Elec q RMS
AVSFLD: variable 1 file = ligand_dock.biased.dlg.pdb filetype = ascii offset = 5 stride = 12
AVSFLD: variable 2 file = ligand_dock.biased.dlg.pdb filetype = ascii offset = 6 stride = 12
AVSFLD: variable 3 file = ligand_dock.biased.dlg.pdb filetype = ascii offset = 7 stride = 12
AVSFLD: variable 4 file = ligand_dock.biased.dlg.pdb filetype = ascii offset = 8 stride = 12
AVSFLD: variable 5 file = ligand_dock.biased.dlg.pdb filetype = ascii offset = 9 stride = 12
AVSFLD: variable 6 file = ligand_dock.biased.dlg.pdb filetype = ascii offset = 10 stride = 12
AVSFLD: variable 7 file = ligand_dock.biased.dlg.pdb filetype = ascii offset = 11 stride = 12
AVSFLD: # end of file

>>> Closing the docking parameter file (DPF)...
This docking finished at:			6:55 54" p.m., 11/08/2024


________________________________________________________________________________

autodock4: Successful Completion on "ThinkStation-P620"

Real= 16m 47.15s,  CPU= 16m 46.83s,  System= 0.22s
________________________________________________________________________________

