REMARK  Name = 
REMARK  5 active torsions:
REMARK  status: ('A' for Active; 'I' for Inactive)
REMARK    1  A    between atoms: S_2  and  N_3
REMARK    2  A    between atoms: S_2  and  C_10
REMARK    3  A    between atoms: N_3  and  C_4
REMARK    4  A    between atoms: C_12  and  C_13
REMARK    5  A    between atoms: C_14  and  C_15
REMARK                            x       y       z     vdW  Elec       q    Type
REMARK                         _______ _______ _______ _____ _____    ______ ____
ROOT
ATOM      1  C   UNL     1       0.416   5.054   6.756  0.00  0.00     0.000 A 
ATOM      2  C   UNL     1       0.599   5.318   5.391  0.00  0.00     0.000 A 
ATOM      3  C   UNL     1       0.512   4.278   4.442  0.00  0.00     0.000 A 
ATOM      4  C   UNL     1       0.256   2.973   4.890  0.00  0.00     0.000 A 
ATOM      5  C   UNL     1       0.063   2.711   6.249  0.00  0.00     0.000 A 
ATOM      6  C   UNL     1       0.139   3.748   7.180  0.00  0.00     0.000 A 
ATOM     25  CM  UNL     1       0.331   4.014   5.818  1.00  0.00     0.000 AC
ENDROOT
BRANCH   1   8
ATOM      7  O   UNL     1       0.936   5.819   9.281  0.00  0.00     0.000 OA
ATOM      8  S   UNL     1       0.901   6.365   7.829  0.00  0.00     0.000 S 
ATOM      9  O   UNL     1       1.138   7.598   7.005  0.00  0.00     0.000 OA
BRANCH   8  10
ATOM     10  N   UNL     1       2.365   5.945   8.663  0.00  0.00     0.000 N 
ATOM     11  H   UNL     1       3.060   5.461   8.161  0.00  0.00     0.000 HD
BRANCH  10  12
ATOM     12  C   UNL     1       2.622   6.261  10.043  0.00  0.00     0.000 A 
ATOM     13  C   UNL     1       3.411   7.366  10.419  0.00  0.00     0.000 A 
ATOM     14  C   UNL     1       3.632   7.648  11.771  0.00  0.00     0.000 A 
ATOM     15  C   UNL     1       3.076   6.833  12.758  0.00  0.00     0.000 A 
ATOM     16  C   UNL     1       2.299   5.730  12.396  0.00  0.00     0.000 A 
ATOM     17  C   UNL     1       2.075   5.444  11.046  0.00  0.00     0.000 A 
ATOM     26  CM  UNL     1       2.853   6.547  11.405  1.00  0.00     0.000 AC
ENDBRANCH  10  12
ENDBRANCH   8  10
ENDBRANCH   1   8
BRANCH   3  18
ATOM     18  C   UNL     1       0.723   4.501   2.990  0.00  0.00     0.000 C 
ATOM     19  C   UNL     1       1.899   4.861   2.454  0.00  0.00     0.000 C 
BRANCH  19  20
ATOM     20  C   UNL     1       2.101   5.079   1.007  0.00  0.00     0.000 C 
ATOM     21  N   UNL     1       1.102   4.749   0.034  0.00  0.00     0.000 N 
ATOM     22  O   UNL     1       1.374   4.869  -1.286  0.00  0.00     0.000 OA
ATOM     23  O   UNL     1       3.184   5.597   0.623  0.00  0.00     0.000 OA
ATOM     24  H   UNL     1       0.216   4.434   0.327  0.00  0.00     0.000 HD
ENDBRANCH  19  20
ENDBRANCH   3  18
TORSDOF 5